{'_ref': 'TBD', '_srcid': 'CAKYAQ_clean', 'submitters': [{'name': 'Dalar Nazarian Jeff Camp and David Sholl', 'email': 'dalar@gatech.edu jcamp6@gatech.edu'}], '_method': 'VASP DFT with PBE;DDEC'}
data_DyPH7C7NO9
_symmetry_space_group_name_H-M   'P 1'
_cell_length_a   11.43190000
_cell_length_b   14.84570000
_cell_length_c   16.38900000
_cell_angle_alpha   90.00000000
_cell_angle_beta   90.00000000
_cell_angle_gamma   90.00000000
_symmetry_Int_Tables_number   1
_chemical_formula_structural   DyPH7C7NO9
_chemical_formula_sum   'Dy8 P8 H56 C56 N8 O72'
_cell_volume   2781.45188828
_cell_formula_units_Z   8
loop_
 _symmetry_equiv_pos_site_id
 _symmetry_equiv_pos_as_xyz
  1  'x, y, z'
loop_
 _atom_site_label
 _atom_site_fract_x
 _atom_site_fract_y
 _atom_site_fract_z
 _atom_site_charge
 Dy 0.27406 0.74408 0.43143   2.242648
 Dy 0.23627 0.80514 0.05496   2.291783
 Dy 0.22594 0.25592 0.93143   2.242648
 Dy 0.26373 0.19486 0.55496   2.291783
 Dy 0.72594 0.24408 0.06857   2.242648
 Dy 0.76373 0.30514 0.44504   2.291783
 Dy 0.77406 0.75592 0.56857   2.242648
 Dy 0.73627 0.69486 0.94504   2.291784
 P 0.2583 0.8178 0.8324   1.542488
 P 0.3175 0.9477 0.5473   1.567843
 P 0.2417 0.1822 0.3324   1.542488
 P 0.1825 0.0523 0.0473   1.567843
 P 0.7417 0.3178 0.6676   1.542488
 P 0.6825 0.4477 0.9527   1.567843
 P 0.7583 0.6822 0.1676   1.542488
 P 0.8175 0.5523 0.4527   1.567843
 H 0.3989 0.7473 0.7966   0.448234
 H 0.4709 0.0073 0.5341   0.447341
 H 0.2322 0.0051 0.6944   0.226468
 H 0.8774 0.1537 0.7436   0.29891
 H 0.3351 0.9566 0.8023   0.20644
 H 0.2039 0.9664 0.8274   0.18166
 H 0.3874 0.9054 0.6776   0.196612
 H 0.292 0.8364 0.6491   0.183416
 H 0.0887 0.9379 0.626   0.134441
 H 0.0906 0.8583 0.6886   0.130108
 H 0.9939 0.8829 0.8228   0.117104
 H 0.8589 0.9599 0.8993   0.154102
 H 0.8017 0.1014 0.858   0.124513
 H 0.989 0.0723 0.6576   0.123685
 H 0.1011 0.2527 0.2966   0.448234
 H 0.0291 0.9927 0.0341   0.447342
 H 0.2678 0.9949 0.1944   0.226468
 H 0.6226 0.8463 0.2436   0.29891
 H 0.1649 0.0434 0.3023   0.20644
 H 0.2961 0.0336 0.3274   0.18166
 H 0.1126 0.0946 0.1776   0.196612
 H 0.208 0.1636 0.1491   0.183416
 H 0.4113 0.0621 0.126   0.134441
 H 0.4094 0.1417 0.1886   0.130108
 H 0.5061 0.1171 0.3228   0.117104
 H 0.6411 0.0401 0.3993   0.154102
 H 0.6983 0.8986 0.358   0.124513
 H 0.511 0.9277 0.1576   0.123685
 H 0.6011 0.2473 0.7034   0.448233
 H 0.5291 0.5073 0.9659   0.447341
 H 0.7678 0.5051 0.8056   0.226468
 H 0.1226 0.6537 0.7564   0.29891
 H 0.6649 0.4566 0.6977   0.206439
 H 0.7961 0.4664 0.6726   0.18166
 H 0.6126 0.4054 0.8224   0.196611
 H 0.708 0.3364 0.8509   0.183417
 H 0.9113 0.4379 0.874   0.134441
 H 0.9094 0.3583 0.8114   0.130108
 H 0.0061 0.3829 0.6772   0.117104
 H 0.1411 0.4599 0.6007   0.154102
 H 0.1983 0.6014 0.642   0.124513
 H 0.011 0.5723 0.8424   0.123685
 H 0.8989 0.7527 0.2034   0.448233
 H 0.9709 0.4927 0.4659   0.447341
 H 0.7322 0.4949 0.3056   0.226468
 H 0.3774 0.3463 0.2564   0.29891
 H 0.8351 0.5434 0.1977   0.206439
 H 0.7039 0.5336 0.1726   0.18166
 H 0.8874 0.5946 0.3224   0.196612
 H 0.792 0.6636 0.3509   0.183417
 H 0.5887 0.5621 0.374   0.134441
 H 0.5906 0.6417 0.3114   0.130108
 H 0.4939 0.6171 0.1772   0.117104
 H 0.3589 0.5401 0.1007   0.154102
 H 0.3017 0.3986 0.142   0.124513
 H 0.489 0.4277 0.3424   0.123685
 C 0.2576 0.9315 0.7942   -0.53093
 C 0.311 0.9 0.6524   -0.554042
 C 0.102 0.9228 0.6828   -0.123823
 C 0.01 0.9716 0.7351   -0.013586
 C 0.968 0.939 0.805   0.029039
 C 0.8886 0.9851 0.8516   -0.107205
 C 0.854 0.068 0.827   0.131999
 C 0.9687 0.0508 0.709   0.088491
 C 0.5001 0.7399 0.5434   0.542597
 C 0.5487 0.7647 0.4574   0.582393
 C 0.2613 0.8235 0.2512   0.567255
 C 0.243 0.7231 0.2372   0.575891
 C 0.4625 0.7024 0.9875   0.56492
 C 0.5082 0.7982 0.0077   0.569891
 C 0.2424 0.0685 0.2942   -0.53093
 C 0.189 0.1 0.1524   -0.554042
 C 0.398 0.0772 0.1828   -0.123823
 C 0.49 0.0284 0.2351   -0.013586
 C 0.532 0.061 0.305   0.029039
 C 0.6114 0.0149 0.3516   -0.107205
 C 0.646 0.932 0.327   0.131999
 C 0.5313 0.9492 0.209   0.088491
 C 0.9999 0.2601 0.0434   0.542597
 C 0.9513 0.2353 0.9574   0.582393
 C 0.2387 0.1765 0.7512   0.567255
 C 0.257 0.2769 0.7372   0.575891
 C 0.0375 0.2976 0.4875   0.56492
 C 0.9918 0.2018 0.5077   0.569891
 C 0.7424 0.4315 0.7058   -0.53093
 C 0.689 0.4 0.8476   -0.554042
 C 0.898 0.4228 0.8172   -0.123823
 C 0.99 0.4716 0.7649   -0.013586
 C 0.032 0.439 0.695   0.029039
 C 0.1114 0.4851 0.6484   -0.107205
 C 0.146 0.568 0.673   0.131999
 C 0.0313 0.5508 0.791   0.088491
 C 0.4999 0.2399 0.9566   0.542597
 C 0.4513 0.2647 0.0426   0.582393
 C 0.7387 0.3235 0.2488   0.567255
 C 0.757 0.2231 0.2628   0.575891
 C 0.5375 0.2024 0.5125   0.56492
 C 0.4918 0.2982 0.4923   0.569891
 C 0.7576 0.5685 0.2058   -0.53093
 C 0.811 0.6 0.3476   -0.554042
 C 0.602 0.5772 0.3172   -0.123823
 C 0.51 0.5284 0.2649   -0.013586
 C 0.468 0.561 0.195   0.029039
 C 0.3886 0.5149 0.1484   -0.107205
 C 0.354 0.432 0.173   0.131999
 C 0.4687 0.4492 0.291   0.088491
 C 0.000100000000003 0.7601 0.4566   0.542597
 C 0.0487 0.7353 0.5426   0.582393
 C 0.7613 0.6765 0.7488   0.567255
 C 0.743 0.7769 0.7628   0.575891
 C 0.9625 0.7976 0.0125   0.56492
 C 0.0082 0.7018 0.9923   0.569891
 N 0.224 0.9451 0.7043   0.240968
 N 0.8961 0.1 0.7581   -0.096425
 N 0.276 0.0549 0.2043   0.240968
 N 0.6039 0.9 0.2581   -0.096425
 N 0.776 0.4451 0.7957   0.240968
 N 0.1039 0.6 0.7419   -0.096425
 N 0.724 0.5549 0.2957   0.240968
 N 0.3961 0.4 0.2419   -0.096425
 O 0.181 0.7639 0.7838   -0.831804
 O 0.2324 0.8298 0.9193   -0.953708
 O 0.3912 0.7894 0.8285   -0.708867
 O 0.2608 0.0388 0.5513   -0.91633
 O 0.263 0.8845 0.4894   -0.91704
 O 0.4503 0.9545 0.5311   -0.732363
 O 0.3928 0.7264 0.5516   -0.664067
 O 0.574 0.7368 0.6003   -0.649396
 O 0.6524 0.7795 0.453   -0.635799
 O 0.4716 0.7617 0.4013   -0.723429
 O 0.2721 0.8497 0.3221   -0.614908
 O 0.2594 0.8686 0.187   -0.679373
 O 0.2282 0.6961 0.1662   -0.62868
 O 0.2509 0.6727 0.3003   -0.740057
 O 0.5314 0.6504 0.9523   -0.712786
 O 0.3613 0.6839 0.008   -0.657119
 O 0.4356 0.8472 0.0444   -0.691842
 O 0.6084 0.8159 0.9863   -0.627658
 O 0.319 0.2361 0.2838   -0.831804
 O 0.2676 0.1702 0.4193   -0.953708
 O 0.1088 0.2106 0.3285   -0.708867
 O 0.2392 0.9612 0.0513   -0.91633
 O 0.237 0.1155 0.9894   -0.91704
 O 0.0497 0.0455 0.0311   -0.732363
 O 0.1072 0.2736 0.0516   -0.664067
 O 0.926 0.2632 0.1003   -0.649396
 O 0.8476 0.2205 0.953   -0.635799
 O 0.0284 0.2383 0.9013   -0.723429
 O 0.2279 0.1503 0.8221   -0.614908
 O 0.2406 0.1314 0.687   -0.679373
 O 0.2718 0.3039 0.6662   -0.62868
 O 0.2491 0.3273 0.8003   -0.740057
 O 0.9686 0.3496 0.4523   -0.712786
 O 0.1387 0.3161 0.508   -0.657119
 O 0.0644 0.1528 0.5444   -0.691842
 O 0.8916 0.1841 0.4863   -0.627658
 O 0.819 0.2639 0.7162   -0.831804
 O 0.7676 0.3298 0.5807   -0.953708
 O 0.6088 0.2894 0.6715   -0.708867
 O 0.7392 0.5388 0.9487   -0.91633
 O 0.737 0.3845 0.0106   -0.91704
 O 0.5497 0.4545 0.9689   -0.732363
 O 0.6072 0.2264 0.9484   -0.664067
 O 0.426 0.2368 0.8997   -0.649396
 O 0.3476 0.2795 0.047   -0.6358
 O 0.5284 0.2617 0.0987   -0.723429
 O 0.7279 0.3497 0.1779   -0.614908
 O 0.7406 0.3686 0.313   -0.679373
 O 0.7718 0.1961 0.3338   -0.62868
 O 0.7491 0.1727 0.1997   -0.740057
 O 0.4686 0.1504 0.5477   -0.712786
 O 0.6387 0.1839 0.492   -0.657119
 O 0.5644 0.3472 0.4556   -0.691842
 O 0.3916 0.3159 0.5137   -0.627659
 O 0.681 0.7361 0.2162   -0.831804
 O 0.7324 0.6702 0.0807   -0.953708
 O 0.8912 0.7106 0.1715   -0.708867
 O 0.7608 0.4612 0.4487   -0.91633
 O 0.763 0.6155 0.5106   -0.91704
 O 0.9503 0.5455 0.4689   -0.732363
 O 0.8928 0.7736 0.4484   -0.664067
 O 0.074 0.7632 0.3997   -0.649396
 O 0.1524 0.7205 0.547   -0.6358
 O 0.9716 0.7383 0.5987   -0.723429
 O 0.7721 0.6503 0.6779   -0.614908
 O 0.7594 0.6314 0.813   -0.679373
 O 0.7282 0.8039 0.8338   -0.62868
 O 0.7509 0.8273 0.6997   -0.740057
 O 0.0314 0.8496 0.0477   -0.712786
 O 0.8613 0.8161 0.992   -0.657119
 O 0.9356 0.6528 0.9556   -0.691842
 O 0.1084 0.6841 0.0137   -0.627659
