{'_ref': 'TBD', '_srcid': 'CAKYAQ_clean', 'submitters': [{'name': 'Dalar Nazarian Jeff Camp and David Sholl', 'email': 'dalar@gatech.edu jcamp6@gatech.edu'}], '_method': 'VASP DFT with PBE;DDEC'}
data_CdNiH14(C3N2)3
_symmetry_space_group_name_H-M   'P 1'
_cell_length_a   7.76200000
_cell_length_b   13.73599976
_cell_length_c   22.01400000
_cell_angle_alpha   90.00000000
_cell_angle_beta   90.00000000
_cell_angle_gamma   91.03999888
_symmetry_Int_Tables_number   1
_chemical_formula_structural   CdNiH14(C3N2)3
_chemical_formula_sum   'Cd4 Ni4 H56 C36 N24'
_cell_volume   2346.7202828
_cell_formula_units_Z   4
loop_
 _symmetry_equiv_pos_site_id
 _symmetry_equiv_pos_as_xyz
  1  'x, y, z'
loop_
 _atom_site_label
 _atom_site_fract_x
 _atom_site_fract_y
 _atom_site_fract_z
 _atom_site_charge
 Cd 0.93684 0.82856 0.79804   0.962118
 Cd 0.06316 0.67144 0.29804   0.962118
 Cd 0.06316 0.17144 0.20196   0.962118
 Cd 0.93684 0.32856 0.70196   0.962118
 Ni 0.43635 0.57693 0.76779   -0.006356
 Ni 0.56365 0.92307 0.26779   -0.006356
 Ni 0.56365 0.42307 0.23221   -0.006356
 Ni 0.43635 0.07693 0.73221   -0.006356
 H 0.94448 0.83938 0.67205   0.313714
 H 0.1227 0.78813 0.69347   0.314091
 H 0.78979 0.70229 0.66823   0.065522
 H 0.94351 0.64191 0.71542   0.084944
 H 0.15306 0.64757 0.63195   0.076988
 H 0.95896 0.58099 0.61321   0.075131
 H 0.07927 0.77869 0.56656   0.069082
 H 0.86452 0.73085 0.55581   0.067677
 H 0.9896 0.58094 0.50981   0.062431
 H 0.20041 0.63594 0.51673   0.076021
 H 0.90637 0.71771 0.44053   0.080166
 H 0.12408 0.76387 0.44453   0.082309
 H 0.97751 0.93063 0.90313   0.291052
 H 0.78306 0.88321 0.90341   0.312855
 H 0.05552 0.66062 0.17205   0.313714
 H 0.8773 0.71187 0.19347   0.314091
 H 0.21021 0.79771 0.16823   0.065522
 H 0.05649 0.85809 0.21542   0.084944
 H 0.84694 0.85243 0.13195   0.076988
 H 0.04104 0.91901 0.11321   0.075131
 H 0.92073 0.72131 0.06656   0.069082
 H 0.13548 0.76915 0.05581   0.067677
 H 0.0104 0.91906 0.00981   0.062431
 H 0.79959 0.86406 0.01673   0.076023
 H 0.09363 0.78229 0.94053   0.080167
 H 0.87592 0.73613 0.94453   0.082309
 H 0.02249 0.56937 0.40313   0.291053
 H 0.21694 0.61679 0.40341   0.312856
 H 0.05552 0.16062 0.32795   0.313714
 H 0.8773 0.21187 0.30653   0.314091
 H 0.21021 0.29771 0.33177   0.065522
 H 0.05649 0.35809 0.28458   0.084944
 H 0.84694 0.35243 0.36805   0.076988
 H 0.04104 0.41901 0.38679   0.075131
 H 0.92073 0.22131 0.43344   0.069082
 H 0.13548 0.26915 0.44419   0.067676
 H 0.0104 0.41906 0.49019   0.062432
 H 0.79959 0.36406 0.48327   0.076023
 H 0.09363 0.28229 0.55947   0.080166
 H 0.87592 0.23613 0.55547   0.082309
 H 0.02249 0.06937 0.09687   0.291053
 H 0.21694 0.11679 0.09659   0.312856
 H 0.94448 0.33938 0.82795   0.313714
 H 0.1227 0.28813 0.80653   0.314091
 H 0.78979 0.20229 0.83177   0.065522
 H 0.94351 0.14191 0.78458   0.084944
 H 0.15306 0.14757 0.86805   0.076988
 H 0.95896 0.08099 0.88679   0.075131
 H 0.07927 0.27869 0.93344   0.069082
 H 0.86452 0.23085 0.94419   0.067676
 H 0.9896 0.08094 0.99019   0.062432
 H 0.20041 0.13594 0.98327   0.076025
 H 0.90637 0.21771 0.05947   0.080167
 H 0.12408 0.26387 0.05547   0.082309
 H 0.97751 0.43063 0.59687   0.291053
 H 0.78306 0.38321 0.59659   0.312857
 C 0.6048 0.6623 0.7933   0.129518
 C 0.6106 0.9955 0.7623   0.113336
 C 0.2672 0.9932 0.7612   0.114234
 C 0.2655 0.1594 0.7008   0.112867
 C 0.9277 0.6945 0.6783   0.058107
 C 0.015 0.6538 0.6217   -0.185652
 C 0.9999 0.7117 0.5632   -0.109192
 C 0.0628 0.6502 0.5098   -0.185066
 C 0.0419 0.6979 0.4467   0.054717
 C 0.3952 0.8377 0.2933   0.129518
 C 0.3894 0.5045 0.2623   0.113336
 C 0.7328 0.5068 0.2612   0.114234
 C 0.7345 0.3406 0.2008   0.112867
 C 0.0723 0.8055 0.1783   0.058107
 C 0.985 0.8462 0.1217   -0.185652
 C 0.000100000000003 0.7883 0.0632   -0.109192
 C 0.9372 0.8498 0.0098   -0.185066
 C 0.9581 0.8021 0.9467   0.054717
 C 0.3952 0.3377 0.2067   0.129517
 C 0.3894 0.0045 0.2377   0.113336
 C 0.7328 0.0068 0.2388   0.114234
 C 0.7345 0.8406 0.2992   0.112867
 C 0.0723 0.3055 0.3217   0.058107
 C 0.985 0.3462 0.3783   -0.185652
 C 0.000100000000003 0.2883 0.4368   -0.109191
 C 0.9372 0.3498 0.4902   -0.185067
 C 0.9581 0.3021 0.5533   0.054718
 C 0.6048 0.1623 0.7067   0.129517
 C 0.6106 0.4955 0.7377   0.113336
 C 0.2672 0.4932 0.7388   0.114234
 C 0.2655 0.6594 0.7992   0.112867
 C 0.9277 0.1945 0.8217   0.058107
 C 0.015 0.1538 0.8783   -0.185652
 C 0.9999 0.2117 0.9368   -0.109191
 C 0.0628 0.1502 0.9902   -0.185067
 C 0.0419 0.1979 0.0533   0.054718
 N 0.7093 0.7158 0.8077   -0.44055
 N 0.7227 0.9466 0.7786   -0.442576
 N 0.1622 0.9447 0.781   -0.436649
 N 0.1602 0.7097 0.8179   -0.445202
 N 0.9947 0.7881 0.6986   -0.638458
 N 0.9079 0.8694 0.8971   -0.627181
 N 0.2907 0.7842 0.3077   -0.44055
 N 0.2773 0.5534 0.2786   -0.442576
 N 0.8378 0.5553 0.281   -0.436649
 N 0.8398 0.7903 0.3179   -0.445202
 N 0.0053 0.7119 0.1986   -0.638458
 N 0.0921 0.6306 0.3971   -0.627182
 N 0.2907 0.2842 0.1923   -0.44055
 N 0.2773 0.0534 0.2214   -0.442576
 N 0.8378 0.0553 0.219   -0.436649
 N 0.8398 0.2903 0.1821   -0.445202
 N 0.0053 0.2119 0.3014   -0.638458
 N 0.0921 0.1306 0.1029   -0.627182
 N 0.7093 0.2158 0.6923   -0.44055
 N 0.7227 0.4466 0.7214   -0.442576
 N 0.1622 0.4447 0.719   -0.436649
 N 0.1602 0.2097 0.6821   -0.445202
 N 0.9947 0.2881 0.8014   -0.638458
 N 0.9079 0.3694 0.6029   -0.627182
