{'_ref': 'TBD', '_srcid': 'CAKYAQ_clean', 'submitters': [{'name': 'Dalar Nazarian Jeff Camp and David Sholl', 'email': 'dalar@gatech.edu jcamp6@gatech.edu'}], '_method': 'VASP DFT with PBE;DDEC'}
data_CoH4C12NO3F4
_symmetry_space_group_name_H-M   'P 1'
_cell_length_a   6.40180000
_cell_length_b   8.99090000
_cell_length_c   26.27100000
_cell_angle_alpha   90.00000000
_cell_angle_beta   90.00000000
_cell_angle_gamma   90.00000000
_symmetry_Int_Tables_number   1
_chemical_formula_structural   CoH4C12NO3F4
_chemical_formula_sum   'Co4 H16 C48 N4 O12 F16'
_cell_volume   1512.10473684
_cell_formula_units_Z   4
loop_
 _symmetry_equiv_pos_site_id
 _symmetry_equiv_pos_as_xyz
  1  'x, y, z'
loop_
 _atom_site_label
 _atom_site_fract_x
 _atom_site_fract_y
 _atom_site_fract_z
 _atom_site_charge
 Co 0.0 0.0 0.71477   1.055801
 Co 0.5 0.0 0.78523   1.055801
 Co 0.0 0.0 0.28523   1.055801
 Co 0.5 0.0 0.21477   1.055801
 H 0.7544 0.8767 0.6265   0.084843
 H 0.7479 0.872 0.5394   0.130134
 H 0.2544 0.1233 0.8735   0.084843
 H 0.2479 0.128 0.9606   0.130134
 H 0.7456 0.8767 0.8735   0.084843
 H 0.7521 0.872 0.9606   0.130134
 H 0.2456 0.1233 0.6265   0.084843
 H 0.2521 0.128 0.5394   0.130134
 H 0.2456 0.1233 0.3735   0.084843
 H 0.2521 0.128 0.4606   0.130137
 H 0.7456 0.8767 0.1265   0.084843
 H 0.7521 0.872 0.0394   0.130137
 H 0.2544 0.1233 0.1265   0.084843
 H 0.2479 0.128 0.0394   0.130137
 H 0.7544 0.8767 0.3735   0.084843
 H 0.7479 0.872 0.4606   0.130137
 C 0.7563 0.4916 0.79401   0.224398
 C 0.7605 0.3372 0.7941   0.069823
 C 0.8572 0.9281 0.6087   0.203235
 C 0.8519 0.925 0.5561   -0.199374
 C 0.2563 0.5084 0.70599   0.224398
 C 0.2605 0.6628 0.7059   0.069823
 C 0.3572 0.0719 0.8913   0.203235
 C 0.3519 0.075 0.9439   -0.199374
 C 0.7437 0.4916 0.70599   0.224398
 C 0.7395 0.3372 0.7059   0.069823
 C 0.6428 0.9281 0.8913   0.203236
 C 0.6481 0.925 0.9439   -0.199374
 C 0.2437 0.5084 0.79401   0.224398
 C 0.2395 0.6628 0.7941   0.069823
 C 0.1428 0.0719 0.6087   0.203236
 C 0.1481 0.075 0.5561   -0.199374
 C 0.2437 0.5084 0.20599   0.224398
 C 0.2395 0.6628 0.2059   0.069823
 C 0.1428 0.0719 0.3913   0.203236
 C 0.1481 0.075 0.4439   -0.199376
 C 0.7437 0.4916 0.29401   0.224398
 C 0.7395 0.3372 0.2941   0.069823
 C 0.6428 0.9281 0.1087   0.203236
 C 0.6481 0.925 0.0561   -0.199376
 C 0.2563 0.5084 0.29401   0.224398
 C 0.2605 0.6628 0.2941   0.069823
 C 0.3572 0.0719 0.1087   0.203236
 C 0.3519 0.075 0.0561   -0.199376
 C 0.7563 0.4916 0.20599   0.224398
 C 0.7605 0.3372 0.2059   0.069823
 C 0.8572 0.9281 0.3913   0.203236
 C 0.8519 0.925 0.4439   -0.199376
 C 0.0 0.0 0.5287   0.093659
 C 0.5 0.0 0.9713   0.093659
 C 0.0 0.0 0.4713   0.093664
 C 0.5 0.0 0.0287   0.093664
 C 0.75 0.7417 0.75   0.730125
 C 0.75 0.5731 0.75   -0.334848
 C 0.75 0.256 0.75   0.196287
 C 0.25 0.2583 0.75   0.730125
 C 0.25 0.4269 0.75   -0.334848
 C 0.25 0.744 0.75   0.196287
 C 0.25 0.2583 0.25   0.730125
 C 0.25 0.4269 0.25   -0.334848
 C 0.25 0.744 0.25   0.196287
 C 0.75 0.7417 0.25   0.730125
 C 0.75 0.5731 0.25   -0.334848
 C 0.75 0.256 0.25   0.196287
 N 0.0 0.0 0.635   -0.386362
 N 0.5 0.0 0.865   -0.386362
 N 0.0 0.0 0.365   -0.386362
 N 0.5 0.0 0.135   -0.386362
 O 0.8362 0.8042 0.71308   -0.615872
 O 0.3362 0.1958 0.78692   -0.615872
 O 0.6638 0.8042 0.78692   -0.615872
 O 0.1638 0.1958 0.71308   -0.615872
 O 0.1638 0.1958 0.28692   -0.615872
 O 0.6638 0.8042 0.21308   -0.615872
 O 0.3362 0.1958 0.21308   -0.615872
 O 0.8362 0.8042 0.28692   -0.615872
 O 0.75 0.1051 0.75   -0.638471
 O 0.25 0.8949 0.75   -0.638471
 O 0.25 0.8949 0.25   -0.638471
 O 0.75 0.1051 0.25   -0.638471
 F 0.766 0.5588 0.84013   -0.134643
 F 0.7728 0.2654 0.83923   -0.120641
 F 0.266 0.4412 0.65987   -0.134643
 F 0.2728 0.7346 0.66077   -0.120641
 F 0.734 0.5588 0.65987   -0.134643
 F 0.7272 0.2654 0.66077   -0.120641
 F 0.234 0.4412 0.84013   -0.134643
 F 0.2272 0.7346 0.83923   -0.120641
 F 0.234 0.4412 0.15987   -0.134643
 F 0.2272 0.7346 0.16077   -0.120641
 F 0.734 0.5588 0.34013   -0.134643
 F 0.7272 0.2654 0.33923   -0.120641
 F 0.266 0.4412 0.34013   -0.134643
 F 0.2728 0.7346 0.33923   -0.120641
 F 0.766 0.5588 0.15987   -0.134643
 F 0.7728 0.2654 0.16077   -0.120641
