{'_ref': 'TBD', '_srcid': 'CAKYAQ_clean', 'submitters': [{'name': 'Dalar Nazarian Jeff Camp and David Sholl', 'email': 'dalar@gatech.edu jcamp6@gatech.edu'}], '_method': 'VASP DFT with PBE;DDEC'}
data_BaGe2H7C8O15
_symmetry_space_group_name_H-M   'P 1'
_cell_length_a   8.50330000
_cell_length_b   8.50330000
_cell_length_c   30.93930000
_cell_angle_alpha   90.00000000
_cell_angle_beta   90.00000000
_cell_angle_gamma   90.00000000
_symmetry_Int_Tables_number   1
_chemical_formula_structural   BaGe2H7C8O15
_chemical_formula_sum   'Ba4 Ge8 H28 C32 O60'
_cell_volume   2237.10045666
_cell_formula_units_Z   4
loop_
 _symmetry_equiv_pos_site_id
 _symmetry_equiv_pos_as_xyz
  1  'x, y, z'
loop_
 _atom_site_label
 _atom_site_fract_x
 _atom_site_fract_y
 _atom_site_fract_z
 _atom_site_charge
 Ba 0.49761 0.49614 0.57778   1.711752
 Ba 0.50239 0.50386 0.07778   1.711752
 Ba 0.50386 0.49761 0.32778   1.711749
 Ba 0.49614 0.50239 0.82778   1.711749
 Ge 0.00136 0.99681 0.4984   1.780261
 Ge 0.99973 0.000390000000003 0.65007   1.779909
 Ge 0.99864 0.00319 0.9984   1.780261
 Ge 0.00027 0.99961 0.15007   1.779909
 Ge 0.00319 0.00136 0.2484   1.78026
 Ge 0.99961 0.99973 0.40007   1.779908
 Ge 0.99681 0.99864 0.7484   1.78026
 Ge 0.000390000000003 0.00027 0.90007   1.779908
 H 0.0685 0.3571 0.6071   0.095356
 H 0.936 0.3556 0.5413   0.091438
 H 0.9259 0.6448 0.6077   0.098559
 H 0.0603 0.6369 0.5424   0.093432
 H 0.1912 0.0993 0.7013   0.47994
 H 0.8162 0.904 0.6996   0.48252
 H 0.6362 0.5246 0.678   0.393368
 H 0.9315 0.6429 0.1071   0.095356
 H 0.064 0.6444 0.0413   0.091438
 H 0.0741 0.3552 0.1077   0.098559
 H 0.9397 0.3631 0.0424   0.093432
 H 0.8088 0.9007 0.2013   0.47994
 H 0.1838 0.096 0.1996   0.48252
 H 0.3638 0.4754 0.178   0.393368
 H 0.6429 0.0685 0.3571   0.095356
 H 0.6444 0.936 0.2913   0.091437
 H 0.3552 0.9259 0.3577   0.098559
 H 0.3631 0.0603 0.2924   0.093432
 H 0.9007 0.1912 0.4513   0.479939
 H 0.096 0.8162 0.4496   0.48252
 H 0.4754 0.6362 0.428   0.393368
 H 0.3571 0.9315 0.8571   0.095356
 H 0.3556 0.064 0.7913   0.091437
 H 0.6448 0.0741 0.8577   0.098559
 H 0.6369 0.9397 0.7924   0.093432
 H 0.0993 0.8088 0.9513   0.479939
 H 0.904 0.1838 0.9496   0.48252
 H 0.5246 0.3638 0.928   0.393368
 C 0.8526 0.2571 0.62015   0.705785
 C 0.0147 0.2597 0.59882   0.041701
 C 0.9921 0.2593 0.54941   0.03421
 C 0.1516 0.2595 0.52682   0.688492
 C 0.1436 0.7383 0.62109   0.696005
 C 0.9834 0.7396 0.59899   0.038306
 C 0.0071 0.7352 0.55001   0.036366
 C 0.8475 0.7383 0.52809   0.693146
 C 0.1474 0.7429 0.12015   0.705785
 C 0.9853 0.7403 0.09882   0.041701
 C 0.0079 0.7407 0.04941   0.03421
 C 0.8484 0.7405 0.02682   0.688492
 C 0.8564 0.2617 0.12109   0.696005
 C 0.0166 0.2604 0.09899   0.038306
 C 0.9929 0.2648 0.05001   0.036366
 C 0.1525 0.2617 0.02809   0.693146
 C 0.7429 0.8526 0.37015   0.705785
 C 0.7403 0.0147 0.34882   0.041701
 C 0.7407 0.9921 0.29941   0.03421
 C 0.7405 0.1516 0.27682   0.688492
 C 0.2617 0.1436 0.37109   0.696005
 C 0.2604 0.9834 0.34899   0.038306
 C 0.2648 0.0071 0.30001   0.036366
 C 0.2617 0.8475 0.27809   0.693146
 C 0.2571 0.1474 0.87015   0.705785
 C 0.2597 0.9853 0.84882   0.041701
 C 0.2593 0.0079 0.79941   0.03421
 C 0.2595 0.8484 0.77682   0.688492
 C 0.7383 0.8564 0.87109   0.696005
 C 0.7396 0.0166 0.84899   0.038306
 C 0.7352 0.9929 0.80001   0.036366
 C 0.7383 0.1525 0.77809   0.693146
 O 0.8314 0.1461 0.64765   -0.57661
 O 0.7561 0.3573 0.61119   -0.657306
 O 0.1058 0.1314 0.61261   -0.612933
 O 0.9024 0.13 0.53599   -0.616804
 O 0.1735 0.1412 0.50085   -0.571754
 O 0.2469 0.3634 0.53226   -0.666636
 O 0.1686 0.8537 0.64764   -0.57956
 O 0.2381 0.6337 0.61462   -0.63588
 O 0.896 0.8722 0.61191   -0.615764
 O 0.1005 0.8631 0.53563   -0.624204
 O 0.8289 0.854 0.5003   -0.582257
 O 0.7467 0.6399 0.53511   -0.664829
 O 0.0937 0.0966 0.69978   -0.893469
 O 0.9032 0.9008 0.69919   -0.890791
 O 0.5488 0.5528 0.66586   -0.751749
 O 0.1686 0.8539 0.14765   -0.57661
 O 0.2439 0.6427 0.11119   -0.657306
 O 0.8942 0.8686 0.11261   -0.612933
 O 0.0976 0.87 0.03599   -0.616804
 O 0.8265 0.8588 0.00085   -0.571754
 O 0.7531 0.6366 0.03226   -0.666636
 O 0.8314 0.1463 0.14764   -0.57956
 O 0.7619 0.3663 0.11462   -0.63588
 O 0.104 0.1278 0.11191   -0.615764
 O 0.8995 0.1369 0.03563   -0.624204
 O 0.1711 0.146 0.000300000000003   -0.582257
 O 0.2533 0.3601 0.03511   -0.664829
 O 0.9063 0.9034 0.19978   -0.893469
 O 0.0968 0.0992 0.19919   -0.890791
 O 0.4512 0.4472 0.16586   -0.751749
 O 0.8539 0.8314 0.39765   -0.576609
 O 0.6427 0.7561 0.36119   -0.657305
 O 0.8686 0.1058 0.36261   -0.612932
 O 0.87 0.9024 0.28599   -0.616804
 O 0.8588 0.1735 0.25085   -0.571753
 O 0.6366 0.2469 0.28226   -0.666636
 O 0.1463 0.1686 0.39764   -0.579559
 O 0.3663 0.2381 0.36462   -0.63588
 O 0.1278 0.896 0.36191   -0.615764
 O 0.1369 0.1005 0.28563   -0.624203
 O 0.146 0.8289 0.2503   -0.582256
 O 0.3601 0.7467 0.28511   -0.664829
 O 0.9034 0.0937 0.44978   -0.893469
 O 0.0992 0.9032 0.44919   -0.89079
 O 0.4472 0.5488 0.41586   -0.751749
 O 0.1461 0.1686 0.89765   -0.576609
 O 0.3573 0.2439 0.86119   -0.657305
 O 0.1314 0.8942 0.86261   -0.612932
 O 0.13 0.0976 0.78599   -0.616804
 O 0.1412 0.8265 0.75085   -0.571753
 O 0.3634 0.7531 0.78226   -0.666636
 O 0.8537 0.8314 0.89764   -0.579559
 O 0.6337 0.7619 0.86462   -0.63588
 O 0.8722 0.104 0.86191   -0.615764
 O 0.8631 0.8995 0.78563   -0.624203
 O 0.854 0.1711 0.7503   -0.582256
 O 0.6399 0.2533 0.78511   -0.664829
 O 0.0966 0.9063 0.94978   -0.893469
 O 0.9008 0.0968 0.94919   -0.89079
 O 0.5528 0.4512 0.91586   -0.751749
