{'_ref': 'TBD', '_srcid': 'CAKYAQ_clean', 'submitters': [{'name': 'Dalar Nazarian Jeff Camp and David Sholl', 'email': 'dalar@gatech.edu jcamp6@gatech.edu'}], '_method': 'VASP DFT with PBE;DDEC'}
data_ZnH6C7O4
_symmetry_space_group_name_H-M   'P 1'
_cell_length_a   10.12090000
_cell_length_b   13.97530000
_cell_length_c   18.00910000
_cell_angle_alpha   90.00000000
_cell_angle_beta   90.00000000
_cell_angle_gamma   90.00000000
_symmetry_Int_Tables_number   1
_chemical_formula_structural   ZnH6C7O4
_chemical_formula_sum   'Zn8 H48 C56 O32'
_cell_volume   2547.25417565
_cell_formula_units_Z   8
loop_
 _symmetry_equiv_pos_site_id
 _symmetry_equiv_pos_as_xyz
  1  'x, y, z'
loop_
 _atom_site_label
 _atom_site_fract_x
 _atom_site_fract_y
 _atom_site_fract_z
 _atom_site_charge
 Zn 0.5552 0.47648 0.58743   1.160931
 Zn 0.7602 0.6359 0.65909   1.002696
 Zn 0.9448 0.52352 0.08743   1.160931
 Zn 0.7398 0.3641 0.15909   1.002696
 Zn 0.4448 0.97648 0.91257   1.16093
 Zn 0.2398 0.1359 0.84091   1.002696
 Zn 0.0552 0.02352 0.41257   1.16093
 Zn 0.2602 0.8641 0.34091   1.002696
 H 0.3907 0.7742 0.7603   0.097674
 H 0.4657 0.8424 0.7025   0.101223
 H 0.2341 0.6461 0.7126   0.101729
 H 0.2118 0.6349 0.6248   0.103874
 H 0.333 0.7426 0.5344   0.102695
 H 0.4318 0.8232 0.565   0.101052
 H 0.0634 0.8716 0.7334   0.110734
 H 0.1429 0.7921 0.7795   0.099296
 H 0.1819 0.9787 0.6448   0.111056
 H 0.3385 0.9697 0.6332   0.096995
 H 0.0852 0.7601 0.5539   0.100571
 H 0.0289 0.8525 0.5962   0.103732
 H 0.1093 0.2258 0.2603   0.097674
 H 0.0343 0.1576 0.2025   0.101223
 H 0.2659 0.3539 0.2126   0.101729
 H 0.2882 0.3651 0.1248   0.103874
 H 0.167 0.2574 0.0344   0.102695
 H 0.0682 0.1768 0.065   0.101052
 H 0.4366 0.1284 0.2334   0.110734
 H 0.3571 0.2079 0.2795   0.099296
 H 0.3181 0.0213 0.1448   0.111056
 H 0.1615 0.0303 0.1332   0.096995
 H 0.4148 0.2399 0.0539   0.100571
 H 0.4711 0.1475 0.0962   0.103732
 H 0.6093 0.2742 0.7397   0.097673
 H 0.5343 0.3424 0.7975   0.101224
 H 0.7659 0.1461 0.7874   0.101729
 H 0.7882 0.1349 0.8752   0.103874
 H 0.667 0.2426 0.9656   0.102695
 H 0.5682 0.3232 0.935   0.101052
 H 0.9366 0.3716 0.7666   0.110734
 H 0.8571 0.2921 0.7205   0.099296
 H 0.8181 0.4787 0.8552   0.111056
 H 0.6615 0.4697 0.8668   0.096995
 H 0.9148 0.2601 0.9461   0.100571
 H 0.9711 0.3525 0.9038   0.103732
 H 0.8907 0.7258 0.2397   0.097673
 H 0.9657 0.6576 0.2975   0.101224
 H 0.7341 0.8539 0.2874   0.101729
 H 0.7118 0.8651 0.3752   0.103874
 H 0.833 0.7574 0.4656   0.102695
 H 0.9318 0.6768 0.435   0.101052
 H 0.5634 0.6284 0.2666   0.110734
 H 0.6429 0.7079 0.2205   0.099296
 H 0.6819 0.5213 0.3552   0.111056
 H 0.8385 0.5303 0.3668   0.096995
 H 0.5852 0.7399 0.4461   0.100571
 H 0.5289 0.6475 0.4038   0.103732
 C 0.4723 0.6656 0.6444   0.708532
 C 0.2938 0.9505 0.7784   0.714132
 C 0.9814 0.7005 0.6773   0.615026
 C 0.2145 0.9114 0.5038   0.708556
 C 0.3578 0.735 0.6506   0.004302
 C 0.268 0.8796 0.7163   0.007442
 C 0.1133 0.7529 0.6688   0.035346
 C 0.2337 0.8603 0.5783   0.009959
 C 0.3821 0.8078 0.7122   -0.212317
 C 0.2279 0.6816 0.6651   -0.221358
 C 0.348 0.7889 0.5751   -0.210121
 C 0.1377 0.8256 0.7311   -0.202468
 C 0.2566 0.933 0.6425   -0.207716
 C 0.1031 0.8064 0.5943   -0.212118
 C 0.0277 0.3344 0.1444   0.708532
 C 0.2062 0.0495 0.2784   0.714132
 C 0.5186 0.2995 0.1773   0.615026
 C 0.2855 0.0886 0.0038   0.708556
 C 0.1422 0.265 0.1506   0.004302
 C 0.232 0.1204 0.2163   0.007442
 C 0.3867 0.2471 0.1688   0.035346
 C 0.2663 0.1397 0.0783   0.009959
 C 0.1179 0.1922 0.2122   -0.212317
 C 0.2721 0.3184 0.1651   -0.221358
 C 0.152 0.2111 0.0751   -0.210121
 C 0.3623 0.1744 0.2311   -0.202468
 C 0.2434 0.067 0.1425   -0.207716
 C 0.3969 0.1936 0.0943   -0.212118
 C 0.5277 0.1656 0.8556   0.708532
 C 0.7062 0.4505 0.7216   0.714132
 C 0.0186 0.2005 0.8227   0.615026
 C 0.7855 0.4114 0.9962   0.708556
 C 0.6422 0.235 0.8494   0.004302
 C 0.732 0.3796 0.7837   0.007442
 C 0.8867 0.2529 0.8312   0.035346
 C 0.7663 0.3603 0.9217   0.009959
 C 0.6179 0.3078 0.7878   -0.212317
 C 0.7721 0.1816 0.8349   -0.221358
 C 0.652 0.2889 0.9249   -0.210122
 C 0.8623 0.3256 0.7689   -0.202468
 C 0.7434 0.433 0.8575   -0.207716
 C 0.8969 0.3064 0.9057   -0.212118
 C 0.9723 0.8344 0.3556   0.708532
 C 0.7938 0.5495 0.2216   0.714132
 C 0.4814 0.7995 0.3227   0.615026
 C 0.7145 0.5886 0.4962   0.708556
 C 0.8578 0.765 0.3494   0.004302
 C 0.768 0.6204 0.2837   0.007442
 C 0.6133 0.7471 0.3312   0.035346
 C 0.7337 0.6397 0.4217   0.009959
 C 0.8821 0.6922 0.2878   -0.212317
 C 0.7279 0.8184 0.3349   -0.221358
 C 0.848 0.7111 0.4249   -0.210122
 C 0.6377 0.6744 0.2689   -0.202468
 C 0.7566 0.567 0.3575   -0.207716
 C 0.6031 0.6936 0.4057   -0.212118
 O 0.4491 0.5818 0.6251   -0.65765
 O 0.586 0.6998 0.6582   -0.592577
 O 0.3369 0.9151 0.8388   -0.684926
 O 0.2708 0.0359 0.7676   -0.562443
 O 0.8772 0.7483 0.6867   -0.602008
 O 0.977 0.6117 0.6692   -0.585236
 O 0.1338 0.9793 0.5035   -0.650287
 O 0.2746 0.8811 0.4493   -0.596327
 O 0.0509 0.4182 0.1251   -0.65765
 O 0.914 0.3002 0.1582   -0.592577
 O 0.1631 0.0849 0.3388   -0.684926
 O 0.2292 0.9641 0.2676   -0.562443
 O 0.6228 0.2517 0.1867   -0.602008
 O 0.523 0.3883 0.1692   -0.585236
 O 0.3662 0.0207 0.0035   -0.650287
 O 0.2254 0.1189 0.9493   -0.596327
 O 0.5509 0.0818 0.8749   -0.65765
 O 0.414 0.1998 0.8418   -0.592577
 O 0.6631 0.4151 0.6612   -0.684926
 O 0.7292 0.5359 0.7324   -0.562443
 O 0.1228 0.2483 0.8133   -0.602008
 O 0.023 0.1117 0.8308   -0.585236
 O 0.8662 0.4793 0.9965   -0.650287
 O 0.7254 0.3811 0.0507   -0.596327
 O 0.9491 0.9182 0.3749   -0.65765
 O 0.086 0.8002 0.3418   -0.592577
 O 0.8369 0.5849 0.1612   -0.684926
 O 0.7708 0.4641 0.2324   -0.562443
 O 0.3772 0.7517 0.3133   -0.602008
 O 0.477 0.8883 0.3308   -0.585236
 O 0.6338 0.5207 0.4965   -0.650287
 O 0.7746 0.6189 0.5507   -0.596327
