{'_ref': 'TBD', '_srcid': 'CAKYAQ_clean', 'submitters': [{'name': 'Dalar Nazarian Jeff Camp and David Sholl', 'email': 'dalar@gatech.edu jcamp6@gatech.edu'}], '_method': 'VASP DFT with PBE;DDEC'}
data_Zn2H7C11NO7
_symmetry_space_group_name_H-M   'P 1'
_cell_length_a   10.32460044
_cell_length_b   14.33200000
_cell_length_c   19.29300000
_cell_angle_alpha   90.00000000
_cell_angle_beta   90.11400228
_cell_angle_gamma   90.00000000
_symmetry_Int_Tables_number   1
_chemical_formula_structural   Zn2H7C11NO7
_chemical_formula_sum   'Zn8 H28 C44 N4 O28'
_cell_volume   2854.82149164
_cell_formula_units_Z   4
loop_
 _symmetry_equiv_pos_site_id
 _symmetry_equiv_pos_as_xyz
  1  'x, y, z'
loop_
 _atom_site_label
 _atom_site_fract_x
 _atom_site_fract_y
 _atom_site_fract_z
 _atom_site_charge
 Zn 0.15512 0.4189 0.7463   1.009741
 Zn 0.46982 0.48828 0.74726   1.020456
 Zn 0.65538 0.28288 0.75374   1.012874
 Zn 0.97022 0.21299 0.75259   1.013364
 Zn 0.84488 0.9189 0.2537   1.009741
 Zn 0.53018 0.98828 0.25274   1.020456
 Zn 0.34462 0.78288 0.24626   1.012874
 Zn 0.02978 0.71299 0.24741   1.013364
 H 0.2377 0.2084 0.8229   0.155881
 H 0.3118 0.1071 0.7298   0.103886
 H 0.2278 0.1672 0.6771   0.092287
 H 0.7389 0.4823 0.6801   0.142728
 H 0.805 0.6011 0.7483   0.099495
 H 0.7434 0.554 0.8144   0.085977
 H 0.4596 0.6117 0.5482   0.124183
 H 0.4288 0.6591 0.4347   0.104147
 H 0.052 0.6071 0.4469   0.099989
 H 0.0793 0.5262 0.5518   0.118836
 H 0.5773 0.1614 0.9432   0.106579
 H 0.9524 0.1027 0.9521   0.102095
 H 0.9287 0.0303 0.0624   0.118808
 H 0.547 0.1061 0.0567   0.122495
 H 0.7623 0.7084 0.1771   0.155881
 H 0.6882 0.6071 0.2702   0.103886
 H 0.7722 0.6672 0.3229   0.092288
 H 0.2611 0.9823 0.3199   0.142728
 H 0.195 0.1011 0.2517   0.099495
 H 0.2566 0.054 0.1856   0.085978
 H 0.5404 0.1117 0.4518   0.124183
 H 0.5712 0.1591 0.5653   0.104148
 H 0.948 0.1071 0.5531   0.09999
 H 0.9207 0.0262 0.4482   0.118836
 H 0.4227 0.6614 0.0568   0.106579
 H 0.0476 0.6027 0.0479   0.102095
 H 0.0713 0.5303 0.9376   0.118809
 H 0.453 0.6061 0.9433   0.122496
 C 0.3662 0.2813 0.7562   0.668261
 C 0.2403 0.2283 0.7743   -0.035528
 C 0.2369 0.1475 0.7249   0.074051
 C 0.8679 0.4167 0.7441   0.696229
 C 0.7407 0.4696 0.73   -0.057234
 C 0.7357 0.561 0.7646   0.084111
 C 0.2869 0.5246 0.6328   0.706846
 C 0.2669 0.5609 0.5624   -0.132715
 C 0.3796 0.6053 0.5265   -0.082859
 C 0.3592 0.6362 0.4601   -0.059826
 C 0.2338 0.634 0.429   -0.132554
 C 0.1348 0.601 0.4654   -0.03478
 C 0.1485 0.5568 0.531   -0.057706
 C 0.7817 0.1691 0.6417   0.723194
 C 0.28 0.5235 0.8596   0.729957
 C 0.6473 0.1376 0.968   -0.055245
 C 0.7701 0.1364 0.9372   -0.124659
 C 0.8709 0.1006 0.9724   -0.044506
 C 0.859 0.059 0.0405   -0.075961
 C 0.7876 0.1721 0.866   0.693958
 C 0.6279 0.1035 0.0356   -0.078947
 C 0.2611 0.5643 0.9289   -0.131624
 C 0.6338 0.7813 0.2438   0.668261
 C 0.7597 0.7283 0.2257   -0.035528
 C 0.7631 0.6475 0.2751   0.074051
 C 0.1321 0.9167 0.2559   0.696229
 C 0.2593 0.9696 0.27   -0.057233
 C 0.2643 0.061 0.2354   0.08411
 C 0.7131 0.0246 0.3672   0.706846
 C 0.7331 0.0609 0.4376   -0.132715
 C 0.6204 0.1053 0.4735   -0.082859
 C 0.6408 0.1362 0.5399   -0.059827
 C 0.7662 0.134 0.571   -0.132555
 C 0.8652 0.101 0.5346   -0.034781
 C 0.8515 0.0568 0.469   -0.057707
 C 0.2183 0.6691 0.3583   0.723193
 C 0.72 0.0235 0.1404   0.729958
 C 0.3527 0.6376 0.032   -0.055245
 C 0.2299 0.6364 0.0628   -0.12466
 C 0.1291 0.6006 0.0276   -0.044506
 C 0.141 0.559 0.9595   -0.075963
 C 0.2124 0.6721 0.134   0.693958
 C 0.3721 0.6035 0.9644   -0.078952
 C 0.7389 0.0643 0.0711   -0.13163
 N 0.1306 0.2817 0.7552   -0.504382
 N 0.6279 0.4131 0.7443   -0.526157
 N 0.8694 0.7817 0.2448   -0.504382
 N 0.3721 0.9131 0.2557   -0.526157
 O 0.3534 0.3704 0.7479   -0.623106
 O 0.4661 0.2383 0.7621   -0.501146
 O 0.8533 0.3332 0.7523   -0.603081
 O 0.9691 0.4604 0.7392   -0.548302
 O 0.3981 0.5328 0.6609   -0.59923
 O 0.1896 0.4861 0.6586   -0.592961
 O 0.6844 0.2098 0.6697   -0.629923
 O 0.8913 0.1636 0.6664   -0.584461
 O 0.3912 0.533 0.8344   -0.611321
 O 0.1859 0.4908 0.8312   -0.591352
 O 0.6877 0.2142 0.8415   -0.598082
 O 0.8992 0.1663 0.8397   -0.578434
 O 0.1066 0.1006 0.7547   -0.416239
 O 0.6102 0.5994 0.7461   -0.398103
 O 0.6466 0.8704 0.2521   -0.623106
 O 0.5339 0.7383 0.2379   -0.501146
 O 0.1467 0.8332 0.2477   -0.603081
 O 0.0309 0.9604 0.2608   -0.548302
 O 0.6019 0.0328 0.3391   -0.59923
 O 0.8104 0.9861 0.3414   -0.592961
 O 0.3156 0.7098 0.3303   -0.629923
 O 0.1087 0.6636 0.3336   -0.584461
 O 0.6088 0.033 0.1656   -0.611321
 O 0.8141 0.9908 0.1688   -0.591352
 O 0.3123 0.7142 0.1585   -0.598082
 O 0.1008 0.6663 0.1603   -0.578434
 O 0.8934 0.6006 0.2453   -0.416239
 O 0.3898 0.0994 0.2539   -0.398103
