{'_ref': 'TBD', '_srcid': 'CAKYAQ_clean', 'submitters': [{'name': 'Dalar Nazarian Jeff Camp and David Sholl', 'email': 'dalar@gatech.edu jcamp6@gatech.edu'}], '_method': 'VASP DFT with PBE;DDEC'}
data_Zn3H54C64(N5O2)4
_symmetry_space_group_name_H-M   'P 1'
_cell_length_a   9.80999975
_cell_length_b   18.57099992
_cell_length_c   20.23090000
_cell_angle_alpha   80.76480125
_cell_angle_beta   75.96870168
_cell_angle_gamma   74.68520132
_symmetry_Int_Tables_number   1
_chemical_formula_structural   Zn3H54C64(N5O2)4
_chemical_formula_sum   'Zn6 H108 C128 N40 O16'
_cell_volume   3430.38016914
_cell_formula_units_Z   2
loop_
 _symmetry_equiv_pos_site_id
 _symmetry_equiv_pos_as_xyz
  1  'x, y, z'
loop_
 _atom_site_label
 _atom_site_fract_x
 _atom_site_fract_y
 _atom_site_fract_z
 _atom_site_charge
 Zn 0.66214 0.59989 0.82101   0.797342
 Zn 0.08304 0.90011 0.67899   0.79717
 Zn 0.33786 0.40011 0.17899   0.797342
 Zn 0.91696 0.09989 0.32101   0.797171
 Zn 0.00889 0.75 0.25   0.853681
 Zn 0.99111 0.25 0.75   0.853681
 H 0.1666 0.237 0.8882   0.268537
 H 0.9006 0.5491 0.1993   0.100364
 H 0.8927 0.4216 0.2074   0.073164
 H 0.7414 0.4728 0.236   0.050232
 H 0.7871 0.3637 0.3131   0.046853
 H 0.9298 0.3823 0.3201   0.072374
 H 0.7476 0.419 0.4142   0.066586
 H 0.649 0.4697 0.3657   0.052591
 H 0.909 0.4963 0.3831   0.073868
 H 0.7541 0.5468 0.407   0.068519
 H 0.7311 0.5832 0.2946   0.097515
 H 0.4264 0.5584 0.9366   0.049468
 H 0.2832 0.4755 0.9675   0.141616
 H 0.4871 0.3811 0.7951   0.127769
 H 0.6296 0.4643 0.7709   0.08459
 H 0.0185 0.1834 0.9766   0.139072
 H 0.8428 0.1469 0.0635   0.075658
 H 0.7825 0.3246 0.1536   0.054705
 H 0.9577 0.3672 0.0712   0.1358
 H 0.1348 0.6517 0.1403   0.092932
 H 0.3043 0.6393 0.0407   0.133075
 H 0.438 0.8118 0.0784   0.139791
 H 0.2581 0.8221 0.1757   0.083205
 H 0.7621 0.8519 0.9067   0.131294
 H 0.9191 0.9101 0.8289   0.087468
 H 0.9953 0.7575 0.7039   0.059073
 H 0.836 0.6963 0.7791   0.111786
 H 0.2918 0.263 0.6118   0.267877
 H 0.649 0.9509 0.3007   0.099969
 H 0.5217 0.0784 0.2926   0.074126
 H 0.4502 0.0272 0.264   0.052275
 H 0.4639 0.1363 0.1869   0.046528
 H 0.6322 0.1177 0.1799   0.072643
 H 0.5808 0.081 0.0858   0.068379
 H 0.4844 0.0303 0.1343   0.054299
 H 0.7884 0.0037 0.1169   0.073935
 H 0.7079 0.9532 0.093   0.06805
 H 0.6089 0.9168 0.2054   0.097153
 H 0.9214 0.9416 0.5634   0.048371
 H 0.7262 0.0245 0.5325   0.141536
 H 0.6633 0.1189 0.7049   0.12798
 H 0.8648 0.0357 0.7291   0.08413
 H 0.1785 0.3166 0.5234   0.138897
 H 0.0532 0.3531 0.4365   0.075536
 H 0.2607 0.1754 0.3464   0.055417
 H 0.3961 0.1328 0.4288   0.135129
 H 0.9268 0.8483 0.3597   0.092582
 H 0.9843 0.8607 0.4593   0.131866
 H 0.3282 0.6882 0.4216   0.138896
 H 0.2559 0.6779 0.3243   0.083363
 H 0.5207 0.6481 0.5933   0.131095
 H 0.6581 0.5899 0.6711   0.088428
 H 0.4567 0.7425 0.7961   0.059463
 H 0.3114 0.8037 0.7209   0.111044
 H 0.8334 0.763 0.1118   0.268537
 H 0.0994 0.4509 0.8007   0.100364
 H 0.1073 0.5784 0.7926   0.073164
 H 0.2586 0.5272 0.764   0.050232
 H 0.2129 0.6363 0.6869   0.046853
 H 0.0702 0.6177 0.6799   0.072374
 H 0.2524 0.581 0.5858   0.066584
 H 0.351 0.5303 0.6343   0.052589
 H 0.091 0.5037 0.6169   0.073867
 H 0.2459 0.4532 0.593   0.068518
 H 0.2689 0.4168 0.7054   0.097516
 H 0.5736 0.4416 0.0634   0.049467
 H 0.7168 0.5245 0.0325   0.141617
 H 0.5129 0.6189 0.2049   0.127771
 H 0.3704 0.5357 0.2291   0.084591
 H 0.9815 0.8166 0.0234   0.139071
 H 0.1572 0.8531 0.9365   0.075657
 H 0.2175 0.6754 0.8464   0.054705
 H 0.0423 0.6328 0.9288   0.135801
 H 0.8652 0.3483 0.8597   0.092932
 H 0.6957 0.3607 0.9593   0.133075
 H 0.562 0.1882 0.9216   0.13979
 H 0.7419 0.1779 0.8243   0.083207
 H 0.2379 0.1481 0.0933   0.131293
 H 0.0809 0.0899 0.1711   0.087468
 H 0.0047 0.2425 0.2961   0.059073
 H 0.164 0.3037 0.2209   0.111786
 H 0.7082 0.737 0.3882   0.267877
 H 0.351 0.0491 0.6993   0.099969
 H 0.4783 0.9216 0.7074   0.074126
 H 0.5498 0.9728 0.736   0.052275
 H 0.5361 0.8637 0.8131   0.046528
 H 0.3678 0.8823 0.8201   0.072643
 H 0.4192 0.919 0.9142   0.068377
 H 0.5156 0.9697 0.8657   0.054297
 H 0.2116 0.9963 0.8831   0.073934
 H 0.2921 0.0468 0.907   0.068049
 H 0.3911 0.0832 0.7946   0.097154
 H 0.0786 0.0584 0.4366   0.048371
 H 0.2738 0.9755 0.4675   0.141537
 H 0.3367 0.8811 0.2951   0.127983
 H 0.1352 0.9643 0.2709   0.08413
 H 0.8215 0.6834 0.4766   0.138896
 H 0.9468 0.6469 0.5635   0.075536
 H 0.7393 0.8246 0.6536   0.055417
 H 0.6039 0.8672 0.5712   0.13513
 H 0.0732 0.1517 0.6403   0.092581
 H 0.0157 0.1393 0.5407   0.131866
 H 0.6718 0.3118 0.5784   0.138895
 H 0.7441 0.3221 0.6757   0.083365
 H 0.4793 0.3519 0.4067   0.131093
 H 0.3419 0.4101 0.3289   0.088427
 H 0.5433 0.2575 0.2039   0.059462
 H 0.6886 0.1963 0.2791   0.111044
 C 0.0693 0.4869 0.2411   0.696899
 C 0.91 0.5166 0.242   -0.167532
 C 0.8385 0.4526 0.2438   -0.109249
 C 0.8324 0.4042 0.3132   -0.118329
 C 0.7482 0.4505 0.3709   -0.110906
 C 0.8146 0.5156 0.3718   -0.117654
 C 0.8301 0.5639 0.3019   -0.169688
 C 0.8824 0.6315 0.3023   0.695609
 C 0.4383 0.522 0.9078   0.174508
 C 0.3516 0.4724 0.9266   -0.166595
 C 0.3656 0.4174 0.8846   0.070945
 C 0.4728 0.4166 0.8252   -0.17825
 C 0.557 0.4672 0.8104   0.148819
 C 0.2755 0.3641 0.9041   0.336003
 C 0.1213 0.3069 0.9601   0.285471
 C 0.0081 0.2802 0.0142   0.034704
 C 0.9727 0.213 0.0122   -0.198666
 C 0.8666 0.1918 0.065   0.181775
 C 0.8315 0.2955 0.1179   0.17064
 C 0.9362 0.3222 0.0682   -0.182409
 C 0.1954 0.6848 0.1274   0.161531
 C 0.2973 0.6769 0.0675   -0.193265
 C 0.3894 0.725 0.0468   0.058061
 C 0.3761 0.7794 0.0894   -0.174194
 C 0.2686 0.7844 0.1484   0.160477
 C 0.5002 0.7185 0.9829   0.3267
 C 0.6661 0.7348 0.8992   0.323899
 C 0.7761 0.7681 0.8515   0.050985
 C 0.8068 0.8321 0.8653   -0.162955
 C 0.9022 0.8667 0.8185   0.155605
 C 0.9468 0.7773 0.7449   0.17228
 C 0.8505 0.7401 0.7901   -0.160007
 C 0.7973 0.0131 0.2589   0.69349
 C 0.6686 0.9834 0.258   -0.166322
 C 0.5349 0.0474 0.2562   -0.113204
 C 0.5498 0.0958 0.1868   -0.115782
 C 0.5696 0.0495 0.1291   -0.117527
 C 0.702 0.9844 0.1282   -0.11595
 C 0.6959 0.9361 0.1981   -0.169226
 C 0.8162 0.8685 0.1977   0.695435
 C 0.8681 0.978 0.5922   0.178289
 C 0.7506 0.0276 0.5734   -0.168043
 C 0.6676 0.0826 0.6154   0.071112
 C 0.7146 0.0834 0.6748   -0.179669
 C 0.8346 0.0328 0.6896   0.149611
 C 0.5437 0.1359 0.5959   0.33842
 C 0.3883 0.1931 0.5399   0.284481
 C 0.3025 0.2198 0.4858   0.036963
 C 0.1979 0.287 0.4878   -0.200485
 C 0.1234 0.3082 0.435   0.183718
 C 0.2449 0.2045 0.3821   0.169282
 C 0.3266 0.1778 0.4318   -0.181814
 C 0.0076 0.8152 0.3726   0.160246
 C 0.0417 0.8231 0.4325   -0.188236
 C 0.1612 0.775 0.4532   0.054435
 C 0.2449 0.7206 0.4106   -0.172035
 C 0.2014 0.7156 0.3516   0.159308
 C 0.2016 0.7815 0.5171   0.328825
 C 0.3001 0.7652 0.6008   0.324976
 C 0.3957 0.7319 0.6485   0.050369
 C 0.5042 0.6679 0.6347   -0.161752
 C 0.5874 0.6333 0.6815   0.153451
 C 0.469 0.7227 0.7551   0.17095
 C 0.3807 0.7599 0.7099   -0.158765
 C 0.9307 0.5131 0.7589   0.696899
 C 0.09 0.4834 0.758   -0.167532
 C 0.1615 0.5474 0.7562   -0.109249
 C 0.1676 0.5958 0.6868   -0.118329
 C 0.2518 0.5495 0.6291   -0.110905
 C 0.1854 0.4844 0.6282   -0.117653
 C 0.1699 0.4361 0.6981   -0.169688
 C 0.1176 0.3685 0.6977   0.695609
 C 0.5617 0.478 0.0922   0.174509
 C 0.6484 0.5276 0.0734   -0.166596
 C 0.6344 0.5826 0.1154   0.070945
 C 0.5272 0.5834 0.1748   -0.178251
 C 0.443 0.5328 0.1896   0.148819
 C 0.7245 0.6359 0.0959   0.336003
 C 0.8787 0.6931 0.0399   0.285471
 C 0.9919 0.7198 0.9858   0.034704
 C 0.0273 0.787 0.9878   -0.198666
 C 0.1334 0.8082 0.935   0.181774
 C 0.1685 0.7045 0.8821   0.17064
 C 0.0638 0.6778 0.9318   -0.182409
 C 0.8046 0.3152 0.8726   0.161531
 C 0.7027 0.3231 0.9325   -0.193265
 C 0.6106 0.275 0.9532   0.058061
 C 0.6239 0.2206 0.9106   -0.174193
 C 0.7314 0.2156 0.8516   0.160477
 C 0.4998 0.2815 0.0171   0.3267
 C 0.3339 0.2652 0.1008   0.323899
 C 0.2239 0.2319 0.1485   0.050985
 C 0.1932 0.1679 0.1347   -0.162955
 C 0.0978 0.1333 0.1815   0.155605
 C 0.0532 0.2227 0.2551   0.17228
 C 0.1495 0.2599 0.2099   -0.160007
 C 0.2027 0.9869 0.7411   0.69349
 C 0.3314 0.0166 0.742   -0.166322
 C 0.4651 0.9526 0.7438   -0.113204
 C 0.4502 0.9042 0.8132   -0.115782
 C 0.4304 0.9505 0.8709   -0.117527
 C 0.298 0.0156 0.8718   -0.115949
 C 0.3041 0.0639 0.8019   -0.169226
 C 0.1838 0.1315 0.8023   0.695435
 C 0.1319 0.022 0.4078   0.178289
 C 0.2494 0.9724 0.4266   -0.168043
 C 0.3324 0.9174 0.3846   0.071113
 C 0.2854 0.9166 0.3252   -0.17967
 C 0.1654 0.9672 0.3104   0.149611
 C 0.4563 0.8641 0.4041   0.33842
 C 0.6117 0.8069 0.4601   0.284481
 C 0.6975 0.7802 0.5142   0.036963
 C 0.8021 0.713 0.5122   -0.200485
 C 0.8766 0.6918 0.565   0.183718
 C 0.7551 0.7955 0.6179   0.169282
 C 0.6734 0.8222 0.5682   -0.181814
 C 0.9924 0.1848 0.6274   0.160246
 C 0.9583 0.1769 0.5675   -0.188235
 C 0.8388 0.225 0.5468   0.054435
 C 0.7551 0.2794 0.5894   -0.172035
 C 0.7986 0.2844 0.6484   0.159307
 C 0.7984 0.2185 0.4829   0.328825
 C 0.6999 0.2348 0.3992   0.324976
 C 0.6043 0.2681 0.3515   0.050369
 C 0.4958 0.3321 0.3653   -0.161751
 C 0.4126 0.3667 0.3185   0.153451
 C 0.531 0.2773 0.2449   0.17095
 C 0.6193 0.2401 0.2901   -0.158766
 N 0.5388 0.5208 0.8506   -0.333369
 N 0.1722 0.3651 0.9629   -0.478533
 N 0.1883 0.2737 0.9039   -0.017768
 N 0.2882 0.3098 0.8666   -0.348353
 N 0.7964 0.231 0.1178   -0.388233
 N 0.1792 0.7381 0.1685   -0.350424
 N 0.5901 0.7644 0.9578   -0.492688
 N 0.5147 0.6627 0.9447   -0.309022
 N 0.6237 0.6744 0.8894   -0.255087
 N 0.973 0.8401 0.7579   -0.358742
 N 0.9102 0.9792 0.6494   -0.335388
 N 0.5002 0.1349 0.5371   -0.478035
 N 0.3659 0.2263 0.5961   -0.016964
 N 0.4646 0.1902 0.6334   -0.349901
 N 0.1452 0.269 0.3822   -0.389151
 N 0.0858 0.7619 0.3315   -0.3495
 N 0.3123 0.7356 0.5422   -0.494202
 N 0.1221 0.8373 0.5553   -0.309269
 N 0.1875 0.8256 0.6106   -0.255068
 N 0.571 0.6599 0.7421   -0.357923
 N 0.4612 0.4792 0.1494   -0.333369
 N 0.8278 0.6349 0.0371   -0.478533
 N 0.8117 0.7263 0.0961   -0.017768
 N 0.7118 0.6902 0.1334   -0.348353
 N 0.2036 0.769 0.8822   -0.388233
 N 0.8208 0.2619 0.8315   -0.350423
 N 0.4099 0.2356 0.0422   -0.492688
 N 0.4853 0.3373 0.0553   -0.309022
 N 0.3763 0.3256 0.1106   -0.255087
 N 0.027 0.1599 0.2421   -0.358743
 N 0.0898 0.0208 0.3506   -0.335388
 N 0.4998 0.8651 0.4629   -0.478035
 N 0.6341 0.7737 0.4039   -0.016964
 N 0.5354 0.8098 0.3666   -0.349901
 N 0.8548 0.731 0.6178   -0.389152
 N 0.9142 0.2381 0.6685   -0.349499
 N 0.6877 0.2644 0.4578   -0.494202
 N 0.8779 0.1627 0.4447   -0.309269
 N 0.8125 0.1744 0.3894   -0.255068
 N 0.429 0.3401 0.2579   -0.357923
 O 0.1364 0.4478 0.1906   -0.651185
 O 0.1312 0.4973 0.2825   -0.596009
 O 0.95083 0.65884 0.2449   -0.622464
 O 0.8593 0.6623 0.3557   -0.635616
 O 0.7748 0.0522 0.3094   -0.650236
 O 0.911 0.0027 0.2175   -0.594042
 O 0.85457 0.84116 0.2551   -0.622177
 O 0.8773 0.8377 0.1443   -0.635477
 O 0.8636 0.5522 0.8094   -0.651185
 O 0.8688 0.5027 0.7175   -0.596009
 O 0.04917 0.34116 0.7551   -0.622464
 O 0.1407 0.3377 0.6443   -0.635616
 O 0.2252 0.9478 0.6906   -0.650236
 O 0.089 0.9973 0.7825   -0.594042
 O 0.14543 0.15884 0.7449   -0.622177
 O 0.1227 0.1623 0.8557   -0.635477
