{'_ref': 'TBD', '_srcid': 'CAKYAQ_clean', 'submitters': [{'name': 'Dalar Nazarian Jeff Camp and David Sholl', 'email': 'dalar@gatech.edu jcamp6@gatech.edu'}], '_method': 'VASP DFT with PBE;DDEC'}
data_Gd2Co2H15C35(NO4)5
_symmetry_space_group_name_H-M   'P 1'
_cell_length_a   12.22750000
_cell_length_b   14.43250000
_cell_length_c   28.84300000
_cell_angle_alpha   90.00000000
_cell_angle_beta   90.00000000
_cell_angle_gamma   90.00000000
_symmetry_Int_Tables_number   1
_chemical_formula_structural   Gd2Co2H15C35(NO4)5
_chemical_formula_sum   'Gd8 Co8 H60 C140 N20 O80'
_cell_volume   5090.02209593
_cell_formula_units_Z   4
loop_
 _symmetry_equiv_pos_site_id
 _symmetry_equiv_pos_as_xyz
  1  'x, y, z'
loop_
 _atom_site_label
 _atom_site_fract_x
 _atom_site_fract_y
 _atom_site_fract_z
 _atom_site_charge
 Gd 0.12612 0.60966 0.84294   2.191091
 Gd 0.33997 0.9267 0.9067   2.050089
 Gd 0.62612 0.39034 0.15706   2.191089
 Gd 0.83997 0.0733 0.0933   2.050093
 Gd 0.12612 0.89034 0.34294   2.191115
 Gd 0.33997 0.5733 0.4067   2.050111
 Gd 0.62612 0.10966 0.65706   2.191113
 Gd 0.83997 0.4267 0.5933   2.050115
 Co 0.32519 0.61966 0.03679   0.741984
 Co 0.74012 0.82957 0.7971   0.945967
 Co 0.82519 0.38034 0.96321   0.741981
 Co 0.24012 0.17043 0.2029   0.945967
 Co 0.32519 0.88034 0.53679   0.741984
 Co 0.74012 0.67043 0.2971   0.945971
 Co 0.82519 0.11966 0.46321   0.741981
 Co 0.24012 0.32957 0.7029   0.945971
 H 0.1496 0.2392 0.8958   0.125744
 H 0.124 0.1225 0.8388   0.137558
 H 0.1527 0.1558 0.7622   0.105736
 H 0.8968 0.3202 0.7669   0.126786
 H 0.851 0.193 0.814   0.15351
 H 0.8412 0.216 0.8912   0.063633
 H 0.7289 0.7781 0.964   0.128311
 H 0.7313 0.6267 0.9831   0.143844
 H 0.579 0.5598 0.0173   0.106293
 H 0.4815 0.5636 0.8961   0.127853
 H 0.6634 0.5234 0.8763   0.138316
 H 0.7654 0.6318 0.8348   0.079843
 H 0.9845 0.0196 0.9428   0.123226
 H 0.7966 0.0522 0.9328   0.15042
 H 0.6993 0.9778 0.8802   0.106205
 H 0.6496 0.7608 0.1042   0.125745
 H 0.624 0.8775 0.1612   0.137558
 H 0.6527 0.8442 0.2378   0.105737
 H 0.3968 0.6798 0.2331   0.126786
 H 0.351 0.807 0.186   0.15351
 H 0.3412 0.784 0.1088   0.063633
 H 0.2289 0.2219 0.036   0.128312
 H 0.2313 0.3733 0.0169   0.143842
 H 0.079 0.4402 0.9827   0.106302
 H 0.9815 0.4364 0.1039   0.127853
 H 0.1634 0.4766 0.1237   0.138317
 H 0.2654 0.3682 0.1652   0.079843
 H 0.4845 0.9804 0.0572   0.123225
 H 0.2966 0.9478 0.0672   0.150421
 H 0.1993 0.0222 0.1198   0.106205
 H 0.1496 0.2608 0.3958   0.125744
 H 0.124 0.3775 0.3388   0.137558
 H 0.1527 0.3442 0.2622   0.105729
 H 0.8968 0.1798 0.2669   0.126785
 H 0.851 0.307 0.314   0.15351
 H 0.8412 0.284 0.3912   0.063633
 H 0.7289 0.7219 0.464   0.128311
 H 0.7313 0.8733 0.4831   0.143844
 H 0.579 0.9402 0.5173   0.106293
 H 0.4815 0.9364 0.3961   0.127853
 H 0.6634 0.9766 0.3763   0.138316
 H 0.7654 0.8682 0.3348   0.079835
 H 0.9845 0.4804 0.4428   0.123226
 H 0.7966 0.4478 0.4328   0.15042
 H 0.6993 0.5222 0.3802   0.106206
 H 0.6496 0.7392 0.6042   0.125745
 H 0.624 0.6225 0.6612   0.137558
 H 0.6527 0.6558 0.7378   0.105729
 H 0.3968 0.8202 0.7331   0.126785
 H 0.351 0.693 0.686   0.15351
 H 0.3412 0.716 0.6088   0.063633
 H 0.2289 0.2781 0.536   0.128312
 H 0.2313 0.1267 0.5169   0.143842
 H 0.079 0.0598 0.4827   0.106302
 H 0.9815 0.0636 0.6039   0.127853
 H 0.1634 0.0234 0.6237   0.138316
 H 0.2654 0.1318 0.6652   0.079835
 H 0.4845 0.5196 0.5572   0.123225
 H 0.2966 0.5522 0.5672   0.150421
 H 0.1993 0.4778 0.6198   0.106206
 C 0.2138 0.3518 0.8036   0.089502
 C 0.1974 0.3377 0.8517   -0.115277
 C 0.1628 0.2522 0.8647   -0.020454
 C 0.1467 0.1815 0.83   -0.162934
 C 0.1647 0.2014 0.7844   0.166991
 C 0.2539 0.4406 0.7839   0.666658
 C 0.2165 0.4107 0.8866   0.722218
 C 0.8899 0.418 0.8677   0.091002
 C 0.9066 0.4149 0.8192   -0.158483
 C 0.8897 0.3275 0.7988   0.00486
 C 0.8621 0.2515 0.8266   -0.179679
 C 0.8526 0.267 0.8721   0.169213
 C 0.9105 0.5086 0.8952   0.644879
 C 0.9322 0.4942 0.7864   0.744851
 C 0.4786 0.7584 0.9955   0.063576
 C 0.569 0.8011 0.9775   -0.137742
 C 0.6654 0.7499 0.9748   0.006713
 C 0.668 0.6614 0.9873   -0.151012
 C 0.5755 0.6207 0.0069   0.159209
 C 0.3672 0.803 0.0011   0.647806
 C 0.5683 0.9008 0.9626   0.702325
 C 0.5523 0.7493 0.846   0.079578
 C 0.4843 0.6895 0.8683   -0.158619
 C 0.5252 0.6055 0.8801   0.003948
 C 0.6341 0.5806 0.8682   -0.170351
 C 0.6945 0.6465 0.8439   0.196172
 C 0.5161 0.8436 0.8301   0.621114
 C 0.3689 0.71 0.8798   0.796364
 C 0.9228 0.8769 0.86   0.093698
 C 0.9894 0.9225 0.8893   -0.100524
 C 0.9429 0.9898 0.9203   0.01298
 C 0.8304 0.0077 0.9144   -0.167007
 C 0.7729 0.9627 0.8834   0.174921
 C 0.9576 0.7921 0.8322   0.688709
 C 0.1124 0.9096 0.892   0.651223
 C 0.7138 0.6482 0.1964   0.089497
 C 0.6974 0.6623 0.1483   -0.115256
 C 0.6628 0.7478 0.1353   -0.020461
 C 0.6467 0.8185 0.17   -0.162933
 C 0.6647 0.7986 0.2156   0.166991
 C 0.7539 0.5594 0.2161   0.666659
 C 0.7165 0.5893 0.1134   0.722078
 C 0.3899 0.582 0.1323   0.091004
 C 0.4066 0.5851 0.1808   -0.158483
 C 0.3897 0.6725 0.2012   0.00486
 C 0.3621 0.7485 0.1734   -0.17968
 C 0.3526 0.733 0.1279   0.169217
 C 0.4105 0.4914 0.1048   0.644877
 C 0.4322 0.5058 0.2136   0.744851
 C 0.9786 0.2416 0.0045   0.063575
 C 0.069 0.1989 0.0225   -0.137742
 C 0.1654 0.2501 0.0252   0.00671
 C 0.168 0.3386 0.0127   -0.151002
 C 0.0755 0.3793 0.9931   0.159082
 C 0.8672 0.197 0.9989   0.647806
 C 0.0683 0.0992 0.0374   0.702335
 C 0.0523 0.2507 0.154   0.079578
 C 0.9843 0.3105 0.1317   -0.158619
 C 0.0252 0.3945 0.1199   0.003949
 C 0.1341 0.4194 0.1318   -0.170351
 C 0.1945 0.3535 0.1561   0.196172
 C 0.0161 0.1564 0.1699   0.621114
 C 0.8689 0.29 0.1202   0.796363
 C 0.4228 0.1231 0.14   0.093698
 C 0.4894 0.0775 0.1107   -0.100525
 C 0.4429 0.0102 0.0797   0.01298
 C 0.3304 0.9923 0.0856   -0.167006
 C 0.2729 0.0373 0.1166   0.174921
 C 0.4576 0.2079 0.1678   0.688708
 C 0.6124 0.0904 0.108   0.651233
 C 0.2138 0.1482 0.3036   0.089502
 C 0.1974 0.1623 0.3517   -0.115277
 C 0.1628 0.2478 0.3647   -0.020455
 C 0.1467 0.3185 0.33   -0.162934
 C 0.1647 0.2986 0.2844   0.166986
 C 0.2539 0.0594 0.2839   0.666664
 C 0.2165 0.0893 0.3866   0.722219
 C 0.8899 0.082 0.3677   0.091002
 C 0.9066 0.0851 0.3192   -0.158484
 C 0.8897 0.1725 0.2988   0.004868
 C 0.8621 0.2485 0.3266   -0.17968
 C 0.8526 0.233 0.3721   0.169214
 C 0.9105 0.9914 0.3952   0.644879
 C 0.9322 0.0058 0.2864   0.744854
 C 0.4786 0.7416 0.4955   0.063576
 C 0.569 0.6989 0.4775   -0.137742
 C 0.6654 0.7501 0.4748   0.006713
 C 0.668 0.8386 0.4873   -0.151012
 C 0.5755 0.8793 0.5069   0.159209
 C 0.3672 0.697 0.5011   0.647807
 C 0.5683 0.5992 0.4626   0.702326
 C 0.5523 0.7507 0.346   0.079573
 C 0.4843 0.8105 0.3683   -0.158618
 C 0.5252 0.8945 0.3801   0.003948
 C 0.6341 0.9194 0.3682   -0.170348
 C 0.6945 0.8535 0.3439   0.196174
 C 0.5161 0.6564 0.3301   0.621116
 C 0.3689 0.79 0.3798   0.796365
 C 0.9228 0.6231 0.36   0.093696
 C 0.9894 0.5775 0.3893   -0.100523
 C 0.9429 0.5102 0.4203   0.01298
 C 0.8304 0.4923 0.4144   -0.167007
 C 0.7729 0.5373 0.3834   0.174921
 C 0.9576 0.7079 0.3322   0.688725
 C 0.1124 0.5904 0.392   0.651224
 C 0.7138 0.8518 0.6964   0.089496
 C 0.6974 0.8377 0.6483   -0.115256
 C 0.6628 0.7522 0.6353   -0.020461
 C 0.6467 0.6815 0.67   -0.162933
 C 0.6647 0.7014 0.7156   0.166986
 C 0.7539 0.9406 0.7161   0.666664
 C 0.7165 0.9107 0.6134   0.722078
 C 0.3899 0.918 0.6323   0.091004
 C 0.4066 0.9149 0.6808   -0.158484
 C 0.3897 0.8275 0.7012   0.004869
 C 0.3621 0.7515 0.6734   -0.17968
 C 0.3526 0.767 0.6279   0.169217
 C 0.4105 0.0086 0.6048   0.644877
 C 0.4322 0.9942 0.7136   0.744854
 C 0.9786 0.2584 0.5045   0.063575
 C 0.069 0.3011 0.5225   -0.137742
 C 0.1654 0.2499 0.5252   0.00671
 C 0.168 0.1614 0.5127   -0.151002
 C 0.0755 0.1207 0.4931   0.159082
 C 0.8672 0.303 0.4989   0.647806
 C 0.0683 0.4008 0.5374   0.702335
 C 0.0523 0.2493 0.654   0.079573
 C 0.9843 0.1895 0.6317   -0.158619
 C 0.0252 0.1055 0.6199   0.003948
 C 0.1341 0.0806 0.6318   -0.170349
 C 0.1945 0.1465 0.6561   0.196174
 C 0.0161 0.3436 0.6699   0.621116
 C 0.8689 0.21 0.6202   0.796365
 C 0.4228 0.3769 0.64   0.093696
 C 0.4894 0.4225 0.6107   -0.100524
 C 0.4429 0.4898 0.5797   0.01298
 C 0.3304 0.5077 0.5856   -0.167006
 C 0.2729 0.4627 0.6166   0.174921
 C 0.4576 0.2921 0.6678   0.688725
 C 0.6124 0.4096 0.608   0.651234
 N 0.1989 0.2844 0.771   -0.320904
 N 0.8582 0.3488 0.8918   -0.343843
 N 0.4798 0.6688 0.011   -0.369161
 N 0.6555 0.7274 0.8336   -0.346114
 N 0.8144 0.8954 0.8556   -0.351789
 N 0.6989 0.7156 0.229   -0.320904
 N 0.3582 0.6512 0.1082   -0.343866
 N 0.9798 0.3312 0.989   -0.369168
 N 0.1555 0.2726 0.1664   -0.346114
 N 0.3144 0.1046 0.1444   -0.351789
 N 0.1989 0.2156 0.271   -0.320904
 N 0.8582 0.1512 0.3918   -0.343844
 N 0.4798 0.8312 0.511   -0.369161
 N 0.6555 0.7726 0.3336   -0.346115
 N 0.8144 0.6046 0.3556   -0.351789
 N 0.6989 0.7844 0.729   -0.320903
 N 0.3582 0.8488 0.6082   -0.343866
 N 0.9798 0.1688 0.489   -0.369168
 N 0.1555 0.2274 0.6664   -0.346115
 N 0.3144 0.3954 0.6444   -0.351789
 O 0.2597 0.5111 0.8087   -0.686815
 O 0.2863 0.4405 0.7418   -0.511414
 O 0.1491 0.4777 0.8895   -0.805753
 O 0.2936 0.4025 0.9136   -0.548932
 O 0.9487 0.5807 0.8762   -0.68345
 O 0.8809 0.5037 0.9372   -0.557077
 O 0.0277 0.5287 0.789   -0.796815
 O 0.8613 0.5191 0.7598   -0.512138
 O 0.2915 0.7551 0.0188   -0.512548
 O 0.3547 0.8855 0.9867   -0.679477
 O 0.5246 0.922 0.9258   -0.758491
 O 0.6214 0.9576 0.9875   -0.562245
 O 0.4209 0.8704 0.8369   -0.686979
 O 0.5868 0.8901 0.8067   -0.528866
 O 0.3015 0.6628 0.8576   -0.625944
 O 0.344 0.7657 0.9108   -0.643966
 O 0.8899 0.7635 0.8008   -0.571987
 O 0.0468 0.7591 0.8414   -0.705601
 O 0.1521 0.8806 0.9296   -0.626299
 O 0.1716 0.9388 0.8599   -0.685937
 O 0.7597 0.4889 0.1913   -0.686814
 O 0.7863 0.5595 0.2582   -0.511414
 O 0.6491 0.5223 0.1105   -0.805739
 O 0.7936 0.5975 0.0864   -0.54892
 O 0.4487 0.4193 0.1238   -0.68345
 O 0.3809 0.4963 0.0628   -0.557077
 O 0.5277 0.4713 0.211   -0.796815
 O 0.3613 0.4809 0.2402   -0.512138
 O 0.7915 0.2449 0.9812   -0.512548
 O 0.8547 0.1145 0.0133   -0.679484
 O 0.0246 0.078 0.0742   -0.758493
 O 0.1214 0.0424 0.0125   -0.562349
 O 0.9209 0.1296 0.1631   -0.68698
 O 0.0868 0.1099 0.1933   -0.528866
 O 0.8015 0.3372 0.1424   -0.625944
 O 0.844 0.2343 0.0892   -0.643964
 O 0.3899 0.2365 0.1992   -0.571987
 O 0.5468 0.2409 0.1586   -0.705601
 O 0.6521 0.1194 0.0704   -0.626398
 O 0.6716 0.0612 0.1401   -0.685939
 O 0.2597 0.9889 0.3087   -0.686816
 O 0.2863 0.0595 0.2418   -0.51142
 O 0.1491 0.0223 0.3895   -0.805754
 O 0.2936 0.0975 0.4136   -0.548932
 O 0.9487 0.9193 0.3762   -0.683451
 O 0.8809 0.9963 0.4372   -0.557077
 O 0.0277 0.9713 0.289   -0.796866
 O 0.8613 0.9809 0.2598   -0.512182
 O 0.2915 0.7449 0.5188   -0.512548
 O 0.3547 0.6145 0.4867   -0.679478
 O 0.5246 0.578 0.4258   -0.758492
 O 0.6214 0.5424 0.4875   -0.562245
 O 0.4209 0.6296 0.3369   -0.687022
 O 0.5868 0.6099 0.3067   -0.528924
 O 0.3015 0.8372 0.3576   -0.625945
 O 0.344 0.7343 0.4108   -0.643966
 O 0.8899 0.7365 0.3008   -0.571989
 O 0.0468 0.7409 0.3414   -0.705604
 O 0.1521 0.6194 0.4296   -0.6263
 O 0.1716 0.5612 0.3599   -0.68594
 O 0.7597 0.0111 0.6913   -0.686814
 O 0.7863 0.9405 0.7582   -0.511421
 O 0.6491 0.9777 0.6105   -0.80574
 O 0.7936 0.9025 0.5864   -0.54892
 O 0.4487 0.0807 0.6238   -0.683451
 O 0.3809 0.0037 0.5628   -0.557077
 O 0.5277 0.0287 0.711   -0.796866
 O 0.3613 0.0191 0.7402   -0.512182
 O 0.7915 0.2551 0.4812   -0.512548
 O 0.8547 0.3855 0.5133   -0.679485
 O 0.0246 0.422 0.5742   -0.758494
 O 0.1214 0.4576 0.5125   -0.562349
 O 0.9209 0.3704 0.6631   -0.687023
 O 0.0868 0.3901 0.6933   -0.528924
 O 0.8015 0.1628 0.6424   -0.625945
 O 0.844 0.2657 0.5892   -0.643965
 O 0.3899 0.2635 0.6992   -0.571989
 O 0.5468 0.2591 0.6586   -0.705603
 O 0.6521 0.3806 0.5704   -0.626398
 O 0.6716 0.4388 0.6401   -0.685942
