{'_ref': 'TBD', '_srcid': 'CAKYAQ_clean', 'submitters': [{'name': 'Dalar Nazarian Jeff Camp and David Sholl', 'email': 'dalar@gatech.edu jcamp6@gatech.edu'}], '_method': 'VASP DFT with PBE;DDEC'}
data_SmHC5(NO2)2
_symmetry_space_group_name_H-M   'P 1'
_cell_length_a   16.26629947
_cell_length_b   16.53969998
_cell_length_c   16.53970000
_cell_angle_alpha   76.00699950
_cell_angle_beta   60.54530087
_cell_angle_gamma   60.54530042
_symmetry_Int_Tables_number   1
_chemical_formula_structural   SmHC5(NO2)2
_chemical_formula_sum   'Sm16 H16 C80 N32 O64'
_cell_volume   3373.84988028
_cell_formula_units_Z   16
loop_
 _symmetry_equiv_pos_site_id
 _symmetry_equiv_pos_as_xyz
  1  'x, y, z'
loop_
 _atom_site_label
 _atom_site_fract_x
 _atom_site_fract_y
 _atom_site_fract_z
 _atom_site_charge
 Sm 0.23817 0.87848 0.46942   2.248405
 Sm 0.51265 0.52266 0.114   2.261892
 Sm 0.08607 0.62152 0.03058   2.248399
 Sm 0.64931 0.97734 0.386   2.261881
 Sm 0.70759 0.53058 0.37848   2.248406
 Sm 0.62665 0.886 0.02266   2.261893
 Sm 0.11665 0.96942 0.12152   2.248402
 Sm 0.03531 0.614 0.47734   2.261886
 Sm 0.76183 0.12152 0.53058   2.248388
 Sm 0.48735 0.47734 0.886   2.26189
 Sm 0.91393 0.37848 0.96942   2.248382
 Sm 0.35069 0.02266 0.614   2.26188
 Sm 0.29241 0.46942 0.62152   2.24839
 Sm 0.37335 0.114 0.97734   2.261892
 Sm 0.88335 0.03058 0.87848   2.248386
 Sm 0.96469 0.386 0.52266   2.261885
 H 0.3067 0.7515 0.2525   0.039956
 H 0.3654 0.8992 0.2176   0.040768
 H 0.8107 0.7485 0.2475   0.039954
 H 0.9822 0.6008 0.2824   0.040766
 H 0.5592 0.7475 0.2515   0.039955
 H 0.583 0.7824 0.3992   0.040766
 H 0.0582 0.7525 0.2485   0.039955
 H 0.2646 0.7176 0.1008   0.040766
 H 0.6933 0.2485 0.7475   0.039956
 H 0.6346 0.1008 0.7824   0.040768
 H 0.1893 0.2515 0.7525   0.039954
 H 0.0178 0.3992 0.7176   0.040766
 H 0.4408 0.2525 0.7485   0.039955
 H 0.417 0.2176 0.6008   0.040766
 H 0.9418 0.2475 0.7515   0.039955
 H 0.7354 0.2824 0.8992   0.040766
 C 0.3533 0.7157 0.2785   0.385482
 C 0.4273 0.669 0.369   -0.023902
 C 0.4861 0.6042 0.2984   0.020868
 C 0.5793 0.5137 0.2755   0.777935
 C 0.4391 0.6777 0.4483   0.745141
 C 0.3992 0.9132 0.2402   0.417762
 C 0.4371 0.941 0.337   0.026522
 C 0.5049 0.9506 0.2454   0.029814
 C 0.5985 0.9682 0.2058   0.745212
 C 0.4194 0.9534 0.4316   0.744716
 C 0.8475 0.7843 0.2215   0.385478
 C 0.9653 0.831 0.131   -0.023908
 C 0.8887 0.8958 0.2016   0.020868
 C 0.8685 0.9863 0.2245   0.777935
 C 0.0651 0.8223 0.0517   0.745144
 C 0.0526 0.5868 0.2598   0.417778
 C 0.2151 0.559 0.163   0.026521
 C 0.2009 0.5494 0.2546   0.029814
 C 0.2725 0.5318 0.2942   0.745211
 C 0.3044 0.5466 0.0684   0.744715
 C 0.6318 0.7215 0.2157   0.385483
 C 0.7963 0.631 0.169   -0.0239
 C 0.7845 0.7016 0.1042   0.020867
 C 0.8548 0.7245 0.0137   0.777935
 C 0.8874 0.5517 0.1777   0.745135
 C 0.6394 0.7598 0.4132   0.417781
 C 0.7741 0.663 0.441   0.026522
 C 0.7503 0.7546 0.4506   0.029813
 C 0.8043 0.7942 0.4682   0.745212
 C 0.851 0.5684 0.4534   0.744716
 C 0.069 0.7785 0.2843   0.38548
 C 0.0963 0.869 0.331   -0.023895
 C 0.0903 0.7984 0.3958   0.020861
 C 0.093 0.7755 0.4863   0.777933
 C 0.1168 0.9483 0.3223   0.745131
 C 0.3124 0.7402 0.0868   0.417766
 C 0.3781 0.837 0.059   0.026524
 C 0.4555 0.7454 0.0494   0.029814
 C 0.5667 0.7058 0.0318   0.745213
 C 0.3728 0.9316 0.0466   0.744716
 C 0.6467 0.2843 0.7215   0.385482
 C 0.5727 0.331 0.631   -0.023903
 C 0.5139 0.3958 0.7016   0.020868
 C 0.4207 0.4863 0.7245   0.777935
 C 0.5609 0.3223 0.5517   0.745141
 C 0.6008 0.0868 0.7598   0.417762
 C 0.5629 0.059 0.663   0.026522
 C 0.4951 0.0494 0.7546   0.029814
 C 0.4015 0.0318 0.7942   0.745212
 C 0.5806 0.0466 0.5684   0.744715
 C 0.1525 0.2157 0.7785   0.385478
 C 0.0347 0.169 0.869   -0.023908
 C 0.1113 0.1042 0.7984   0.020868
 C 0.1315 0.0137 0.7755   0.777935
 C 0.9349 0.1777 0.9483   0.745143
 C 0.9474 0.4132 0.7402   0.417777
 C 0.7849 0.441 0.837   0.026522
 C 0.7991 0.4506 0.7454   0.029814
 C 0.7275 0.4682 0.7058   0.745212
 C 0.6956 0.4534 0.9316   0.744715
 C 0.3682 0.2785 0.7843   0.385483
 C 0.2037 0.369 0.831   -0.0239
 C 0.2155 0.2984 0.8958   0.020867
 C 0.1452 0.2755 0.9863   0.777935
 C 0.1126 0.4483 0.8223   0.745135
 C 0.3606 0.2402 0.5868   0.41778
 C 0.2259 0.337 0.559   0.026522
 C 0.2497 0.2454 0.5494   0.029813
 C 0.1957 0.2058 0.5318   0.745212
 C 0.149 0.4316 0.5466   0.744716
 C 0.931 0.2215 0.7157   0.385479
 C 0.9037 0.131 0.669   -0.023895
 C 0.9097 0.2016 0.6042   0.020861
 C 0.907 0.2245 0.5137   0.777933
 C 0.8832 0.0517 0.6777   0.74513
 C 0.6876 0.2598 0.9132   0.417766
 C 0.6219 0.163 0.941   0.026524
 C 0.5445 0.2546 0.9506   0.029813
 C 0.4333 0.2942 0.9682   0.745213
 C 0.6272 0.0684 0.9534   0.744716
 N 0.4388 0.6339 0.2411   -0.581261
 N 0.3426 0.7398 0.3566   -0.603492
 N 0.37 0.9164 0.3316   -0.641523
 N 0.4812 0.9323 0.1853   -0.607558
 N 0.8138 0.8661 0.2589   -0.581257
 N 0.939 0.7602 0.1434   -0.603487
 N 0.118 0.5836 0.1684   -0.641529
 N 0.0988 0.5677 0.3147   -0.607564
 N 0.6799 0.7589 0.1339   -0.581261
 N 0.6992 0.6434 0.2398   -0.603494
 N 0.7016 0.6684 0.4164   -0.64153
 N 0.6665 0.8147 0.4323   -0.607565
 N 0.0727 0.7411 0.3661   -0.581258
 N 0.0824 0.8566 0.2602   -0.603493
 N 0.2864 0.8316 0.0836   -0.641523
 N 0.4135 0.6853 0.0677   -0.607562
 N 0.5612 0.3661 0.7589   -0.581261
 N 0.6574 0.2602 0.6434   -0.603491
 N 0.63 0.0836 0.6684   -0.641522
 N 0.5188 0.0677 0.8147   -0.607558
 N 0.1862 0.1339 0.7411   -0.581257
 N 0.061 0.2398 0.8566   -0.603486
 N 0.882 0.4164 0.8316   -0.641529
 N 0.9012 0.4323 0.6853   -0.607564
 N 0.3201 0.2411 0.8661   -0.581261
 N 0.3008 0.3566 0.7602   -0.603493
 N 0.2984 0.3316 0.5836   -0.641529
 N 0.3335 0.1853 0.5677   -0.607565
 N 0.9273 0.2589 0.6339   -0.581258
 N 0.9176 0.1434 0.7398   -0.603493
 N 0.7136 0.1684 0.9164   -0.641522
 N 0.5865 0.3147 0.9323   -0.607562
 O 0.6033 0.4688 0.2096   -0.70781
 O 0.6341 0.4817 0.3209   -0.79816
 O 0.5265 0.627 0.4542   -0.774503
 O 0.3619 0.7374 0.5084   -0.695876
 O 0.6525 0.9573 0.1183   -0.688737
 O 0.6194 0.9959 0.2553   -0.755629
 O 0.4694 0.9841 0.4439   -0.83163
 O 0.3511 0.9304 0.499   -0.774377
 O 0.7817 0.0312 0.2904   -0.707807
 O 0.9367 0.0183 0.1791   -0.798163
 O 0.1077 0.873 0.0458   -0.774501
 O 0.1077 0.7626 0.9916   -0.695876
 O 0.2281 0.5427 0.3817   -0.688738
 O 0.3706 0.5041 0.2447   -0.755628
 O 0.3974 0.5159 0.0561   -0.831634
 O 0.2805 0.5696 0.000999999999998   -0.774373
 O 0.8129 0.7904 0.9688   -0.707809
 O 0.955 0.6791 0.9817   -0.798163
 O 0.9807 0.5458 0.127   -0.774502
 O 0.8703 0.4916 0.2374   -0.695875
 O 0.7708 0.8817 0.4573   -0.688739
 O 0.8747 0.7447 0.4959   -0.755626
 O 0.9133 0.5561 0.4841   -0.831634
 O 0.8501 0.501 0.4304   -0.774371
 O 0.0721 0.7096 0.5312   -0.707805
 O 0.1158 0.8209 0.5183   -0.798164
 O 0.1535 0.9542 0.373   -0.7745
 O 0.0993 0.0084 0.2626   -0.695872
 O 0.6098 0.6183 0.0427   -0.68874
 O 0.6153 0.7553 0.0041   -0.75563
 O 0.4535 0.9439 0.0159   -0.831632
 O 0.2815 0.999 0.0696   -0.774369
 O 0.3967 0.5312 0.7904   -0.70781
 O 0.3659 0.5183 0.6791   -0.79816
 O 0.4735 0.373 0.5458   -0.774503
 O 0.6381 0.2626 0.4916   -0.695876
 O 0.3475 0.0427 0.8817   -0.688737
 O 0.3806 0.0041 0.7447   -0.755629
 O 0.5306 0.0159 0.5561   -0.83163
 O 0.6489 0.0696 0.501   -0.774376
 O 0.2183 0.9688 0.7096   -0.707807
 O 0.0633 0.9817 0.8209   -0.798163
 O 0.8923 0.127 0.9542   -0.774501
 O 0.8923 0.2374 0.0084   -0.695876
 O 0.7719 0.4573 0.6183   -0.688738
 O 0.6294 0.4959 0.7553   -0.755628
 O 0.6026 0.4841 0.9439   -0.831634
 O 0.7195 0.4304 0.999   -0.774372
 O 0.1871 0.2096 0.0312   -0.707809
 O 0.045 0.3209 0.0183   -0.798162
 O 0.0193 0.4542 0.873   -0.774501
 O 0.1297 0.5084 0.7626   -0.695874
 O 0.2292 0.1183 0.5427   -0.688739
 O 0.1253 0.2553 0.5041   -0.755626
 O 0.0867 0.4439 0.5159   -0.831634
 O 0.1499 0.499 0.5696   -0.774371
 O 0.9279 0.2904 0.4688   -0.707805
 O 0.8842 0.1791 0.4817   -0.798164
 O 0.8465 0.0458 0.627   -0.774499
 O 0.9007 0.9916 0.7374   -0.695872
 O 0.3902 0.3817 0.9573   -0.68874
 O 0.3847 0.2447 0.9959   -0.75563
 O 0.5465 0.0561 0.9841   -0.831632
 O 0.7185 0.000999999999998 0.9304   -0.774369
