{'_ref': 'TBD', '_srcid': 'CAKYAQ_clean', 'submitters': [{'name': 'Dalar Nazarian Jeff Camp and David Sholl', 'email': 'dalar@gatech.edu jcamp6@gatech.edu'}], '_method': 'VASP DFT with PBE;DDEC'}
data_FeH2(CO2)2
_symmetry_space_group_name_H-M   'P 1'
_cell_length_a   9.97770000
_cell_length_b   11.46939994
_cell_length_c   14.61440000
_cell_angle_alpha   91.18500021
_cell_angle_beta   90.00000000
_cell_angle_gamma   90.00000000
_symmetry_Int_Tables_number   1
_chemical_formula_structural   FeH2(CO2)2
_chemical_formula_sum   'Fe12 H24 C24 O48'
_cell_volume   1672.0884115
_cell_formula_units_Z   12
loop_
 _symmetry_equiv_pos_site_id
 _symmetry_equiv_pos_as_xyz
  1  'x, y, z'
loop_
 _atom_site_label
 _atom_site_fract_x
 _atom_site_fract_y
 _atom_site_fract_z
 _atom_site_charge
 Fe 0.92277 0.75505 0.13292   1.036943
 Fe 0.88791 0.26 0.68831   1.052067
 Fe 0.42277 0.74495 0.36708   1.036943
 Fe 0.38791 0.24 0.81169   1.052067
 Fe 0.07723 0.24495 0.86708   1.036942
 Fe 0.11209 0.74 0.31169   1.052065
 Fe 0.57723 0.25505 0.63292   1.036942
 Fe 0.61209 0.76 0.18831   1.052065
 Fe 0.0 0.5 0.0   1.082489
 Fe 0.5 0.0 0.5   1.082489
 Fe 0.0 0.0 0.0   1.095551
 Fe 0.5 0.5 0.5   1.095551
 H 0.753 0.8551 0.3681   0.007455
 H 0.034 0.4771 0.2651   0.010644
 H 0.614 0.563 0.042   0.013457
 H 0.201 0.978 0.234   0.01132
 H 0.151 0.6979 0.9249   0.00917
 H 0.704 0.993 0.008   0.021868
 H 0.253 0.6449 0.1319   0.007455
 H 0.534 0.0229 0.2349   0.010641
 H 0.114 0.937 0.458   0.013456
 H 0.701 0.522 0.266   0.011318
 H 0.651 0.8021 0.5751   0.00917
 H 0.204 0.507 0.492   0.021866
 H 0.247 0.1449 0.6319   0.007455
 H 0.966 0.5229 0.7349   0.010641
 H 0.386 0.437 0.958   0.01345
 H 0.799 0.022 0.766   0.011318
 H 0.849 0.3021 0.0751   0.009167
 H 0.296 0.007 0.992   0.021865
 H 0.747 0.3551 0.8681   0.007455
 H 0.466 0.9771 0.7651   0.010639
 H 0.886 0.063 0.542   0.013449
 H 0.299 0.478 0.734   0.011317
 H 0.349 0.1979 0.4249   0.009167
 H 0.796 0.493 0.508   0.021864
 C 0.8295 0.82765 0.33135   0.661005
 C 0.0171 0.51805 0.21095   0.66844
 C 0.7131 0.57595 0.04675   0.644708
 C 0.1316 0.95237 0.18657   0.640231
 C 0.1021 0.74379 0.96719   0.682107
 C 0.7231 0.92947 0.05147   0.650572
 C 0.3295 0.67235 0.16865   0.661002
 C 0.5171 0.98195 0.28905   0.668438
 C 0.2131 0.92405 0.45325   0.644708
 C 0.6316 0.54763 0.31343   0.640231
 C 0.6021 0.75621 0.53281   0.682107
 C 0.2231 0.57053 0.44853   0.650572
 C 0.1705 0.17235 0.66865   0.661003
 C 0.9829 0.48195 0.78905   0.66844
 C 0.2869 0.42405 0.95325   0.644708
 C 0.8684 0.04763 0.81343   0.640231
 C 0.8979 0.25621 0.03281   0.682107
 C 0.2769 0.07053 0.94853   0.650572
 C 0.6705 0.32765 0.83135   0.661
 C 0.4829 0.01805 0.71095   0.668439
 C 0.7869 0.07595 0.54675   0.644708
 C 0.3684 0.45237 0.68657   0.640231
 C 0.3979 0.24379 0.46719   0.682107
 C 0.7769 0.42947 0.55147   0.650573
 O 0.80225 0.805 0.24755   -0.625251
 O 0.93973 0.81421 0.36855   -0.560796
 O 0.00842 0.62746 0.21862   -0.636195
 O 0.99978 0.45907 0.14077   -0.577879
 O 0.74449 0.65243 0.10728   -0.637397
 O 0.79165 0.51803 0.99864   -0.565221
 O 0.08476 0.8505 0.19637   -0.634703
 O 0.10584 0.01879 0.12381   -0.565277
 O 0.02719 0.68594 0.02206   -0.641594
 O 0.10947 0.85006 0.96316   -0.574494
 O 0.84468 0.89745 0.06141   -0.617194
 O 0.62454 0.88893 0.09176   -0.56299
 O 0.30225 0.695 0.25245   -0.625251
 O 0.43973 0.68579 0.13145   -0.560795
 O 0.50842 0.87254 0.28138   -0.636194
 O 0.49978 0.04093 0.35923   -0.577879
 O 0.24449 0.84757 0.39272   -0.637397
 O 0.29165 0.98197 0.50136   -0.565221
 O 0.58476 0.6495 0.30363   -0.634703
 O 0.60584 0.48121 0.37619   -0.565277
 O 0.52719 0.81406 0.47794   -0.641594
 O 0.60947 0.64994 0.53684   -0.574494
 O 0.34468 0.60255 0.43859   -0.617194
 O 0.12454 0.61107 0.40824   -0.56299
 O 0.19775 0.195 0.75245   -0.625251
 O 0.06027 0.18579 0.63145   -0.560795
 O 0.99158 0.37254 0.78138   -0.636195
 O 0.000219999999999 0.54093 0.85923   -0.577878
 O 0.25551 0.34757 0.89272   -0.637398
 O 0.20835 0.48197 0.00136   -0.56522
 O 0.91524 0.1495 0.80363   -0.634703
 O 0.89416 0.98121 0.87619   -0.565277
 O 0.97281 0.31406 0.97794   -0.641594
 O 0.89053 0.14994 0.03684   -0.574494
 O 0.15532 0.10255 0.93859   -0.617194
 O 0.37546 0.11107 0.90824   -0.56299
 O 0.69775 0.305 0.74755   -0.625251
 O 0.56027 0.31421 0.86855   -0.560795
 O 0.49158 0.12746 0.71862   -0.636195
 O 0.50022 0.95907 0.64077   -0.577878
 O 0.75551 0.15243 0.60728   -0.637398
 O 0.70835 0.01803 0.49864   -0.56522
 O 0.41524 0.3505 0.69637   -0.634704
 O 0.39416 0.51879 0.62381   -0.565277
 O 0.47281 0.18594 0.52206   -0.641594
 O 0.39053 0.35006 0.46316   -0.574494
 O 0.65532 0.39745 0.56141   -0.617194
 O 0.87546 0.38893 0.59176   -0.56299
