{'_ref': 'TBD', '_srcid': 'CAKYAQ_clean', 'submitters': [{'name': 'Dalar Nazarian Jeff Camp and David Sholl', 'email': 'dalar@gatech.edu jcamp6@gatech.edu'}], '_method': 'VASP DFT with PBE;DDEC'}
data_FeH2(CO2)2
_symmetry_space_group_name_H-M   'P 1'
_cell_length_a   10.00600000
_cell_length_b   11.48090020
_cell_length_c   14.64660000
_cell_angle_alpha   91.20600078
_cell_angle_beta   90.00000000
_cell_angle_gamma   90.00000000
_symmetry_Int_Tables_number   1
_chemical_formula_structural   FeH2(CO2)2
_chemical_formula_sum   'Fe12 H24 C24 O48'
_cell_volume   1682.19774978
_cell_formula_units_Z   12
loop_
 _symmetry_equiv_pos_site_id
 _symmetry_equiv_pos_as_xyz
  1  'x, y, z'
loop_
 _atom_site_label
 _atom_site_fract_x
 _atom_site_fract_y
 _atom_site_fract_z
 _atom_site_charge
 Fe 0.92311 0.75523 0.13278   1.033464
 Fe 0.88723 0.25966 0.68876   1.051158
 Fe 0.42311 0.74477 0.36722   1.033464
 Fe 0.38723 0.24034 0.81124   1.051158
 Fe 0.07689 0.24477 0.86722   1.033467
 Fe 0.11277 0.74034 0.31124   1.051161
 Fe 0.57689 0.25523 0.63278   1.033467
 Fe 0.61277 0.75966 0.18876   1.051161
 Fe 0.0 0.5 0.0   0.812953
 Fe 0.5 0.0 0.5   0.812953
 Fe 0.0 0.0 0.0   1.089666
 Fe 0.5 0.5 0.5   1.089665
 H 0.76 0.8554 0.3674   0.001887
 H 0.033 0.4792 0.2622   0.007259
 H 0.618 0.5674 0.0444   0.01107
 H 0.199 0.9779 0.2319   0.004897
 H 0.148 0.6965 0.9255   0.006429
 H 0.707 0.9909 0.0099   0.01465
 H 0.26 0.6446 0.1326   0.001887
 H 0.533 0.0208 0.2378   0.007259
 H 0.118 0.9326 0.4556   0.01107
 H 0.699 0.5221 0.2681   0.004897
 H 0.648 0.8035 0.5745   0.006429
 H 0.207 0.5091 0.4901   0.01465
 H 0.24 0.1446 0.6326   0.001887
 H 0.967 0.5208 0.7378   0.007259
 H 0.382 0.4326 0.9556   0.011068
 H 0.801 0.0221 0.7681   0.004897
 H 0.852 0.3035 0.0745   0.006428
 H 0.293 0.0091 0.9901   0.01465
 H 0.74 0.3554 0.8674   0.001887
 H 0.467 0.9792 0.7622   0.007258
 H 0.882 0.0674 0.5444   0.011068
 H 0.301 0.4779 0.7319   0.004896
 H 0.352 0.1965 0.4255   0.006428
 H 0.793 0.4909 0.5099   0.01465
 C 0.8311 0.82651 0.33101   0.676588
 C 0.0182 0.51904 0.21024   0.672132
 C 0.7145 0.57632 0.04762   0.645
 C 0.1314 0.95207 0.18537   0.655054
 C 0.1006 0.74416 0.96716   0.676734
 C 0.7241 0.92877 0.05267   0.666209
 C 0.3311 0.67349 0.16899   0.676587
 C 0.5182 0.98096 0.28976   0.672132
 C 0.2145 0.92368 0.45238   0.645
 C 0.6314 0.54793 0.31463   0.655053
 C 0.6006 0.75584 0.53284   0.676734
 C 0.2241 0.57123 0.44733   0.666209
 C 0.1689 0.17349 0.66899   0.676587
 C 0.9818 0.48096 0.78976   0.672132
 C 0.2855 0.42368 0.95238   0.645
 C 0.8686 0.04793 0.81463   0.655054
 C 0.8994 0.25584 0.03284   0.676734
 C 0.2759 0.07123 0.94733   0.666209
 C 0.6689 0.32651 0.83101   0.676586
 C 0.4818 0.01904 0.71024   0.672132
 C 0.7855 0.07632 0.54762   0.645
 C 0.3686 0.45207 0.68537   0.655054
 C 0.3994 0.24416 0.46716   0.676734
 C 0.7759 0.42877 0.55267   0.666209
 O 0.8031 0.80451 0.24769   -0.630116
 O 0.94078 0.81374 0.36781   -0.564547
 O 0.00954 0.62766 0.21817   -0.632545
 O 0.000630000000001 0.46028 0.1404   -0.531615
 O 0.74511 0.65243 0.10768   -0.635665
 O 0.7917 0.51833 0.99963   -0.517464
 O 0.08489 0.8509 0.19607   -0.63902
 O 0.10588 0.01804 0.12338   -0.565228
 O 0.02714 0.68621 0.02169   -0.59459
 O 0.10824 0.84954 0.96332   -0.574927
 O 0.84478 0.89746 0.0617   -0.620121
 O 0.62612 0.88869 0.09286   -0.568002
 O 0.3031 0.69549 0.25231   -0.630116
 O 0.44078 0.68626 0.13219   -0.564546
 O 0.50954 0.87234 0.28183   -0.632545
 O 0.50063 0.03972 0.3596   -0.531615
 O 0.24511 0.84757 0.39232   -0.635665
 O 0.2917 0.98167 0.50037   -0.517464
 O 0.58489 0.6491 0.30393   -0.63902
 O 0.60588 0.48196 0.37662   -0.565228
 O 0.52714 0.81379 0.47831   -0.59459
 O 0.60824 0.65046 0.53668   -0.574927
 O 0.34478 0.60254 0.4383   -0.620121
 O 0.12612 0.61131 0.40714   -0.568002
 O 0.1969 0.19549 0.75231   -0.630116
 O 0.05922 0.18626 0.63219   -0.564546
 O 0.99046 0.37234 0.78183   -0.632545
 O 0.99937 0.53972 0.8596   -0.531615
 O 0.25489 0.34757 0.89232   -0.635665
 O 0.2083 0.48167 0.000369999999997   -0.517465
 O 0.91511 0.1491 0.80393   -0.63902
 O 0.89412 0.98196 0.87662   -0.565228
 O 0.97286 0.31379 0.97831   -0.59459
 O 0.89176 0.15046 0.03668   -0.574927
 O 0.15522 0.10254 0.9383   -0.620121
 O 0.37388 0.11131 0.90714   -0.568002
 O 0.6969 0.30451 0.74769   -0.630116
 O 0.55922 0.31374 0.86781   -0.564546
 O 0.49046 0.12766 0.71817   -0.632545
 O 0.49937 0.96028 0.6404   -0.531615
 O 0.75489 0.15243 0.60768   -0.635665
 O 0.7083 0.01833 0.49963   -0.517465
 O 0.41511 0.3509 0.69607   -0.63902
 O 0.39412 0.51804 0.62338   -0.565228
 O 0.47286 0.18621 0.52169   -0.59459
 O 0.39176 0.34954 0.46332   -0.574927
 O 0.65522 0.39746 0.5617   -0.620121
 O 0.87388 0.38869 0.59286   -0.568002
