{'_ref': 'TBD', '_srcid': 'CAKYAQ_clean', 'submitters': [{'name': 'Dalar Nazarian Jeff Camp and David Sholl', 'email': 'dalar@gatech.edu jcamp6@gatech.edu'}], '_method': 'VASP DFT with PBE;DDEC'}
data_ZnH2(CO2)2
_symmetry_space_group_name_H-M   'P 1'
_cell_length_a   9.84290000
_cell_length_b   11.33759958
_cell_length_c   14.46930000
_cell_angle_alpha   91.31250131
_cell_angle_beta   90.00000000
_cell_angle_gamma   90.00000000
_symmetry_Int_Tables_number   1
_chemical_formula_structural   ZnH2(CO2)2
_chemical_formula_sum   'Zn12 H24 C24 O48'
_cell_volume   1614.27585266
_cell_formula_units_Z   12
loop_
 _symmetry_equiv_pos_site_id
 _symmetry_equiv_pos_as_xyz
  1  'x, y, z'
loop_
 _atom_site_label
 _atom_site_fract_x
 _atom_site_fract_y
 _atom_site_fract_z
 _atom_site_charge
 Zn 0.923 0.75662 0.13181   1.083759
 Zn 0.10977 0.74091 0.31257   1.065159
 Zn 0.423 0.74338 0.36819   1.083759
 Zn 0.60977 0.75909 0.18743   1.065159
 Zn 0.077 0.24338 0.86819   1.083759
 Zn 0.89023 0.25909 0.68743   1.065159
 Zn 0.577 0.25662 0.63181   1.083759
 Zn 0.39023 0.24091 0.81257   1.065159
 Zn 0.0 0.5 0.0   1.081766
 Zn 0.5 0.0 0.5   1.081766
 Zn 0.0 0.0 0.0   1.091064
 Zn 0.5 0.5 0.5   1.091064
 H 0.7563 0.8587 0.3678   0.000492
 H 0.0368 0.4777 0.2657   0.012369
 H 0.6181 0.566 0.0367   0.009296
 H 0.1908 0.9826 0.2326   0.003231
 H 0.1606 0.6983 0.9277   0.011874
 H 0.7046 0.9912 0.0103   0.012023
 H 0.2563 0.6413 0.1322   0.000492
 H 0.5368 0.0223 0.2343   0.012369
 H 0.1181 0.934 0.4633   0.009296
 H 0.6908 0.5174 0.2674   0.003231
 H 0.6606 0.8017 0.5723   0.011874
 H 0.2046 0.5088 0.4897   0.012023
 H 0.2437 0.1413 0.6322   0.000492
 H 0.9632 0.5223 0.7343   0.012369
 H 0.3819 0.434 0.9633   0.009297
 H 0.8092 0.0174 0.7674   0.003231
 H 0.8394 0.3017 0.0723   0.011874
 H 0.2954 0.0088 0.9897   0.012023
 H 0.7437 0.3587 0.8678   0.000492
 H 0.4632 0.9777 0.7657   0.012369
 H 0.8819 0.066 0.5367   0.009297
 H 0.3092 0.4826 0.7326   0.003231
 H 0.3394 0.1983 0.4277   0.011874
 H 0.7954 0.4912 0.5103   0.012023
 C 0.8287 0.82956 0.33026   0.682711
 C 0.0149 0.51937 0.21147   0.676947
 C 0.7125 0.57774 0.04684   0.677143
 C 0.1301 0.95465 0.18595   0.678701
 C 0.1049 0.74294 0.96914   0.691752
 C 0.7217 0.92929 0.05189   0.685295
 C 0.3287 0.67044 0.16974   0.682711
 C 0.5149 0.98063 0.28853   0.676947
 C 0.2125 0.92226 0.45316   0.677143
 C 0.6301 0.54535 0.31405   0.678701
 C 0.6049 0.75706 0.53086   0.691752
 C 0.2217 0.57071 0.44811   0.685295
 C 0.1713 0.17044 0.66974   0.682711
 C 0.9851 0.48063 0.78853   0.676947
 C 0.2875 0.42226 0.95316   0.677143
 C 0.8699 0.04535 0.81405   0.678701
 C 0.8951 0.25706 0.03086   0.691752
 C 0.2783 0.07071 0.94811   0.685295
 C 0.6713 0.32956 0.83026   0.682711
 C 0.4851 0.01937 0.71147   0.676947
 C 0.7875 0.07774 0.54684   0.677143
 C 0.3699 0.45465 0.68595   0.678701
 C 0.3951 0.24294 0.46914   0.691752
 C 0.7783 0.42929 0.55189   0.685295
 O 0.80145 0.80733 0.24576   -0.642485
 O 0.94084 0.81688 0.36874   -0.584443
 O 0.00814 0.63045 0.21931   -0.644367
 O 0.99594 0.45958 0.14001   -0.589987
 O 0.74549 0.65302 0.10986   -0.652428
 O 0.79084 0.51881 0.99769   -0.57106
 O 0.08394 0.85095 0.19507   -0.651666
 O 0.10466 0.02312 0.1232   -0.578723
 O 0.02694 0.68455 0.02305   -0.654069
 O 0.11406 0.85068 0.96609   -0.585486
 O 0.84547 0.89759 0.06099   -0.642418
 O 0.62204 0.88782 0.09148   -0.580037
 O 0.30145 0.69267 0.25424   -0.642485
 O 0.44084 0.68312 0.13126   -0.584443
 O 0.50814 0.86955 0.28069   -0.644367
 O 0.49594 0.04042 0.35999   -0.589987
 O 0.24549 0.84698 0.39014   -0.652428
 O 0.29084 0.98119 0.50231   -0.57106
 O 0.58394 0.64905 0.30493   -0.651666
 O 0.60466 0.47688 0.3768   -0.578723
 O 0.52694 0.81545 0.47695   -0.654069
 O 0.61406 0.64932 0.53391   -0.585486
 O 0.34547 0.60241 0.43901   -0.642418
 O 0.12204 0.61218 0.40852   -0.580037
 O 0.19855 0.19267 0.75424   -0.642485
 O 0.05916 0.18312 0.63126   -0.584443
 O 0.99186 0.36955 0.78069   -0.644367
 O 0.00406 0.54042 0.85999   -0.589988
 O 0.25451 0.34698 0.89014   -0.652428
 O 0.20916 0.48119 0.00231   -0.57106
 O 0.91606 0.14905 0.80493   -0.651666
 O 0.89534 0.97688 0.8768   -0.578723
 O 0.97306 0.31545 0.97695   -0.654069
 O 0.88594 0.14932 0.03391   -0.585486
 O 0.15453 0.10241 0.93901   -0.642418
 O 0.37796 0.11218 0.90852   -0.580037
 O 0.69855 0.30733 0.74576   -0.642485
 O 0.55916 0.31688 0.86874   -0.584443
 O 0.49186 0.13045 0.71931   -0.644367
 O 0.50406 0.95958 0.64001   -0.589987
 O 0.75451 0.15302 0.60986   -0.652428
 O 0.70916 0.01881 0.49769   -0.57106
 O 0.41606 0.35095 0.69507   -0.651666
 O 0.39534 0.52312 0.6232   -0.578723
 O 0.47306 0.18455 0.52305   -0.654069
 O 0.38594 0.35068 0.46609   -0.585486
 O 0.65453 0.39759 0.56099   -0.642418
 O 0.87796 0.38782 0.59148   -0.580037
