{'_ref': 'TBD', '_srcid': 'CAKYAQ_clean', 'submitters': [{'name': 'Dalar Nazarian Jeff Camp and David Sholl', 'email': 'dalar@gatech.edu jcamp6@gatech.edu'}], '_method': 'VASP DFT with PBE;DDEC'}
data_MgH5C10N3O4
_symmetry_space_group_name_H-M   'P 1'
_cell_length_a   7.76390000
_cell_length_b   10.17650000
_cell_length_c   15.94900000
_cell_angle_alpha   90.00000000
_cell_angle_beta   90.00000000
_cell_angle_gamma   90.00000000
_symmetry_Int_Tables_number   1
_chemical_formula_structural   MgH5C10N3O4
_chemical_formula_sum   'Mg4 H20 C40 N12 O16'
_cell_volume   1260.11977785
_cell_formula_units_Z   4
loop_
 _symmetry_equiv_pos_site_id
 _symmetry_equiv_pos_as_xyz
  1  'x, y, z'
loop_
 _atom_site_label
 _atom_site_fract_x
 _atom_site_fract_y
 _atom_site_fract_z
 _atom_site_charge
 Mg 0.86026 0.02982 0.78926   1.489545
 Mg 0.13974 0.97018 0.28926   1.489545
 Mg 0.36026 0.47018 0.78926   1.489545
 Mg 0.63974 0.52982 0.28926   1.489545
 H 0.9104 0.4512 0.5984   0.327666
 H 0.1496 0.254 0.3725   0.084082
 H 0.0544 0.9144 0.474   0.097375
 H 0.0463 0.3607 0.4891   0.13423
 H 0.9418 0.0111 0.5914   0.131409
 H 0.0896 0.5488 0.0984   0.327666
 H 0.8504 0.746 0.8725   0.084082
 H 0.9456 0.0856 0.974   0.097375
 H 0.9537 0.6393 0.9891   0.13423
 H 0.0582 0.9889 0.0914   0.131409
 H 0.4104 0.0488 0.5984   0.327665
 H 0.6496 0.246 0.3725   0.084082
 H 0.5544 0.5856 0.474   0.097373
 H 0.5463 0.1393 0.4891   0.13423
 H 0.4418 0.4889 0.5914   0.131409
 H 0.5896 0.9512 0.0984   0.327665
 H 0.3504 0.754 0.8725   0.084082
 H 0.4456 0.4144 0.974   0.097373
 H 0.4537 0.8607 0.9891   0.13423
 H 0.5582 0.5111 0.0914   0.131409
 C 0.8934 0.261 0.625   0.334999
 C 0.766 0.4152 0.6997   -0.002856
 C 0.7355 0.2927 0.7343   0.005525
 C 0.9775 0.1986 0.5528   0.03384
 C 0.107 0.2043 0.4168   0.226103
 C 0.0499 0.0056 0.4764   0.219514
 C 0.0438 0.2694 0.4868   -0.211098
 C 0.7142 0.553 0.7222   0.691883
 C 0.9828 0.0628 0.5476   -0.186909
 C 0.633 0.2527 0.8092   0.73888
 C 0.1066 0.739 0.125   0.334999
 C 0.234 0.5848 0.1997   -0.002856
 C 0.2645 0.7073 0.2343   0.005525
 C 0.0225 0.8014 0.0528   0.03384
 C 0.893 0.7957 0.9168   0.226103
 C 0.9501 0.9944 0.9764   0.219514
 C 0.9562 0.7306 0.9868   -0.211098
 C 0.2858 0.447 0.2222   0.691883
 C 0.0172 0.9372 0.0476   -0.186909
 C 0.367 0.7473 0.3092   0.73888
 C 0.3934 0.239 0.625   0.334998
 C 0.266 0.0848 0.6997   -0.002856
 C 0.2355 0.2073 0.7343   0.005525
 C 0.4775 0.3014 0.5528   0.03384
 C 0.607 0.2957 0.4168   0.226104
 C 0.5499 0.4944 0.4764   0.219515
 C 0.5438 0.2306 0.4868   -0.211098
 C 0.2142 0.947 0.7222   0.691883
 C 0.4828 0.4372 0.5476   -0.186909
 C 0.133 0.2473 0.8092   0.738879
 C 0.6066 0.761 0.125   0.334998
 C 0.734 0.9152 0.1997   -0.002856
 C 0.7645 0.7927 0.2343   0.005525
 C 0.5225 0.6986 0.0528   0.03384
 C 0.393 0.7043 0.9168   0.226104
 C 0.4501 0.5056 0.9764   0.219515
 C 0.4562 0.7694 0.9868   -0.211098
 C 0.7858 0.053 0.2222   0.691883
 C 0.5172 0.5628 0.0476   -0.186909
 C 0.867 0.7527 0.3092   0.738879
 N 0.1094 0.0742 0.41017   -0.502712
 N 0.8181 0.1983 0.6883   -0.582652
 N 0.8688 0.3924 0.63143   -0.264254
 N 0.8906 0.9258 0.91017   -0.502712
 N 0.1819 0.8017 0.1883   -0.582652
 N 0.1312 0.6076 0.13143   -0.264254
 N 0.6094 0.4258 0.41017   -0.502712
 N 0.3181 0.3017 0.6883   -0.582652
 N 0.3688 0.1076 0.63143   -0.264254
 N 0.3906 0.5742 0.91017   -0.502712
 N 0.6819 0.6983 0.1883   -0.582652
 N 0.6312 0.8924 0.13143   -0.264254
 O 0.6606 0.1385 0.83676   -0.719494
 O 0.5281 0.3318 0.83917   -0.69494
 O 0.5612 0.5734 0.74332   -0.746738
 O 0.8291 0.6383 0.7162   -0.603393
 O 0.3394 0.8615 0.33676   -0.719494
 O 0.4719 0.6682 0.33917   -0.69494
 O 0.4388 0.4266 0.24332   -0.746738
 O 0.1709 0.3617 0.2162   -0.603393
 O 0.1606 0.3615 0.83676   -0.719494
 O 0.0281 0.1682 0.83917   -0.694941
 O 0.0612 0.9266 0.74332   -0.746738
 O 0.3291 0.8617 0.7162   -0.603394
 O 0.8394 0.6385 0.33676   -0.719494
 O 0.9719 0.8318 0.33917   -0.694941
 O 0.9388 0.0734 0.24332   -0.746738
 O 0.6709 0.1383 0.2162   -0.603394
