{'_ref': 'TBD', '_srcid': 'CAKYAQ_clean', 'submitters': [{'name': 'Dalar Nazarian Jeff Camp and David Sholl', 'email': 'dalar@gatech.edu jcamp6@gatech.edu'}], '_method': 'VASP DFT with PBE;DDEC'}
data_CoH2(CO2)2
_symmetry_space_group_name_H-M   'P 1'
_cell_length_a   9.85670000
_cell_length_b   11.27830043
_cell_length_c   14.46960000
_cell_angle_alpha   91.17199763
_cell_angle_beta   90.00000000
_cell_angle_gamma   90.00000000
_symmetry_Int_Tables_number   1
_chemical_formula_structural   CoH2(CO2)2
_chemical_formula_sum   'Co12 H24 C24 O48'
_cell_volume   1608.20296654
_cell_formula_units_Z   12
loop_
 _symmetry_equiv_pos_site_id
 _symmetry_equiv_pos_as_xyz
  1  'x, y, z'
loop_
 _atom_site_label
 _atom_site_fract_x
 _atom_site_fract_y
 _atom_site_fract_z
 _atom_site_charge
 Co 0.92177 0.75526 0.13313   1.120373
 Co 0.88834 0.25951 0.6895   1.101388
 Co 0.42177 0.74474 0.36687   1.120373
 Co 0.38834 0.24049 0.8105   1.101388
 Co 0.07823 0.24474 0.86687   1.120374
 Co 0.11166 0.74049 0.3105   1.101389
 Co 0.57823 0.25526 0.63313   1.120373
 Co 0.61166 0.75951 0.1895   1.101389
 Co 0.0 0.5 0.0   1.137897
 Co 0.5 0.0 0.5   1.137897
 Co 0.0 0.0 0.0   1.133973
 Co 0.5 0.5 0.5   1.133973
 H 0.745 0.862 0.37   0.025479
 H 0.029 0.481 0.262   -0.000174
 H 0.609 0.558 0.04   0.022607
 H 0.201 0.983 0.233   0.016125
 H 0.157 0.693 0.931   0.008754
 H 0.705 0.994 0.006   0.0272
 H 0.245 0.638 0.13   0.025479
 H 0.529 0.019 0.238   -0.000182
 H 0.109 0.942 0.46   0.022605
 H 0.701 0.517 0.267   0.016119
 H 0.657 0.807 0.569   0.008754
 H 0.205 0.506 0.494   0.027196
 H 0.255 0.138 0.63   0.025479
 H 0.971 0.519 0.738   -0.000185
 H 0.391 0.442 0.96   0.022549
 H 0.799 0.017 0.767   0.016118
 H 0.843 0.307 0.069   0.008739
 H 0.295 0.006 0.994   0.02719
 H 0.755 0.362 0.87   0.02548
 H 0.471 0.981 0.762   -0.000193
 H 0.891 0.058 0.54   0.022547
 H 0.299 0.483 0.733   0.016112
 H 0.343 0.193 0.431   0.008739
 H 0.795 0.494 0.506   0.027187
 C 0.8288 0.8312 0.3303   0.632634
 C 0.0133 0.5177 0.2116   0.713678
 C 0.7119 0.5775 0.0464   0.647203
 C 0.1304 0.9553 0.1862   0.654029
 C 0.1071 0.744 0.9705   0.701305
 C 0.7222 0.9282 0.0501   0.660479
 C 0.3288 0.6688 0.1697   0.632618
 C 0.5133 0.9823 0.2884   0.713673
 C 0.2119 0.9225 0.4536   0.647203
 C 0.6304 0.5447 0.3138   0.654025
 C 0.6071 0.756 0.5295   0.7013
 C 0.2222 0.5718 0.4499   0.66048
 C 0.1712 0.1688 0.6697   0.632626
 C 0.9867 0.4823 0.7884   0.713679
 C 0.2881 0.4225 0.9536   0.647207
 C 0.8696 0.0447 0.8138   0.654028
 C 0.8929 0.256 0.0295   0.701308
 C 0.2778 0.0718 0.9499   0.66048
 C 0.6712 0.3312 0.8303   0.63261
 C 0.4867 0.0177 0.7116   0.713674
 C 0.7881 0.0775 0.5464   0.647207
 C 0.3696 0.4553 0.6862   0.654024
 C 0.3929 0.244 0.4705   0.701303
 C 0.7778 0.4282 0.5501   0.660482
 O 0.8011 0.80836 0.24506   -0.645799
 O 0.9416 0.81683 0.36783   -0.563889
 O 0.0062 0.62935 0.21875   -0.677628
 O 0.9939 0.45798 0.13968   -0.602287
 O 0.7446 0.65326 0.10876   -0.666379
 O 0.7911 0.51814 0.99744   -0.573392
 O 0.0846 0.8498 0.1952   -0.671985
 O 0.1053 0.02325 0.12315   -0.567035
 O 0.0279 0.68438 0.02358   -0.686087
 O 0.1155 0.8518 0.967   -0.582807
 O 0.8466 0.89645 0.06035   -0.66019
 O 0.6229 0.88674 0.09124   -0.569462
 O 0.3011 0.69164 0.25494   -0.645797
 O 0.4416 0.68317 0.13217   -0.563892
 O 0.5062 0.87065 0.28125   -0.677627
 O 0.4939 0.04202 0.36032   -0.602287
 O 0.2446 0.84674 0.39124   -0.666379
 O 0.2911 0.98186 0.50256   -0.573392
 O 0.5846 0.6502 0.3048   -0.671985
 O 0.6053 0.47675 0.37685   -0.567035
 O 0.5279 0.81562 0.47642   -0.686087
 O 0.6155 0.6482 0.533   -0.582806
 O 0.3466 0.60355 0.43965   -0.660191
 O 0.1229 0.61326 0.40876   -0.569466
 O 0.1989 0.19164 0.75494   -0.645798
 O 0.0584 0.18317 0.63217   -0.563888
 O 0.9938 0.37065 0.78125   -0.677628
 O 0.0061 0.54202 0.86032   -0.602285
 O 0.2554 0.34674 0.89124   -0.666382
 O 0.2089 0.48186 0.00256   -0.573392
 O 0.9154 0.1502 0.8048   -0.671985
 O 0.8947 0.97675 0.87685   -0.567034
 O 0.9721 0.31562 0.97642   -0.686087
 O 0.8845 0.1482 0.033   -0.582807
 O 0.1534 0.10355 0.93965   -0.660191
 O 0.3771 0.11326 0.90876   -0.569462
 O 0.6989 0.30836 0.74506   -0.645796
 O 0.5584 0.31683 0.86783   -0.56389
 O 0.4938 0.12935 0.71875   -0.677628
 O 0.5061 0.95798 0.63968   -0.602285
 O 0.7554 0.15326 0.60876   -0.666382
 O 0.7089 0.01814 0.49744   -0.573392
 O 0.4154 0.3498 0.6952   -0.671985
 O 0.3947 0.52325 0.62315   -0.567034
 O 0.4721 0.18438 0.52358   -0.686087
 O 0.3845 0.3518 0.467   -0.582806
 O 0.6534 0.39645 0.56035   -0.660191
 O 0.8771 0.38674 0.59124   -0.569466
