{'_ref': 'TBD', '_srcid': 'CAKYAQ_clean', 'submitters': [{'name': 'Dalar Nazarian Jeff Camp and David Sholl', 'email': 'dalar@gatech.edu jcamp6@gatech.edu'}], '_method': 'VASP DFT with PBE;DDEC'}
data_CoH2(CO2)2
_symmetry_space_group_name_H-M   'P 1'
_cell_length_a   9.83210000
_cell_length_b   11.25390045
_cell_length_c   14.42250000
_cell_angle_alpha   91.19299855
_cell_angle_beta   90.00000000
_cell_angle_gamma   90.00000000
_symmetry_Int_Tables_number   1
_chemical_formula_structural   CoH2(CO2)2
_chemical_formula_sum   'Co12 H24 C24 O48'
_cell_volume   1595.49612517
_cell_formula_units_Z   12
loop_
 _symmetry_equiv_pos_site_id
 _symmetry_equiv_pos_as_xyz
  1  'x, y, z'
loop_
 _atom_site_label
 _atom_site_fract_x
 _atom_site_fract_y
 _atom_site_fract_z
 _atom_site_charge
 Co 0.42056 0.74486 0.36693   1.118463
 Co 0.11028 0.74021 0.3109   1.103937
 Co 0.92056 0.75514 0.13307   1.118464
 Co 0.61028 0.75979 0.1891   1.103937
 Co 0.57944 0.25514 0.63307   1.118463
 Co 0.88972 0.25979 0.6891   1.103937
 Co 0.07944 0.24486 0.86693   1.118463
 Co 0.38972 0.24021 0.8109   1.103937
 Co 0.5 0.0 0.5   1.13042
 Co 0.0 0.5 0.0   1.13042
 Co 0.5 0.5 0.5   1.137768
 Co 0.0 0.0 0.0   1.137768
 H 0.758 0.861 0.369   0.003375
 H 0.038 0.475 0.261   0.00728
 H 0.879 0.055 0.536   0.007884
 H 0.212 0.509 0.491   0.007393
 H 0.342 0.201 0.429   0.00357
 H 0.698 0.516 0.267   0.013255
 H 0.258 0.639 0.131   0.003375
 H 0.538 0.025 0.239   0.007278
 H 0.379 0.445 0.964   0.007884
 H 0.712 0.991 0.009   0.007393
 H 0.842 0.299 0.071   0.003562
 H 0.198 0.984 0.233   0.013248
 H 0.242 0.139 0.631   0.003375
 H 0.962 0.525 0.739   0.007278
 H 0.121 0.945 0.464   0.007869
 H 0.788 0.491 0.509   0.007392
 H 0.658 0.799 0.571   0.003568
 H 0.302 0.484 0.733   0.013254
 H 0.742 0.361 0.869   0.003375
 H 0.462 0.975 0.761   0.007276
 H 0.621 0.555 0.036   0.007869
 H 0.288 0.009 0.991   0.007392
 H 0.158 0.701 0.929   0.00356
 H 0.802 0.016 0.767   0.013248
 C 0.8284 0.8308 0.3301   0.684389
 C 0.0135 0.517 0.212   0.699475
 C 0.7881 0.0758 0.5472   0.688763
 C 0.6286 0.5448 0.3126   0.660875
 C 0.3931 0.2435 0.4699   0.717018
 C 0.2212 0.572 0.4505   0.696418
 C 0.3284 0.6692 0.1699   0.684382
 C 0.5135 0.983 0.288   0.699472
 C 0.2881 0.4242 0.9528   0.688759
 C 0.1286 0.9552 0.1874   0.66087
 C 0.8931 0.2565 0.0301   0.71702
 C 0.7212 0.928 0.0495   0.696418
 C 0.1716 0.1692 0.6699   0.68439
 C 0.9865 0.483 0.788   0.699476
 C 0.2119 0.9242 0.4528   0.688759
 C 0.3714 0.4552 0.6874   0.660875
 C 0.6069 0.7565 0.5301   0.717019
 C 0.7788 0.428 0.5495   0.69641
 C 0.6716 0.3308 0.8301   0.684383
 C 0.4865 0.017 0.712   0.699473
 C 0.7119 0.5758 0.0472   0.688756
 C 0.8714 0.0448 0.8126   0.66087
 C 0.1069 0.7435 0.9699   0.717022
 C 0.2788 0.072 0.9505   0.69641
 O 0.80017 0.80867 0.24547   -0.659839
 O 0.9397 0.81617 0.36827   -0.580225
 O 0.00485 0.62874 0.21954   -0.675157
 O 0.9956 0.45697 0.14047   -0.59644
 O 0.24287 0.847 0.3915   -0.680036
 O 0.7089 0.01782 0.49772   -0.583763
 O 0.58356 0.64968 0.30478   -0.669344
 O 0.6043 0.47667 0.37617   -0.575777
 O 0.4726 0.18453 0.52343   -0.69041
 O 0.3847 0.35115 0.46665   -0.583712
 O 0.3452 0.60274 0.43994   -0.670852
 O 0.12208 0.61331 0.40961   -0.580608
 O 0.30017 0.69133 0.25453   -0.659838
 O 0.4397 0.68383 0.13173   -0.580224
 O 0.50485 0.87126 0.28046   -0.675157
 O 0.4956 0.04303 0.35953   -0.596439
 O 0.74287 0.653 0.1085   -0.680035
 O 0.2089 0.48218 0.00228   -0.583762
 O 0.08356 0.85032 0.19522   -0.669344
 O 0.1043 0.02333 0.12383   -0.575777
 O 0.9726 0.31547 0.97657   -0.690411
 O 0.8847 0.14885 0.03335   -0.583713
 O 0.8452 0.89726 0.06006   -0.670851
 O 0.62208 0.88669 0.09039   -0.580608
 O 0.19983 0.19133 0.75453   -0.659839
 O 0.0603 0.18383 0.63173   -0.580225
 O 0.99515 0.37126 0.78046   -0.675157
 O 0.0044 0.54303 0.85953   -0.59644
 O 0.75713 0.153 0.6085   -0.680035
 O 0.2911 0.98218 0.50228   -0.583763
 O 0.41644 0.35032 0.69522   -0.669344
 O 0.3957 0.52333 0.62383   -0.575777
 O 0.5274 0.81547 0.47657   -0.69041
 O 0.6153 0.64885 0.53335   -0.583712
 O 0.6548 0.39726 0.56006   -0.67085
 O 0.87792 0.38669 0.59039   -0.580607
 O 0.69983 0.30867 0.74547   -0.659838
 O 0.5603 0.31617 0.86827   -0.580224
 O 0.49515 0.12874 0.71954   -0.675156
 O 0.5044 0.95697 0.64047   -0.596439
 O 0.25713 0.347 0.8915   -0.680035
 O 0.7911 0.51782 0.99772   -0.583761
 O 0.91644 0.14968 0.80478   -0.669343
 O 0.8957 0.97667 0.87617   -0.575777
 O 0.0274 0.68453 0.02343   -0.690411
 O 0.1153 0.85115 0.96665   -0.583713
 O 0.1548 0.10274 0.93994   -0.67085
 O 0.37792 0.11331 0.90961   -0.580607
