{'_ref': 'TBD', '_srcid': 'CAKYAQ_clean', 'submitters': [{'name': 'Dalar Nazarian Jeff Camp and David Sholl', 'email': 'dalar@gatech.edu jcamp6@gatech.edu'}], '_method': 'VASP DFT with PBE;DDEC'}
data_CoH2(CO2)2
_symmetry_space_group_name_H-M   'P 1'
_cell_length_a   9.90510000
_cell_length_b   11.33229961
_cell_length_c   14.50330000
_cell_angle_alpha   91.31699926
_cell_angle_beta   90.00000000
_cell_angle_gamma   90.00000000
_symmetry_Int_Tables_number   1
_chemical_formula_structural   CoH2(CO2)2
_chemical_formula_sum   'Co12 H24 C24 O48'
_cell_volume   1627.52999758
_cell_formula_units_Z   12
loop_
 _symmetry_equiv_pos_site_id
 _symmetry_equiv_pos_as_xyz
  1  'x, y, z'
loop_
 _atom_site_label
 _atom_site_fract_x
 _atom_site_fract_y
 _atom_site_fract_z
 _atom_site_charge
 Co 0.92129 0.7555 0.63306   1.118984
 Co 0.11198 0.74033 0.81007   1.103772
 Co 0.42129 0.7445 0.86694   1.118985
 Co 0.61198 0.75967 0.68993   1.103772
 Co 0.07871 0.2445 0.36694   1.118984
 Co 0.88802 0.25967 0.18993   1.103772
 Co 0.57871 0.2555 0.13306   1.118985
 Co 0.38802 0.24033 0.31007   1.103772
 Co 0.0 0.5 0.5   1.126491
 Co 0.5 0.0 0.0   1.126491
 Co 0.0 0.0 0.5   1.143128
 Co 0.5 0.5 0.0   1.143128
 H 0.762 0.8599 0.8677   -0.00053
 H 0.1587 0.699 0.4297   0.006577
 H 0.6215 0.5581 0.5424   0.005696
 H 0.0377 0.4783 0.7637   0.009593
 H 0.1884 0.9811 0.7319   0.001751
 H 0.705 0.9877 0.5108   0.00878
 H 0.262 0.6401 0.6323   -0.00053
 H 0.6587 0.801 0.0703   0.006577
 H 0.1215 0.9419 0.9576   0.005695
 H 0.5377 0.0217 0.7363   0.009589
 H 0.6884 0.5189 0.7681   0.001748
 H 0.205 0.5123 0.9892   0.008779
 H 0.238 0.1401 0.1323   -0.00053
 H 0.8413 0.301 0.5703   0.006559
 H 0.3785 0.4419 0.4576   0.005689
 H 0.9623 0.5217 0.2363   0.009583
 H 0.8116 0.0189 0.2681   0.001745
 H 0.295 0.0123 0.4892   0.008778
 H 0.738 0.3599 0.3677   -0.00053
 H 0.3413 0.199 0.9297   0.006559
 H 0.8785 0.0581 0.0424   0.005689
 H 0.4623 0.9783 0.2637   0.009579
 H 0.3116 0.4811 0.2319   0.001742
 H 0.795 0.4877 0.0108   0.008776
 C 0.8309 0.8301 0.8304   0.698467
 C 0.1036 0.743 0.4694   0.709418
 C 0.7129 0.5743 0.5499   0.69384
 C 0.0162 0.5187 0.7106   0.692631
 C 0.13 0.9537 0.686   0.692843
 C 0.7227 0.9278 0.5519   0.698295
 C 0.3309 0.6699 0.6696   0.698471
 C 0.6036 0.757 0.0306   0.70942
 C 0.2129 0.9257 0.9501   0.69384
 C 0.5162 0.9813 0.7894   0.692631
 C 0.63 0.5463 0.814   0.692847
 C 0.2227 0.5722 0.9481   0.698295
 C 0.1691 0.1699 0.1696   0.698464
 C 0.8964 0.257 0.5306   0.70942
 C 0.2871 0.4257 0.4501   0.693835
 C 0.9838 0.4813 0.2894   0.692632
 C 0.87 0.0463 0.314   0.69284
 C 0.2773 0.0722 0.4481   0.698295
 C 0.6691 0.3301 0.3304   0.698468
 C 0.3964 0.243 0.9694   0.709423
 C 0.7871 0.0743 0.0499   0.693836
 C 0.4838 0.0187 0.2106   0.692632
 C 0.37 0.4537 0.186   0.692845
 C 0.7773 0.4278 0.0519   0.698295
 O 0.8018 0.80844 0.74601   -0.669729
 O 0.9411 0.8154 0.8671   -0.580719
 O 0.0265 0.68517 0.5227   -0.681254
 O 0.1122 0.8505 0.46545   -0.59297
 O 0.7441 0.65321 0.60966   -0.682389
 O 0.792 0.5171 0.50084   -0.584748
 O 0.0066 0.62949 0.71866   -0.673853
 O 0.0841 0.85014 0.69473   -0.680928
 O 0.8456 0.89702 0.56038   -0.668361
 O 0.1055 0.0217 0.62321   -0.585411
 O 0.6246 0.8864 0.5924   -0.58342
 O 0.0 0.4589 0.63995   -0.591119
 O 0.3018 0.69156 0.75399   -0.66973
 O 0.4411 0.6846 0.6329   -0.58072
 O 0.5265 0.81483 0.9773   -0.681255
 O 0.6122 0.6495 0.03455   -0.592971
 O 0.2441 0.84679 0.89034   -0.682389
 O 0.292 0.9829 0.99916   -0.584749
 O 0.5066 0.87051 0.78134   -0.673853
 O 0.5841 0.64986 0.80527   -0.680929
 O 0.3456 0.60298 0.93962   -0.668361
 O 0.6055 0.4783 0.87679   -0.585412
 O 0.1246 0.6136 0.9076   -0.58342
 O 0.5 0.0411 0.86005   -0.59112
 O 0.1982 0.19156 0.25399   -0.669729
 O 0.0589 0.1846 0.1329   -0.580719
 O 0.9735 0.31483 0.4773   -0.681255
 O 0.8878 0.1495 0.53455   -0.59297
 O 0.2559 0.34679 0.39034   -0.682389
 O 0.208 0.4829 0.49916   -0.584747
 O 0.9934 0.37051 0.28134   -0.673853
 O 0.9159 0.14986 0.30527   -0.680928
 O 0.1544 0.10298 0.43962   -0.66836
 O 0.8945 0.9783 0.37679   -0.58541
 O 0.3754 0.1136 0.4076   -0.58342
 O 0.0 0.5411 0.36005   -0.591119
 O 0.6982 0.30844 0.24601   -0.669729
 O 0.5589 0.3154 0.3671   -0.580719
 O 0.4735 0.18517 0.0227   -0.681255
 O 0.3878 0.3505 0.96545   -0.59297
 O 0.7559 0.15321 0.10966   -0.682389
 O 0.708 0.0171 0.000839999999997   -0.584747
 O 0.4934 0.12949 0.21866   -0.673854
 O 0.4159 0.35014 0.19473   -0.680929
 O 0.6544 0.39702 0.06038   -0.668361
 O 0.3945 0.5217 0.12321   -0.58541
 O 0.8754 0.3864 0.0924   -0.583419
 O 0.5 0.9589 0.13995   -0.591119
