{'_ref': 'TBD', '_srcid': 'CAKYAQ_clean', 'submitters': [{'name': 'Dalar Nazarian Jeff Camp and David Sholl', 'email': 'dalar@gatech.edu jcamp6@gatech.edu'}], '_method': 'VASP DFT with PBE;DDEC'}
data_ZnH14C30S(NO2)4
_symmetry_space_group_name_H-M   'P 1'
_cell_length_a   16.64400000
_cell_length_b   17.61499979
_cell_length_c   19.66000000
_cell_angle_alpha   91.89000083
_cell_angle_beta   90.00000000
_cell_angle_gamma   90.00000000
_symmetry_Int_Tables_number   1
_chemical_formula_structural   ZnH14C30S(NO2)4
_chemical_formula_sum   'Zn4 H56 C120 S4 N16 O32'
_cell_volume   5760.86286037
_cell_formula_units_Z   4
loop_
 _symmetry_equiv_pos_site_id
 _symmetry_equiv_pos_as_xyz
  1  'x, y, z'
loop_
 _atom_site_label
 _atom_site_fract_x
 _atom_site_fract_y
 _atom_site_fract_z
 _atom_site_charge
 Zn 0.89404 0.93928 0.51002   0.900267
 Zn 0.39404 0.56072 0.48998   0.900267
 Zn 0.10596 0.06072 0.48998   0.900267
 Zn 0.60596 0.43928 0.51002   0.900267
 H 0.9405 0.8225 0.7388   0.153071
 H 0.922 0.8077 0.2779   0.155382
 H 0.1155 0.6373 0.5071   0.124133
 H 0.9402 0.8321 0.6223   0.095207
 H 0.855 0.0347 0.7554   0.157727
 H 0.0224 0.7441 0.5106   0.125882
 H 0.8855 0.03 0.2667   0.157023
 H 0.0886 0.8851 0.0677   0.116347
 H 0.8591 0.0404 0.6377   0.093129
 H 0.9252 0.8222 0.3946   0.093331
 H 0.0903 0.8984 0.9497   0.114639
 H 0.7083 0.9283 0.0699   0.119032
 H 0.7078 0.9311 0.9507   0.123055
 H 0.883 0.0394 0.3842   0.085605
 H 0.4405 0.6775 0.2612   0.153071
 H 0.422 0.6923 0.7221   0.155382
 H 0.6155 0.8627 0.4929   0.124133
 H 0.4402 0.6679 0.3777   0.095207
 H 0.355 0.4653 0.2446   0.157727
 H 0.5224 0.7559 0.4894   0.125882
 H 0.3855 0.47 0.7333   0.157023
 H 0.5886 0.6149 0.9323   0.116347
 H 0.3591 0.4596 0.3623   0.093129
 H 0.4252 0.6778 0.6054   0.093331
 H 0.5903 0.6016 0.0503   0.114639
 H 0.2083 0.5717 0.9301   0.119032
 H 0.2078 0.5689 0.0493   0.123055
 H 0.383 0.4606 0.6158   0.085605
 H 0.0595 0.1775 0.2612   0.153071
 H 0.078 0.1923 0.7221   0.155382
 H 0.8845 0.3627 0.4929   0.124132
 H 0.0598 0.1679 0.3777   0.095207
 H 0.145 0.9653 0.2446   0.157727
 H 0.9776 0.2559 0.4894   0.125882
 H 0.1145 0.97 0.7333   0.157024
 H 0.9114 0.1149 0.9323   0.116348
 H 0.1409 0.9596 0.3623   0.093129
 H 0.0748 0.1778 0.6054   0.093331
 H 0.9097 0.1016 0.0503   0.114639
 H 0.2917 0.0717 0.9301   0.119031
 H 0.2922 0.0689 0.0493   0.123055
 H 0.117 0.9606 0.6158   0.085605
 H 0.5595 0.3225 0.7388   0.153071
 H 0.578 0.3077 0.2779   0.155382
 H 0.3845 0.1373 0.5071   0.124132
 H 0.5598 0.3321 0.6223   0.095207
 H 0.645 0.5347 0.7554   0.157727
 H 0.4776 0.2441 0.5106   0.125882
 H 0.6145 0.53 0.2667   0.157024
 H 0.4114 0.3851 0.0677   0.116348
 H 0.6409 0.5404 0.6377   0.093129
 H 0.5748 0.3222 0.3946   0.093331
 H 0.4097 0.3984 0.9497   0.114639
 H 0.7917 0.4283 0.0699   0.119031
 H 0.7922 0.4311 0.9507   0.123055
 H 0.617 0.5394 0.3842   0.085605
 C 0.11567 0.81675 0.4966   -0.227326
 C 0.9709 0.9077 0.93879   -0.144841
 C 0.2814 0.6612 0.49092   0.664444
 C 0.9236 0.8676 0.71894   -0.243374
 C 0.9724 0.9146 0.86393   0.503453
 C 0.914 0.8557 0.2991   -0.242015
 C 0.9016 0.9178 0.26191   0.261038
 C 0.1314 0.688 0.50246   -0.081694
 C 0.8992 0.9287 0.75846   0.24512
 C 0.9706 0.9004 0.07953   -0.134149
 C 0.923 0.8739 0.64946   0.190027
 C 0.8255 0.9251 0.86411   0.511077
 C 0.8735 0.993 0.72878   -0.229309
 C 0.0781 0.74914 0.50448   -0.074554
 C 0.8263 0.9172 0.08079   -0.129431
 C 0.8991 0.9128 0.97353   0.060121
 C 0.9721 0.8988 0.15472   0.510648
 C 0.8917 0.9864 0.29252   -0.241139
 C 0.0403 0.8938 0.04436   -0.041613
 C 0.8261 0.9189 0.15586   0.525781
 C 0.8753 0.9955 0.65841   0.189176
 C 0.2086 0.7095 0.49317   -0.176025
 C 0.8988 0.9102 0.04543   0.059746
 C 0.9147 0.8649 0.36862   0.193465
 C 0.8268 0.921 0.93968   -0.136814
 C 0.0412 0.8998 0.97336   -0.030903
 C 0.7571 0.9244 0.04596   -0.034982
 C 0.7565 0.9263 0.97427   -0.037128
 C 0.891 0.9915 0.36264   0.192858
 C 0.0789 0.89312 0.49709   0.697147
 C 0.61567 0.68325 0.5034   -0.227326
 C 0.4709 0.5923 0.06121   -0.144841
 C 0.7814 0.8388 0.50908   0.664443
 C 0.4236 0.6324 0.28106   -0.243374
 C 0.4724 0.5854 0.13607   0.503453
 C 0.414 0.6443 0.7009   -0.242015
 C 0.4016 0.5822 0.73809   0.261038
 C 0.6314 0.812 0.49754   -0.081694
 C 0.3992 0.5713 0.24154   0.24512
 C 0.4706 0.5996 0.92047   -0.134149
 C 0.423 0.6261 0.35054   0.190027
 C 0.3255 0.5749 0.13589   0.511077
 C 0.3735 0.507 0.27122   -0.229309
 C 0.5781 0.75086 0.49552   -0.074554
 C 0.3263 0.5828 0.91921   -0.129431
 C 0.3991 0.5872 0.02647   0.060121
 C 0.4721 0.6012 0.84528   0.510648
 C 0.3917 0.5136 0.70748   -0.241139
 C 0.5403 0.6062 0.95564   -0.041613
 C 0.3261 0.5811 0.84414   0.525781
 C 0.3753 0.5045 0.34159   0.189176
 C 0.7086 0.7905 0.50683   -0.176025
 C 0.3988 0.5898 0.95457   0.059746
 C 0.4147 0.6351 0.63138   0.193465
 C 0.3268 0.579 0.06032   -0.136814
 C 0.5412 0.6002 0.02664   -0.030903
 C 0.2571 0.5756 0.95404   -0.034981
 C 0.2565 0.5737 0.02573   -0.037128
 C 0.391 0.5085 0.63736   0.192857
 C 0.5789 0.60688 0.50291   0.697147
 C 0.88433 0.18325 0.5034   -0.227326
 C 0.0291 0.0923 0.06121   -0.144841
 C 0.7186 0.3388 0.50908   0.664444
 C 0.0764 0.1324 0.28106   -0.243374
 C 0.0276 0.0854 0.13607   0.503453
 C 0.086 0.1443 0.7009   -0.242015
 C 0.0984 0.0822 0.73809   0.261038
 C 0.8686 0.312 0.49754   -0.081694
 C 0.1008 0.0713 0.24154   0.24512
 C 0.0294 0.0996 0.92047   -0.134149
 C 0.077 0.1261 0.35054   0.190027
 C 0.1745 0.0749 0.13589   0.511077
 C 0.1265 0.007 0.27122   -0.229309
 C 0.9219 0.25086 0.49552   -0.074554
 C 0.1737 0.0828 0.91921   -0.129431
 C 0.1009 0.0872 0.02647   0.060122
 C 0.0279 0.1012 0.84528   0.510648
 C 0.1083 0.0136 0.70748   -0.241139
 C 0.9597 0.1062 0.95564   -0.041613
 C 0.1739 0.0811 0.84414   0.525781
 C 0.1247 0.0045 0.34159   0.189176
 C 0.7914 0.2905 0.50683   -0.176025
 C 0.1012 0.0898 0.95457   0.059746
 C 0.0853 0.1351 0.63138   0.193465
 C 0.1732 0.079 0.06032   -0.136814
 C 0.9588 0.1002 0.02664   -0.030903
 C 0.2429 0.0756 0.95404   -0.034981
 C 0.2435 0.0737 0.02573   -0.037128
 C 0.109 0.0085 0.63736   0.192858
 C 0.9211 0.10688 0.50291   0.697147
 C 0.38433 0.31675 0.4966   -0.227326
 C 0.5291 0.4077 0.93879   -0.144841
 C 0.2186 0.1612 0.49092   0.664443
 C 0.5764 0.3676 0.71894   -0.243374
 C 0.5276 0.4146 0.86393   0.503453
 C 0.586 0.3557 0.2991   -0.242015
 C 0.5984 0.4178 0.26191   0.261038
 C 0.3686 0.188 0.50246   -0.081694
 C 0.6008 0.4287 0.75846   0.24512
 C 0.5294 0.4004 0.07953   -0.134149
 C 0.577 0.3739 0.64946   0.190027
 C 0.6745 0.4251 0.86411   0.511077
 C 0.6265 0.493 0.72878   -0.229309
 C 0.4219 0.24914 0.50448   -0.074554
 C 0.6737 0.4172 0.08079   -0.129431
 C 0.6009 0.4128 0.97353   0.060122
 C 0.5279 0.3988 0.15472   0.510648
 C 0.6083 0.4864 0.29252   -0.241139
 C 0.4597 0.3938 0.04436   -0.041613
 C 0.6739 0.4189 0.15586   0.525781
 C 0.6247 0.4955 0.65841   0.189176
 C 0.2914 0.2095 0.49317   -0.176025
 C 0.6012 0.4102 0.04543   0.059746
 C 0.5853 0.3649 0.36862   0.193465
 C 0.6732 0.421 0.93968   -0.136814
 C 0.4588 0.3998 0.97336   -0.030903
 C 0.7429 0.4244 0.04596   -0.034981
 C 0.7435 0.4263 0.97427   -0.037128
 C 0.609 0.4915 0.36264   0.192858
 C 0.4211 0.39312 0.49709   0.697147
 S 0.21574 0.80547 0.48659   0.140631
 S 0.71574 0.69453 0.51341   0.140631
 S 0.78426 0.19453 0.51341   0.140631
 S 0.28426 0.30547 0.48659   0.140631
 N 0.90119 0.93122 0.40124   -0.30654
 N 0.89922 0.92442 0.83172   -0.252598
 N 0.89917 0.93645 0.61867   -0.309697
 N 0.89938 0.91231 0.18769   -0.26631
 N 0.40119 0.56878 0.59876   -0.30654
 N 0.39922 0.57558 0.16828   -0.252598
 N 0.39917 0.56355 0.38133   -0.309697
 N 0.39938 0.58769 0.81231   -0.26631
 N 0.09881 0.06878 0.59876   -0.30654
 N 0.10078 0.07558 0.16828   -0.252598
 N 0.10083 0.06355 0.38133   -0.309697
 N 0.10062 0.08769 0.81231   -0.26631
 N 0.59881 0.43122 0.40124   -0.30654
 N 0.60078 0.42442 0.83172   -0.252598
 N 0.60083 0.43645 0.61867   -0.309697
 N 0.60062 0.41231 0.18769   -0.26631
 O 0.00675 0.8975 0.51093   -0.614765
 O 0.12495 0.94799 0.48626   -0.590957
 O 0.34727 0.69344 0.4882   -0.610859
 O 0.03403 0.91605 0.83161   -0.463596
 O 0.03178 0.88789 0.18668   -0.457019
 O 0.27384 0.59132 0.49181   -0.581421
 O 0.7649 0.9289 0.83153   -0.4468
 O 0.76674 0.9266 0.18888   -0.452705
 O 0.50675 0.6025 0.48907   -0.614765
 O 0.62495 0.55201 0.51374   -0.590957
 O 0.84727 0.80656 0.5118   -0.610859
 O 0.53403 0.58395 0.16839   -0.463596
 O 0.53178 0.61211 0.81332   -0.457019
 O 0.77384 0.90868 0.50819   -0.581421
 O 0.2649 0.5711 0.16847   -0.446799
 O 0.26674 0.5734 0.81112   -0.452705
 O 0.99325 0.1025 0.48907   -0.614765
 O 0.87505 0.05201 0.51374   -0.590957
 O 0.65273 0.30656 0.5118   -0.610859
 O 0.96597 0.08395 0.16839   -0.463596
 O 0.96822 0.11211 0.81332   -0.457019
 O 0.72616 0.40868 0.50819   -0.581421
 O 0.2351 0.0711 0.16847   -0.4468
 O 0.23326 0.0734 0.81112   -0.452705
 O 0.49325 0.3975 0.51093   -0.614765
 O 0.37505 0.44799 0.48626   -0.590957
 O 0.15273 0.19344 0.4882   -0.610859
 O 0.46597 0.41605 0.83161   -0.463596
 O 0.46822 0.38789 0.18668   -0.457019
 O 0.22616 0.09132 0.49181   -0.581421
 O 0.7351 0.4289 0.83153   -0.446799
 O 0.73326 0.4266 0.18888   -0.452705
