{'_ref': 'TBD', '_srcid': 'CAKYAQ_clean', 'submitters': [{'name': 'Dalar Nazarian Jeff Camp and David Sholl', 'email': 'dalar@gatech.edu jcamp6@gatech.edu'}], '_method': 'VASP DFT with PBE;DDEC'}
data_MnH10(C6N5)2
_symmetry_space_group_name_H-M   'P 1'
_cell_length_a   8.66150000
_cell_length_b   14.56629982
_cell_length_c   15.23900000
_cell_angle_alpha   102.97499862
_cell_angle_beta   90.00000000
_cell_angle_gamma   107.29600144
_symmetry_Int_Tables_number   1
_chemical_formula_structural   MnH10(C6N5)2
_chemical_formula_sum   'Mn4 H40 C48 N40'
_cell_volume   1784.22578934
_cell_formula_units_Z   4
loop_
 _symmetry_equiv_pos_site_id
 _symmetry_equiv_pos_as_xyz
  1  'x, y, z'
loop_
 _atom_site_label
 _atom_site_fract_x
 _atom_site_fract_y
 _atom_site_fract_z
 _atom_site_charge
 Mn 0.4917 0.49348 0.38385   0.932939
 Mn 0.99822 0.50652 0.11615   0.934345
 Mn 0.5083 0.50652 0.61615   0.932939
 Mn 0.00178 0.49348 0.88385   0.934346
 H 0.6424 0.7246 0.3811   0.074436
 H 0.8675 0.5392 0.4164   0.069406
 H 0.1147 0.6558 0.4207   0.12541
 H 0.1257 0.8126 0.4067   0.107635
 H 0.7796 0.8954 0.3812   0.080929
 H 0.206 0.0916 0.3619   0.08231
 H 0.8571 0.1762 0.3523   0.107054
 H 0.8638 0.3336 0.3434   0.128845
 H 0.1107 0.4524 0.3509   0.06704
 H 0.3397 0.262 0.3589   0.07497
 H 0.9178 0.2754 0.1189   0.073403
 H 0.3283 0.4608 0.0836   0.069515
 H 0.4589 0.3442 0.0793   0.125095
 H 0.3131 0.1874 0.0933   0.107998
 H 0.8842 0.1046 0.1188   0.081749
 H 0.1144 0.9084 0.1381   0.082036
 H 0.6809 0.8238 0.1477   0.106577
 H 0.5302 0.6664 0.1566   0.12926
 H 0.6583 0.5476 0.1491   0.065985
 H 0.0777 0.738 0.1411   0.075419
 H 0.3576 0.2754 0.6189   0.074436
 H 0.1325 0.4608 0.5836   0.069406
 H 0.8853 0.3442 0.5793   0.12541
 H 0.8743 0.1874 0.5933   0.107633
 H 0.2204 0.1046 0.6188   0.080927
 H 0.794 0.9084 0.6381   0.082309
 H 0.1429 0.8238 0.6477   0.107054
 H 0.1362 0.6664 0.6566   0.128845
 H 0.8893 0.5476 0.6491   0.06704
 H 0.6603 0.738 0.6411   0.07497
 H 0.0822 0.7246 0.8811   0.073403
 H 0.6717 0.5392 0.9164   0.069516
 H 0.5411 0.6558 0.9207   0.125095
 H 0.6869 0.8126 0.9067   0.107996
 H 0.1158 0.8954 0.8812   0.081748
 H 0.8856 0.0916 0.8619   0.082036
 H 0.3191 0.1762 0.8523   0.106577
 H 0.4698 0.3336 0.8434   0.12926
 H 0.3417 0.4524 0.8509   0.065985
 H 0.9223 0.262 0.8589   0.075419
 C 0.73903 0.71086 0.3891   0.14572
 C 0.87074 0.60148 0.4095   0.170002
 C 0.01981 0.67142 0.4128   -0.170325
 C 0.02633 0.76426 0.4044   0.040376
 C 0.88254 0.78528 0.3924   -0.122949
 C 0.8781 0.8824 0.3831   0.191999
 C 0.10741 0.10502 0.3637   0.182528
 C 0.09989 0.20258 0.3577   -0.115159
 C 0.9557 0.2246 0.3528   0.025601
 C 0.95942 0.31784 0.3486   -0.178038
 C 0.1088 0.3886 0.352   0.169779
 C 0.24261 0.27702 0.358   0.156632
 C 0.02817 0.28914 0.1109   0.14764
 C 0.26926 0.39852 0.0905   0.169888
 C 0.34839 0.32858 0.0872   -0.171174
 C 0.26207 0.23574 0.0956   0.041247
 C 0.09726 0.21472 0.1076   -0.125123
 C 0.9957 0.1176 0.1169   0.191209
 C 0.00239 0.89498 0.1363   0.183025
 C 0.89731 0.79742 0.1423   -0.114713
 C 0.7311 0.7754 0.1472   0.025313
 C 0.64158 0.68216 0.1514   -0.177906
 C 0.7202 0.6114 0.148   0.171132
 C 0.96559 0.72298 0.142   0.156268
 C 0.26097 0.28914 0.6109   0.14572
 C 0.12926 0.39852 0.5905   0.170001
 C 0.98019 0.32858 0.5872   -0.170326
 C 0.97367 0.23574 0.5956   0.040376
 C 0.11746 0.21472 0.6076   -0.12295
 C 0.1219 0.1176 0.6169   0.192
 C 0.89259 0.89498 0.6363   0.182528
 C 0.90011 0.79742 0.6423   -0.11516
 C 0.0443 0.7754 0.6472   0.0256
 C 0.04058 0.68216 0.6514   -0.178038
 C 0.8912 0.6114 0.648   0.169779
 C 0.75739 0.72298 0.642   0.156631
 C 0.97183 0.71086 0.8891   0.14764
 C 0.73074 0.60148 0.9095   0.169888
 C 0.65161 0.67142 0.9128   -0.171174
 C 0.73793 0.76426 0.9044   0.041247
 C 0.90274 0.78528 0.8924   -0.125124
 C 0.0043 0.8824 0.8831   0.191209
 C 0.99761 0.10502 0.8637   0.183025
 C 0.10269 0.20258 0.8577   -0.114714
 C 0.2689 0.2246 0.8528   0.025312
 C 0.35842 0.31784 0.8486   -0.177906
 C 0.2798 0.3886 0.852   0.171132
 C 0.03441 0.27702 0.858   0.156268
 N 0.73138 0.61936 0.3968   -0.340964
 N 0.01057 0.94934 0.3776   -0.260085
 N 0.97626 0.03832 0.3716   -0.245973
 N 0.24872 0.37024 0.357   -0.338831
 N 0.58458 0.43016 0.4874   -0.685525
 N 0.59854 0.34848 0.4759   0.552132
 N 0.61102 0.27044 0.4646   -0.455034
 N 0.59431 0.40322 0.2804   -0.58782
 N 0.70699 0.41578 0.2375   0.584001
 N 0.8192 0.4256 0.1956   -0.568999
 N 0.11202 0.38064 0.1032   -0.340498
 N 0.06123 0.05066 0.1224   -0.259948
 N 0.93794 0.96168 0.1284   -0.245828
 N 0.87848 0.62976 0.143   -0.339919
 N 0.15442 0.56984 0.0126   -0.687347
 N 0.25006 0.65152 0.0241   0.554423
 N 0.34058 0.72956 0.0354   -0.455854
 N 0.19109 0.59678 0.2196   -0.588793
 N 0.29121 0.58422 0.2625   0.585182
 N 0.3936 0.5744 0.3044   -0.569643
 N 0.26862 0.38064 0.6032   -0.340964
 N 0.98943 0.05066 0.6224   -0.260086
 N 0.02374 0.96168 0.6284   -0.245973
 N 0.75128 0.62976 0.643   -0.338831
 N 0.41542 0.56984 0.5126   -0.685525
 N 0.40146 0.65152 0.5241   0.552132
 N 0.38898 0.72956 0.5354   -0.455034
 N 0.40569 0.59678 0.7196   -0.58782
 N 0.29301 0.58422 0.7625   0.584001
 N 0.1808 0.5744 0.8044   -0.568998
 N 0.88798 0.61936 0.8968   -0.340498
 N 0.93877 0.94934 0.8776   -0.259948
 N 0.06206 0.03832 0.8716   -0.245828
 N 0.12152 0.37024 0.857   -0.339919
 N 0.84558 0.43016 0.9874   -0.687347
 N 0.74994 0.34848 0.9759   0.554424
 N 0.65942 0.27044 0.9646   -0.455853
 N 0.80891 0.40322 0.7804   -0.588793
 N 0.70879 0.41578 0.7375   0.585182
 N 0.6064 0.4256 0.6956   -0.569642
