{'_ref': 'TBD', '_srcid': 'CAKYAQ_clean', 'submitters': [{'name': 'Dalar Nazarian Jeff Camp and David Sholl', 'email': 'dalar@gatech.edu jcamp6@gatech.edu'}], '_method': 'VASP DFT with PBE;DDEC'}
data_CuH9C10IN2
_symmetry_space_group_name_H-M   'P 1'
_cell_length_a   13.12609992
_cell_length_b   17.13149994
_cell_length_c   17.13150000
_cell_angle_alpha   81.56049879
_cell_angle_beta   67.47420075
_cell_angle_gamma   67.47430092
_symmetry_Int_Tables_number   1
_chemical_formula_structural   CuH9C10IN2
_chemical_formula_sum   'Cu8 H72 C80 I8 N16'
_cell_volume   3286.96731876
_cell_formula_units_Z   8
loop_
 _symmetry_equiv_pos_site_id
 _symmetry_equiv_pos_as_xyz
  1  'x, y, z'
loop_
 _atom_site_label
 _atom_site_fract_x
 _atom_site_fract_y
 _atom_site_fract_z
 _atom_site_charge
 Cu 0.36695 0.25 0.7661   0.236484
 Cu 0.88305 0.25 0.7339   0.237074
 Cu 0.63305 0.2339 0.75   0.236484
 Cu 0.11695 0.2661 0.75   0.237068
 Cu 0.63305 0.75 0.2339   0.236484
 Cu 0.11695 0.75 0.2661   0.237074
 Cu 0.36695 0.7661 0.25   0.236484
 Cu 0.88305 0.7339 0.25   0.237068
 H 0.2102 0.1825 0.9457   0.110342
 H 0.2573 0.1459 0.8565   0.084185
 H 0.2675 0.016 0.9024   0.082089
 H 0.1462 0.075 0.9586   0.084778
 H 0.8384 0.3175 0.5543   0.110952
 H 0.7597 0.3541 0.6435   0.085336
 H 0.6859 0.484 0.5976   0.081935
 H 0.6798 0.425 0.5414   0.085776
 H 0.6559 0.0543 0.6825   0.110447
 H 0.6138 0.1435 0.6459   0.085246
 H 0.6699 0.0976 0.516   0.082012
 H 0.6048 0.0414 0.575   0.084658
 H 0.8927 0.4457 0.8175   0.110927
 H 0.9032 0.3565 0.8541   0.085292
 H 0.7835 0.4024 0.984   0.081726
 H 0.7212 0.4586 0.925   0.085117
 H 0.1616 0.4457 0.6825   0.110953
 H 0.2403 0.3565 0.6459   0.085332
 H 0.3141 0.4024 0.516   0.081937
 H 0.3202 0.4586 0.575   0.085776
 H 0.7898 0.0543 0.8175   0.110344
 H 0.7427 0.1435 0.8541   0.084186
 H 0.7325 0.0976 0.984   0.082088
 H 0.8538 0.0414 0.925   0.084775
 H 0.1073 0.1825 0.5543   0.110931
 H 0.0968 0.1459 0.6435   0.085293
 H 0.2165 0.016 0.5976   0.081733
 H 0.2788 0.075 0.5414   0.085125
 H 0.3441 0.3175 0.9457   0.110448
 H 0.3862 0.3541 0.8565   0.085246
 H 0.3301 0.484 0.9024   0.08201
 H 0.3952 0.425 0.9586   0.084656
 H 0.7898 0.8175 0.0543   0.110342
 H 0.7427 0.8541 0.1435   0.084185
 H 0.7325 0.984 0.0976   0.082088
 H 0.8538 0.925 0.0414   0.084779
 H 0.1616 0.6825 0.4457   0.110952
 H 0.2403 0.6459 0.3565   0.085336
 H 0.3141 0.516 0.4024   0.081934
 H 0.3202 0.575 0.4586   0.085776
 H 0.3441 0.9457 0.3175   0.110447
 H 0.3862 0.8565 0.3541   0.085246
 H 0.3301 0.9024 0.484   0.08201
 H 0.3952 0.9586 0.425   0.084659
 H 0.1073 0.5543 0.1825   0.110927
 H 0.0968 0.6435 0.1459   0.085292
 H 0.2165 0.5976 0.016   0.081724
 H 0.2788 0.5414 0.075   0.085118
 H 0.8384 0.5543 0.3175   0.110953
 H 0.7597 0.6435 0.3541   0.085332
 H 0.6859 0.5976 0.484   0.081935
 H 0.6798 0.5414 0.425   0.085777
 H 0.2102 0.9457 0.1825   0.110344
 H 0.2573 0.8565 0.1459   0.084186
 H 0.2675 0.9024 0.016   0.082087
 H 0.1462 0.9586 0.075   0.084776
 H 0.8927 0.8175 0.4457   0.110931
 H 0.9032 0.8541 0.3565   0.085293
 H 0.7835 0.984 0.4024   0.081731
 H 0.7212 0.925 0.4586   0.085125
 H 0.6559 0.6825 0.0543   0.110448
 H 0.6138 0.6459 0.1435   0.085246
 H 0.6699 0.516 0.0976   0.082008
 H 0.6048 0.575 0.0414   0.084657
 H 0.2078 0.0651 0.0651   0.074411
 H 0.838 0.4349 0.4349   0.073128
 H 0.7729 0.9349 0.5651   0.073966
 H 0.7729 0.5651 0.9349   0.073967
 H 0.162 0.5651 0.5651   0.073128
 H 0.7922 0.9349 0.9349   0.074411
 H 0.2271 0.0651 0.4349   0.073966
 H 0.2271 0.4349 0.0651   0.073967
 C 0.3867 0.1195 0.9017   0.228381
 C 0.4413 0.0591 0.9527   -0.069279
 C 0.2632 0.1343 0.9111   -0.206495
 C 0.2298 0.0585 0.9447   -0.118646
 C 0.9079 0.3805 0.5983   0.228195
 C 0.9531 0.4409 0.5473   -0.068918
 C 0.8086 0.3657 0.5889   -0.210128
 C 0.733 0.4415 0.5553   -0.118944
 C 0.7884 0.0983 0.6195   0.22865
 C 0.894 0.0473 0.5591   -0.068075
 C 0.6743 0.0889 0.6343   -0.209206
 C 0.6745 0.0553 0.5585   -0.117217
 C 0.0062 0.4017 0.8805   0.229292
 C 0.000399999999999 0.4527 0.9409   -0.070285
 C 0.8975 0.4111 0.8657   -0.210347
 C 0.7883 0.4447 0.9415   -0.117035
 C 0.0921 0.4017 0.6195   0.228194
 C 0.0469 0.4527 0.5591   -0.068933
 C 0.1914 0.4111 0.6343   -0.210121
 C 0.267 0.4447 0.5585   -0.118958
 C 0.6133 0.0983 0.8805   0.228382
 C 0.5587 0.0473 0.9409   -0.069283
 C 0.7368 0.0889 0.8657   -0.206504
 C 0.7702 0.0553 0.9415   -0.118639
 C 0.9938 0.1195 0.5983   0.229281
 C 0.9996 0.0591 0.5473   -0.070254
 C 0.1025 0.1343 0.5889   -0.210336
 C 0.2117 0.0585 0.5553   -0.117074
 C 0.2116 0.3805 0.9017   0.22865
 C 0.106 0.4409 0.9527   -0.068054
 C 0.3257 0.3657 0.9111   -0.209218
 C 0.3255 0.4415 0.9447   -0.117199
 C 0.6133 0.8805 0.0983   0.228381
 C 0.5587 0.9409 0.0473   -0.069279
 C 0.7368 0.8657 0.0889   -0.206496
 C 0.7702 0.9415 0.0553   -0.118645
 C 0.0921 0.6195 0.4017   0.228195
 C 0.0469 0.5591 0.4527   -0.068918
 C 0.1914 0.6343 0.4111   -0.210128
 C 0.267 0.5585 0.4447   -0.118943
 C 0.2116 0.9017 0.3805   0.22865
 C 0.106 0.9527 0.4409   -0.068075
 C 0.3257 0.9111 0.3657   -0.209207
 C 0.3255 0.9447 0.4415   -0.117216
 C 0.9938 0.5983 0.1195   0.229292
 C 0.9996 0.5473 0.0591   -0.070285
 C 0.1025 0.5889 0.1343   -0.210347
 C 0.2117 0.5553 0.0585   -0.117034
 C 0.9079 0.5983 0.3805   0.228194
 C 0.9531 0.5473 0.4409   -0.068933
 C 0.8086 0.5889 0.3657   -0.210122
 C 0.733 0.5553 0.4415   -0.118957
 C 0.3867 0.9017 0.1195   0.228382
 C 0.4413 0.9527 0.0591   -0.069283
 C 0.2632 0.9111 0.1343   -0.206504
 C 0.2298 0.9447 0.0585   -0.118638
 C 0.0062 0.8805 0.4017   0.229281
 C 0.000399999999999 0.9409 0.4527   -0.070254
 C 0.8975 0.8657 0.4111   -0.210337
 C 0.7883 0.9415 0.4447   -0.117073
 C 0.7884 0.6195 0.0983   0.22865
 C 0.894 0.5591 0.0473   -0.068054
 C 0.6743 0.6343 0.0889   -0.209218
 C 0.6745 0.5585 0.0553   -0.117198
 C 0.3807 0.0115 0.0115   0.039703
 C 0.2567 0.0228 0.0228   -0.021318
 C 0.9037 0.4885 0.4885   0.040285
 C 0.8023 0.4772 0.4772   -0.020062
 C 0.8922 0.9885 0.5115   0.039541
 C 0.7795 0.9772 0.5228   -0.021851
 C 0.8922 0.5115 0.9885   0.039553
 C 0.7795 0.5228 0.9772   -0.021871
 C 0.0963 0.5115 0.5115   0.040285
 C 0.1977 0.5228 0.5228   -0.020062
 C 0.6193 0.9885 0.9885   0.039703
 C 0.7433 0.9772 0.9772   -0.021319
 C 0.1078 0.0115 0.4885   0.039541
 C 0.2205 0.0228 0.4772   -0.021851
 C 0.1078 0.4885 0.0115   0.039553
 C 0.2205 0.4772 0.0228   -0.021871
 I 0.5 0.33278 0.66722   -0.403942
 I 0.0 0.16722 0.83278   -0.404113
 I 0.66722 0.33278 0.83278   -0.40405
 I 0.33278 0.16722 0.66722   -0.404048
 I 0.5 0.66722 0.33278   -0.403942
 I 0.0 0.83278 0.16722   -0.404113
 I 0.33278 0.66722 0.16722   -0.40405
 I 0.66722 0.83278 0.33278   -0.404048
 N 0.4416 0.1651 0.8457   -0.158057
 N 0.9524 0.3349 0.6543   -0.157283
 N 0.7873 0.1543 0.6651   -0.158139
 N 0.1067 0.3457 0.8349   -0.157478
 N 0.0476 0.3457 0.6651   -0.157278
 N 0.5584 0.1543 0.8349   -0.158051
 N 0.8933 0.1651 0.6543   -0.157492
 N 0.2127 0.3349 0.8457   -0.158158
 N 0.5584 0.8349 0.1543   -0.158057
 N 0.0476 0.6651 0.3457   -0.157283
 N 0.2127 0.8457 0.3349   -0.158139
 N 0.8933 0.6543 0.1651   -0.157478
 N 0.9524 0.6543 0.3349   -0.157278
 N 0.4416 0.8457 0.1651   -0.158051
 N 0.1067 0.8349 0.3457   -0.157492
 N 0.7873 0.6651 0.1543   -0.158158
