{'_ref': 'TBD', '_srcid': 'CAKYAQ_clean', 'submitters': [{'name': 'Dalar Nazarian Jeff Camp and David Sholl', 'email': 'dalar@gatech.edu jcamp6@gatech.edu'}], '_method': 'VASP DFT with PBE;DDEC'}
data_Zn2CdH17(C9O4)3
_symmetry_space_group_name_H-M   'P 1'
_cell_length_a   7.30770000
_cell_length_b   18.81510000
_cell_length_c   23.34440000
_cell_angle_alpha   90.00000000
_cell_angle_beta   90.00000000
_cell_angle_gamma   90.00000000
_symmetry_Int_Tables_number   1
_chemical_formula_structural   Zn2CdH17(C9O4)3
_chemical_formula_sum   'Zn8 Cd4 H68 C108 O48'
_cell_volume   3209.74075881
_cell_formula_units_Z   4
loop_
 _symmetry_equiv_pos_site_id
 _symmetry_equiv_pos_as_xyz
  1  'x, y, z'
loop_
 _atom_site_label
 _atom_site_fract_x
 _atom_site_fract_y
 _atom_site_fract_z
 _atom_site_charge
 Zn 0.84966 0.54868 0.91321   1.102695
 Zn 0.65034 0.04868 0.08679   1.102695
 Zn 0.15034 0.45132 0.41321   1.102695
 Zn 0.34966 0.95132 0.58679   1.102695
 Zn 0.15034 0.45132 0.08679   1.102695
 Zn 0.34966 0.95132 0.91321   1.102695
 Zn 0.84966 0.54868 0.58679   1.102695
 Zn 0.65034 0.04868 0.41321   1.102695
 Cd 0.5 0.5 0.0   1.214092
 Cd 0.0 0.0 0.0   1.214092
 Cd 0.5 0.5 0.5   1.214092
 Cd 0.0 0.0 0.5   1.214092
 H 0.7717 0.2939 0.0257   0.109715
 H 0.9887 0.3337 0.8711   0.097685
 H 0.9119 0.1327 0.9214   0.098761
 H 0.9261 0.1951 0.8045   0.115921
 H 0.1076 0.2384 0.8127   0.116468
 H 0.0953 0.1596 0.8342   0.120184
 H 0.19 0.4498 0.8358   0.103453
 H 0.8905 0.4396 0.7753   0.113596
 H 0.7283 0.7939 0.9743   0.109715
 H 0.5113 0.8337 0.1289   0.097685
 H 0.5881 0.6327 0.0786   0.098761
 H 0.5739 0.6951 0.1955   0.115921
 H 0.3924 0.7384 0.1873   0.116468
 H 0.4047 0.6596 0.1658   0.120184
 H 0.31 0.9498 0.1642   0.103453
 H 0.6095 0.9396 0.2247   0.113596
 H 0.2283 0.7061 0.5257   0.109715
 H 0.0113 0.6663 0.3711   0.097685
 H 0.0881 0.8673 0.4214   0.098761
 H 0.0739 0.8049 0.3045   0.115921
 H 0.8924 0.7616 0.3127   0.116468
 H 0.9047 0.8404 0.3342   0.120184
 H 0.81 0.5502 0.3358   0.103453
 H 0.1095 0.5604 0.2753   0.113596
 H 0.2717 0.2061 0.4743   0.109715
 H 0.4887 0.1663 0.6289   0.097685
 H 0.4119 0.3673 0.5786   0.098761
 H 0.4261 0.3049 0.6955   0.115921
 H 0.6076 0.2616 0.6873   0.116468
 H 0.5953 0.3404 0.6658   0.120184
 H 0.69 0.0502 0.6642   0.103453
 H 0.3905 0.0604 0.7247   0.113596
 H 0.2283 0.7061 0.9743   0.109715
 H 0.0113 0.6663 0.1289   0.097685
 H 0.0881 0.8673 0.0786   0.098761
 H 0.0739 0.8049 0.1955   0.11592
 H 0.8924 0.7616 0.1873   0.116467
 H 0.9047 0.8404 0.1658   0.120184
 H 0.81 0.5502 0.1642   0.103453
 H 0.1095 0.5604 0.2247   0.113596
 H 0.2717 0.2061 0.0257   0.109715
 H 0.4887 0.1663 0.8711   0.097685
 H 0.4119 0.3673 0.9214   0.098761
 H 0.4261 0.3049 0.8045   0.11592
 H 0.6076 0.2616 0.8127   0.116467
 H 0.5953 0.3404 0.8342   0.120184
 H 0.69 0.0502 0.8358   0.103453
 H 0.3905 0.0604 0.7753   0.113596
 H 0.7717 0.2939 0.4743   0.109715
 H 0.9887 0.3337 0.6289   0.097685
 H 0.9119 0.1327 0.5786   0.098761
 H 0.9261 0.1951 0.6955   0.11592
 H 0.1076 0.2384 0.6873   0.116467
 H 0.0953 0.1596 0.6658   0.120184
 H 0.19 0.4498 0.6642   0.103453
 H 0.8905 0.4396 0.7247   0.113596
 H 0.7283 0.7939 0.5257   0.109715
 H 0.5113 0.8337 0.3711   0.097685
 H 0.5881 0.6327 0.4214   0.098761
 H 0.5739 0.6951 0.3045   0.11592
 H 0.3924 0.7384 0.3127   0.116467
 H 0.4047 0.6596 0.3342   0.120184
 H 0.31 0.9498 0.3358   0.103453
 H 0.6095 0.9396 0.2753   0.113596
 H 0.6173 0.531 0.75   0.109291
 H 0.8827 0.031 0.25   0.109291
 H 0.3827 0.469 0.25   0.109291
 H 0.1173 0.969 0.75   0.109291
 C 0.8204 0.27772 0.99131   0.007541
 C 0.8732 0.32588 0.94966   -0.16623
 C 0.9477 0.30118 0.8982   -0.071465
 C 0.8347 0.40385 0.95748   0.707314
 C 0.7798 0.1549 0.02685   0.681328
 C 0.8405 0.20488 0.98165   -0.141886
 C 0.9057 0.18126 0.92872   -0.068526
 C 0.9614 0.229 0.88692   0.093872
 C 0.0288 0.20315 0.82933   -0.351956
 C 0.516 0.51001 0.85656   0.716738
 C 0.4193 0.49255 0.80151   -0.163274
 C 0.2467 0.46073 0.80122   -0.049627
 C 0.6796 0.77772 0.00869   0.007541
 C 0.6268 0.82588 0.05034   -0.16623
 C 0.5523 0.80118 0.1018   -0.071465
 C 0.6653 0.90385 0.04252   0.707314
 C 0.7202 0.6549 0.97315   0.681328
 C 0.6595 0.70488 0.01835   -0.141886
 C 0.5943 0.68126 0.07128   -0.068526
 C 0.5386 0.729 0.11308   0.093872
 C 0.4712 0.70315 0.17067   -0.351956
 C 0.984 0.01001 0.14344   0.716738
 C 0.0807 0.99255 0.19849   -0.163274
 C 0.2533 0.96073 0.19878   -0.049627
 C 0.1796 0.72228 0.49131   0.007541
 C 0.1268 0.67412 0.44966   -0.16623
 C 0.0523 0.69882 0.3982   -0.071465
 C 0.1653 0.59615 0.45748   0.707314
 C 0.2202 0.8451 0.52685   0.681328
 C 0.1595 0.79512 0.48165   -0.141886
 C 0.0943 0.81874 0.42872   -0.068526
 C 0.0386 0.771 0.38692   0.093872
 C 0.9712 0.79685 0.32933   -0.351956
 C 0.484 0.48999 0.35656   0.716738
 C 0.5807 0.50745 0.30151   -0.163274
 C 0.7533 0.53927 0.30122   -0.049627
 C 0.3204 0.22228 0.50869   0.007541
 C 0.3732 0.17412 0.55034   -0.16623
 C 0.4477 0.19882 0.6018   -0.071465
 C 0.3347 0.09615 0.54252   0.707314
 C 0.2798 0.3451 0.47315   0.681328
 C 0.3405 0.29512 0.51835   -0.141886
 C 0.4057 0.31874 0.57128   -0.068526
 C 0.4614 0.271 0.61308   0.093872
 C 0.5288 0.29685 0.67067   -0.351956
 C 0.016 0.98999 0.64344   0.716738
 C 0.9193 0.00745 0.69849   -0.163274
 C 0.7467 0.03927 0.69878   -0.049627
 C 0.1796 0.72228 0.00869   0.007541
 C 0.1268 0.67412 0.05034   -0.16623
 C 0.0523 0.69882 0.1018   -0.071465
 C 0.1653 0.59615 0.04252   0.707314
 C 0.2202 0.8451 0.97315   0.681328
 C 0.1595 0.79512 0.01835   -0.141886
 C 0.0943 0.81874 0.07128   -0.068526
 C 0.0386 0.771 0.11308   0.093872
 C 0.9712 0.79685 0.17067   -0.351956
 C 0.484 0.48999 0.14344   0.716738
 C 0.5807 0.50745 0.19849   -0.163274
 C 0.7533 0.53927 0.19878   -0.049627
 C 0.3204 0.22228 0.99131   0.007541
 C 0.3732 0.17412 0.94966   -0.16623
 C 0.4477 0.19882 0.8982   -0.071465
 C 0.3347 0.09615 0.95748   0.707314
 C 0.2798 0.3451 0.02685   0.681328
 C 0.3405 0.29512 0.98165   -0.141886
 C 0.4057 0.31874 0.92872   -0.068526
 C 0.4614 0.271 0.88692   0.093872
 C 0.5288 0.29685 0.82933   -0.351956
 C 0.016 0.98999 0.85656   0.716738
 C 0.9193 0.00745 0.80151   -0.163274
 C 0.7467 0.03927 0.80122   -0.049627
 C 0.8204 0.27772 0.50869   0.007541
 C 0.8732 0.32588 0.55034   -0.16623
 C 0.9477 0.30118 0.6018   -0.071465
 C 0.8347 0.40385 0.54252   0.707314
 C 0.7798 0.1549 0.47315   0.681328
 C 0.8405 0.20488 0.51835   -0.141886
 C 0.9057 0.18126 0.57128   -0.068526
 C 0.9614 0.229 0.61308   0.093872
 C 0.0288 0.20315 0.67067   -0.351956
 C 0.516 0.51001 0.64344   0.716738
 C 0.4193 0.49255 0.69849   -0.163274
 C 0.2467 0.46073 0.69878   -0.049627
 C 0.6796 0.77772 0.49131   0.007541
 C 0.6268 0.82588 0.44966   -0.16623
 C 0.5523 0.80118 0.3982   -0.071465
 C 0.6653 0.90385 0.45748   0.707314
 C 0.7202 0.6549 0.52685   0.681328
 C 0.6595 0.70488 0.48165   -0.141886
 C 0.5943 0.68126 0.42872   -0.068526
 C 0.5386 0.729 0.38692   0.093872
 C 0.4712 0.70315 0.32933   -0.351956
 C 0.984 0.01001 0.35656   0.716738
 C 0.0807 0.99255 0.30151   -0.163274
 C 0.2533 0.96073 0.30122   -0.049627
 C 0.5035 0.5089 0.75   0.030292
 C 0.1587 0.4452 0.75   0.071902
 C 0.968 0.413 0.75   -0.300196
 C 0.9965 0.0089 0.25   0.030292
 C 0.3413 0.9452 0.25   0.071902
 C 0.532 0.913 0.25   -0.300196
 C 0.4965 0.4911 0.25   0.030292
 C 0.8413 0.5548 0.25   0.071902
 C 0.032 0.587 0.25   -0.300196
 C 0.0035 0.9911 0.75   0.030292
 C 0.6587 0.0548 0.75   0.071902
 C 0.468 0.087 0.75   -0.300196
 O 0.7271 0.42107 0.99695   -0.635355
 O 0.9072 0.4463 0.92265   -0.616186
 O 0.7734 0.08713 0.01563   -0.698397
 O 0.7305 0.17657 0.07432   -0.538396
 O 0.4402 0.496 0.90294   -0.612108
 O 0.673 0.53781 0.85084   -0.634557
 O 0.7729 0.92107 0.00305   -0.635355
 O 0.5928 0.9463 0.07735   -0.616186
 O 0.7266 0.58713 0.98437   -0.698397
 O 0.7695 0.67657 0.92568   -0.538396
 O 0.0598 0.996 0.09706   -0.612108
 O 0.827 0.03781 0.14916   -0.634557
 O 0.2729 0.57893 0.49695   -0.635355
 O 0.0928 0.5537 0.42265   -0.616186
 O 0.2266 0.91287 0.51563   -0.698397
 O 0.2695 0.82343 0.57432   -0.538396
 O 0.5598 0.504 0.40294   -0.612108
 O 0.327 0.46219 0.35084   -0.634557
 O 0.2271 0.07893 0.50305   -0.635355
 O 0.4072 0.0537 0.57735   -0.616186
 O 0.2734 0.41287 0.48437   -0.698397
 O 0.2305 0.32343 0.42568   -0.538396
 O 0.9402 0.004 0.59706   -0.612108
 O 0.173 0.96219 0.64916   -0.634557
 O 0.2729 0.57893 0.00305   -0.635355
 O 0.0928 0.5537 0.07735   -0.616186
 O 0.2266 0.91287 0.98437   -0.698397
 O 0.2695 0.82343 0.92568   -0.538397
 O 0.5598 0.504 0.09706   -0.612108
 O 0.327 0.46219 0.14916   -0.634557
 O 0.2271 0.07893 0.99695   -0.635355
 O 0.4072 0.0537 0.92265   -0.616186
 O 0.2734 0.41287 0.01563   -0.698397
 O 0.2305 0.32343 0.07432   -0.538397
 O 0.9402 0.004 0.90294   -0.612108
 O 0.173 0.96219 0.85084   -0.634557
 O 0.7271 0.42107 0.50305   -0.635355
 O 0.9072 0.4463 0.57735   -0.616186
 O 0.7734 0.08713 0.48437   -0.698397
 O 0.7305 0.17657 0.42568   -0.538397
 O 0.4402 0.496 0.59706   -0.612108
 O 0.673 0.53781 0.64916   -0.634557
 O 0.7729 0.92107 0.49695   -0.635355
 O 0.5928 0.9463 0.42265   -0.616186
 O 0.7266 0.58713 0.51563   -0.698397
 O 0.7695 0.67657 0.57432   -0.538397
 O 0.0598 0.996 0.40294   -0.612108
 O 0.827 0.03781 0.35084   -0.634557
