{'_ref': 'TBD', '_srcid': 'CAKYAQ_clean', 'submitters': [{'name': 'Dalar Nazarian Jeff Camp and David Sholl', 'email': 'dalar@gatech.edu jcamp6@gatech.edu'}], '_method': 'VASP DFT with PBE;DDEC'}
data_CaZn2H17(C9O4)3
_symmetry_space_group_name_H-M   'P 1'
_cell_length_a   7.35850000
_cell_length_b   18.70290000
_cell_length_c   23.59650000
_cell_angle_alpha   90.00000000
_cell_angle_beta   90.00000000
_cell_angle_gamma   90.00000000
_symmetry_Int_Tables_number   1
_chemical_formula_structural   CaZn2H17(C9O4)3
_chemical_formula_sum   'Ca4 Zn8 H68 C108 O48'
_cell_volume   3247.47514723
_cell_formula_units_Z   4
loop_
 _symmetry_equiv_pos_site_id
 _symmetry_equiv_pos_as_xyz
  1  'x, y, z'
loop_
 _atom_site_label
 _atom_site_fract_x
 _atom_site_fract_y
 _atom_site_fract_z
 _atom_site_charge
 Ca 0.5 0.5 0.0   1.562171
 Ca 0.0 0.0 0.0   1.562171
 Ca 0.5 0.5 0.5   1.562171
 Ca 0.0 0.0 0.5   1.562171
 Zn 0.858 0.54915 0.91328   1.099905
 Zn 0.642 0.04915 0.08672   1.099905
 Zn 0.142 0.45085 0.41328   1.099905
 Zn 0.358 0.95085 0.58672   1.099905
 Zn 0.142 0.45085 0.08672   1.099905
 Zn 0.358 0.95085 0.91328   1.099905
 Zn 0.858 0.54915 0.58672   1.099905
 Zn 0.642 0.04915 0.41328   1.099905
 H 0.7738 0.2968 0.0224   0.108415
 H 0.9974 0.3309 0.8698   0.099484
 H 0.9057 0.1306 0.9227   0.094315
 H 0.929 0.1884 0.8065   0.116974
 H 0.1084 0.2326 0.8136   0.117798
 H 0.0972 0.1544 0.8371   0.121512
 H 0.2043 0.455 0.835   0.103005
 H 0.9073 0.4435 0.7752   0.116438
 H 0.7262 0.7968 0.9776   0.108415
 H 0.5026 0.8309 0.1302   0.099484
 H 0.5943 0.6306 0.0773   0.094315
 H 0.571 0.6884 0.1935   0.116974
 H 0.3916 0.7326 0.1864   0.117798
 H 0.4028 0.6544 0.1629   0.121512
 H 0.2957 0.955 0.165   0.103005
 H 0.5927 0.9435 0.2248   0.116438
 H 0.2262 0.7032 0.5224   0.108415
 H 0.0026 0.6691 0.3698   0.099484
 H 0.0943 0.8694 0.4227   0.094315
 H 0.071 0.8116 0.3065   0.116974
 H 0.8916 0.7674 0.3136   0.117798
 H 0.9028 0.8456 0.3371   0.121512
 H 0.7957 0.545 0.335   0.103005
 H 0.0927 0.5565 0.2752   0.116438
 H 0.2738 0.2032 0.4776   0.108415
 H 0.4974 0.1691 0.6302   0.099484
 H 0.4057 0.3694 0.5773   0.094315
 H 0.429 0.3116 0.6935   0.116974
 H 0.6084 0.2674 0.6864   0.117798
 H 0.5972 0.3456 0.6629   0.121512
 H 0.7043 0.045 0.665   0.103005
 H 0.4073 0.0565 0.7248   0.116438
 H 0.2262 0.7032 0.9776   0.108415
 H 0.0026 0.6691 0.1302   0.099484
 H 0.0943 0.8694 0.0773   0.094315
 H 0.071 0.8116 0.1935   0.116974
 H 0.8916 0.7674 0.1864   0.117797
 H 0.9028 0.8456 0.1629   0.121512
 H 0.7957 0.545 0.165   0.103005
 H 0.0927 0.5565 0.2248   0.116438
 H 0.2738 0.2032 0.0224   0.108415
 H 0.4974 0.1691 0.8698   0.099484
 H 0.4057 0.3694 0.9227   0.094315
 H 0.429 0.3116 0.8065   0.116974
 H 0.6084 0.2674 0.8136   0.117797
 H 0.5972 0.3456 0.8371   0.121512
 H 0.7043 0.045 0.835   0.103005
 H 0.4073 0.0565 0.7752   0.116438
 H 0.7738 0.2968 0.4776   0.108415
 H 0.9974 0.3309 0.6302   0.099484
 H 0.9057 0.1306 0.5773   0.094315
 H 0.929 0.1884 0.6935   0.116974
 H 0.1084 0.2326 0.6864   0.117797
 H 0.0972 0.1544 0.6629   0.121512
 H 0.2043 0.455 0.665   0.103005
 H 0.9073 0.4435 0.7248   0.116438
 H 0.7262 0.7968 0.5224   0.108415
 H 0.5026 0.8309 0.3698   0.099484
 H 0.5943 0.6306 0.4227   0.094315
 H 0.571 0.6884 0.3065   0.116974
 H 0.3916 0.7326 0.3136   0.117797
 H 0.4028 0.6544 0.3371   0.121512
 H 0.2957 0.955 0.335   0.103005
 H 0.5927 0.9435 0.2752   0.116438
 H 0.6309 0.5343 0.75   0.107002
 H 0.8691 0.0343 0.25   0.107002
 H 0.3691 0.4657 0.25   0.107002
 H 0.1309 0.9657 0.75   0.107002
 C 0.8219 0.27914 0.98873   0.009777
 C 0.8793 0.32587 0.94707   -0.16662
 C 0.9535 0.2992 0.89692   -0.075665
 C 0.8483 0.4048 0.95424   0.723599
 C 0.7717 0.157 0.02649   0.695775
 C 0.836 0.20552 0.98042   -0.146593
 C 0.902 0.17961 0.92902   -0.070559
 C 0.9626 0.2261 0.88699   0.096505
 C 0.0305 0.1978 0.83092   -0.353265
 C 0.5293 0.51385 0.85533   0.737523
 C 0.4326 0.49724 0.80098   -0.171373
 C 0.2607 0.4657 0.8007   -0.043292
 C 0.6781 0.77914 0.01127   0.009777
 C 0.6207 0.82587 0.05293   -0.16662
 C 0.5465 0.7992 0.10308   -0.075665
 C 0.6517 0.9048 0.04576   0.723599
 C 0.7283 0.657 0.97351   0.695775
 C 0.664 0.70552 0.01958   -0.146593
 C 0.598 0.67961 0.07098   -0.070559
 C 0.5374 0.7261 0.11301   0.096505
 C 0.4695 0.6978 0.16908   -0.353265
 C 0.9707 0.01385 0.14467   0.737523
 C 0.0674 0.99724 0.19902   -0.171373
 C 0.2393 0.9657 0.1993   -0.043292
 C 0.1781 0.72086 0.48873   0.009777
 C 0.1207 0.67413 0.44707   -0.16662
 C 0.0465 0.7008 0.39692   -0.075665
 C 0.1517 0.5952 0.45424   0.723599
 C 0.2283 0.843 0.52649   0.695775
 C 0.164 0.79448 0.48042   -0.146593
 C 0.098 0.82039 0.42902   -0.070559
 C 0.0374 0.7739 0.38699   0.096505
 C 0.9695 0.8022 0.33092   -0.353265
 C 0.4707 0.48615 0.35533   0.737523
 C 0.5674 0.50276 0.30098   -0.171373
 C 0.7393 0.5343 0.3007   -0.043292
 C 0.3219 0.22086 0.51127   0.009777
 C 0.3793 0.17413 0.55293   -0.16662
 C 0.4535 0.2008 0.60308   -0.075665
 C 0.3483 0.0952 0.54576   0.723599
 C 0.2717 0.343 0.47351   0.695775
 C 0.336 0.29448 0.51958   -0.146593
 C 0.402 0.32039 0.57098   -0.070559
 C 0.4626 0.2739 0.61301   0.096505
 C 0.5305 0.3022 0.66908   -0.353265
 C 0.0293 0.98615 0.64467   0.737523
 C 0.9326 0.00276 0.69902   -0.171373
 C 0.7607 0.0343 0.6993   -0.043292
 C 0.1781 0.72086 0.01127   0.009777
 C 0.1207 0.67413 0.05293   -0.16662
 C 0.0465 0.7008 0.10308   -0.075665
 C 0.1517 0.5952 0.04576   0.723599
 C 0.2283 0.843 0.97351   0.695775
 C 0.164 0.79448 0.01958   -0.146593
 C 0.098 0.82039 0.07098   -0.070559
 C 0.0374 0.7739 0.11301   0.096505
 C 0.9695 0.8022 0.16908   -0.353265
 C 0.4707 0.48615 0.14467   0.737523
 C 0.5674 0.50276 0.19902   -0.171373
 C 0.7393 0.5343 0.1993   -0.043292
 C 0.3219 0.22086 0.98873   0.009777
 C 0.3793 0.17413 0.94707   -0.16662
 C 0.4535 0.2008 0.89692   -0.075665
 C 0.3483 0.0952 0.95424   0.723599
 C 0.2717 0.343 0.02649   0.695775
 C 0.336 0.29448 0.98042   -0.146593
 C 0.402 0.32039 0.92902   -0.070559
 C 0.4626 0.2739 0.88699   0.096505
 C 0.5305 0.3022 0.83092   -0.353265
 C 0.0293 0.98615 0.85533   0.737523
 C 0.9326 0.00276 0.80098   -0.171373
 C 0.7607 0.0343 0.8007   -0.043292
 C 0.8219 0.27914 0.51127   0.009777
 C 0.8793 0.32587 0.55293   -0.16662
 C 0.9535 0.2992 0.60308   -0.075665
 C 0.8483 0.4048 0.54576   0.723599
 C 0.7717 0.157 0.47351   0.695775
 C 0.836 0.20552 0.51958   -0.146593
 C 0.902 0.17961 0.57098   -0.070559
 C 0.9626 0.2261 0.61301   0.096505
 C 0.0305 0.1978 0.66908   -0.353265
 C 0.5293 0.51385 0.64467   0.737523
 C 0.4326 0.49724 0.69902   -0.171373
 C 0.2607 0.4657 0.6993   -0.043292
 C 0.6781 0.77914 0.48873   0.009777
 C 0.6207 0.82587 0.44707   -0.16662
 C 0.5465 0.7992 0.39692   -0.075665
 C 0.6517 0.9048 0.45424   0.723599
 C 0.7283 0.657 0.52649   0.695775
 C 0.664 0.70552 0.48042   -0.146593
 C 0.598 0.67961 0.42902   -0.070559
 C 0.5374 0.7261 0.38699   0.096505
 C 0.4695 0.6978 0.33092   -0.353265
 C 0.9707 0.01385 0.35533   0.737523
 C 0.0674 0.99724 0.30098   -0.171373
 C 0.2393 0.9657 0.3007   -0.043292
 C 0.5167 0.5129 0.75   0.036913
 C 0.1717 0.4497 0.75   0.071095
 C 0.9846 0.4171 0.75   -0.30743
 C 0.9833 0.0129 0.25   0.036913
 C 0.3283 0.9497 0.25   0.071095
 C 0.5154 0.9171 0.25   -0.30743
 C 0.4833 0.4871 0.25   0.036913
 C 0.8283 0.5503 0.25   0.071095
 C 0.0154 0.5829 0.25   -0.30743
 C 0.0167 0.9871 0.75   0.036913
 C 0.6717 0.0503 0.75   0.071095
 C 0.4846 0.0829 0.75   -0.30743
 O 0.7448 0.42513 0.99269   -0.70672
 O 0.9261 0.44661 0.91943   -0.620493
 O 0.7732 0.0885 0.01777   -0.754455
 O 0.714 0.18102 0.07176   -0.542644
 O 0.4551 0.50032 0.90172   -0.689098
 O 0.6865 0.54102 0.85009   -0.635122
 O 0.7552 0.92513 0.00731   -0.70672
 O 0.5739 0.94661 0.08057   -0.620493
 O 0.7268 0.5885 0.98223   -0.754455
 O 0.786 0.68102 0.92824   -0.542644
 O 0.0449 0.000320000000002 0.09828   -0.689098
 O 0.8135 0.04102 0.14991   -0.635122
 O 0.2552 0.57487 0.49269   -0.70672
 O 0.0739 0.55339 0.41943   -0.620493
 O 0.2268 0.9115 0.51777   -0.754455
 O 0.286 0.81898 0.57176   -0.542644
 O 0.5449 0.49968 0.40172   -0.689098
 O 0.3135 0.45898 0.35009   -0.635122
 O 0.2448 0.07487 0.50731   -0.70672
 O 0.4261 0.05339 0.58057   -0.620493
 O 0.2732 0.4115 0.48223   -0.754455
 O 0.214 0.31898 0.42824   -0.542644
 O 0.9551 0.99968 0.59828   -0.689098
 O 0.1865 0.95898 0.64991   -0.635122
 O 0.2552 0.57487 0.00731   -0.70672
 O 0.0739 0.55339 0.08057   -0.620493
 O 0.2268 0.9115 0.98223   -0.754455
 O 0.286 0.81898 0.92824   -0.542644
 O 0.5449 0.49968 0.09828   -0.689098
 O 0.3135 0.45898 0.14991   -0.635122
 O 0.2448 0.07487 0.99269   -0.70672
 O 0.4261 0.05339 0.91943   -0.620493
 O 0.2732 0.4115 0.01777   -0.754455
 O 0.214 0.31898 0.07176   -0.542644
 O 0.9551 0.99968 0.90172   -0.689098
 O 0.1865 0.95898 0.85009   -0.635122
 O 0.7448 0.42513 0.50731   -0.70672
 O 0.9261 0.44661 0.58057   -0.620493
 O 0.7732 0.0885 0.48223   -0.754455
 O 0.714 0.18102 0.42824   -0.542644
 O 0.4551 0.50032 0.59828   -0.689098
 O 0.6865 0.54102 0.64991   -0.635122
 O 0.7552 0.92513 0.49269   -0.70672
 O 0.5739 0.94661 0.41943   -0.620493
 O 0.7268 0.5885 0.51777   -0.754455
 O 0.786 0.68102 0.57176   -0.542644
 O 0.0449 0.000320000000002 0.40172   -0.689098
 O 0.8135 0.04102 0.35009   -0.635122
