{'_ref': 'TBD', '_srcid': 'CAKYAQ_clean', 'submitters': [{'name': 'Dalar Nazarian Jeff Camp and David Sholl', 'email': 'dalar@gatech.edu jcamp6@gatech.edu'}], '_method': 'VASP DFT with PBE;DDEC'}
data_Co3H2(C4O5)2
_symmetry_space_group_name_H-M   'P 1'
_cell_length_a   5.49400009
_cell_length_b   7.93159996
_cell_length_c   7.93160000
_cell_angle_alpha   108.47300159
_cell_angle_beta   90.40030198
_cell_angle_gamma   90.40029750
_symmetry_Int_Tables_number   1
_chemical_formula_structural   Co3H2(C4O5)2
_chemical_formula_sum   'Co3 H2 C8 O10'
_cell_volume   327.796444195
_cell_formula_units_Z   1
loop_
 _symmetry_equiv_pos_site_id
 _symmetry_equiv_pos_as_xyz
  1  'x, y, z'
loop_
 _atom_site_label
 _atom_site_fract_x
 _atom_site_fract_y
 _atom_site_fract_z
 _atom_site_charge
 Co 0.5 0.0 0.0   1.086162
 Co 0.0 0.88011 0.11989   1.076323
 Co 0.0 0.11989 0.88011   1.076327
 H 0.144 0.808 0.808   0.480544
 H 0.856 0.192 0.192   0.480553
 C 0.4246 0.0085 0.3839   0.223806
 C 0.6584 0.9478 0.4326   0.199715
 C 0.5754 0.6161 0.9915   0.223804
 C 0.3416 0.5674 0.0522   0.199715
 C 0.5754 0.9915 0.6161   0.223829
 C 0.3416 0.0522 0.5674   0.19973
 C 0.4246 0.3839 0.0085   0.223827
 C 0.6584 0.4326 0.9478   0.199728
 O 0.329 0.02001 0.24299   -0.511313
 O 0.8501 0.88186 0.35614   -0.457534
 O 0.671 0.75701 0.97999   -0.511313
 O 0.1499 0.64386 0.11814   -0.457533
 O 0.671 0.97999 0.75701   -0.511316
 O 0.1499 0.11814 0.64386   -0.457539
 O 0.329 0.24299 0.02001   -0.511316
 O 0.8501 0.35614 0.88186   -0.457537
 O 0.1744 0.897 0.897   -1.009328
 O 0.8256 0.103 0.103   -1.009332
