{'_ref': 'TBD', '_srcid': 'CAKYAQ_clean', 'submitters': [{'name': 'Dalar Nazarian Jeff Camp and David Sholl', 'email': 'dalar@gatech.edu jcamp6@gatech.edu'}], '_method': 'VASP DFT with PBE;DDEC'}
data_Cd3H6(C2O3)4
_symmetry_space_group_name_H-M   'P 1'
_cell_length_a   9.44170000
_cell_length_b   13.70050000
_cell_length_c   15.65230000
_cell_angle_alpha   90.00000000
_cell_angle_beta   90.00000000
_cell_angle_gamma   90.00000000
_symmetry_Int_Tables_number   1
_chemical_formula_structural   Cd3H6(C2O3)4
_chemical_formula_sum   'Cd12 H24 C32 O48'
_cell_volume   2024.71908863
_cell_formula_units_Z   4
loop_
 _symmetry_equiv_pos_site_id
 _symmetry_equiv_pos_as_xyz
  1  'x, y, z'
loop_
 _atom_site_label
 _atom_site_fract_x
 _atom_site_fract_y
 _atom_site_fract_z
 _atom_site_charge
 Cd 0.60374 0.86779 0.50267   1.095706
 Cd 0.86587 0.99871 0.38738   1.095141
 Cd 0.79141 0.73167 0.77736   1.121438
 Cd 0.60374 0.13221 0.49733   1.095706
 Cd 0.86587 0.00129 0.61262   1.095143
 Cd 0.79141 0.26833 0.22264   1.121439
 Cd 0.39626 0.63221 0.00267   1.095705
 Cd 0.13413 0.50129 0.88738   1.095141
 Cd 0.20859 0.76833 0.27736   1.121439
 Cd 0.39626 0.36779 0.99733   1.095706
 Cd 0.13413 0.49871 0.11262   1.095143
 Cd 0.20859 0.23167 0.72264   1.121439
 H 0.666 0.681 0.45   0.433502
 H 0.809 0.911 0.243   0.42166
 H 0.8915 0.6563 0.4908   0.111152
 H 0.0067 0.808 0.5378   0.092605
 H 0.5664 0.9635 0.2018   0.107217
 H 0.4747 0.0507 0.3287   0.089725
 H 0.666 0.319 0.55   0.433502
 H 0.809 0.089 0.757   0.42166
 H 0.8915 0.3437 0.5092   0.111151
 H 0.0067 0.192 0.4622   0.092605
 H 0.5664 0.0365 0.7982   0.107216
 H 0.4747 0.9493 0.6713   0.089725
 H 0.334 0.819 0.95   0.433502
 H 0.191 0.589 0.743   0.42166
 H 0.1085 0.8437 0.9908   0.111151
 H 0.9933 0.692 0.0378   0.092605
 H 0.4336 0.5365 0.7018   0.107216
 H 0.5253 0.4493 0.8287   0.089725
 H 0.334 0.181 0.05   0.433502
 H 0.191 0.411 0.257   0.42166
 H 0.1085 0.1563 0.0092   0.111151
 H 0.9933 0.308 0.9622   0.092605
 H 0.4336 0.4635 0.2982   0.107216
 H 0.5253 0.5507 0.1713   0.089726
 C 0.7882 0.7207 0.5955   0.603528
 C 0.8381 0.7178 0.5027   0.033579
 C 0.9348 0.8083 0.4908   0.0971
 C 0.0125 0.7995 0.4069   0.616703
 C 0.6959 0.0808 0.2391   0.603089
 C 0.626 0.9815 0.2522   0.063255
 C 0.534 0.9906 0.3343   0.08326
 C 0.4348 0.9035 0.3375   0.642437
 C 0.7882 0.2793 0.4045   0.603528
 C 0.8381 0.2822 0.4973   0.033579
 C 0.9348 0.1917 0.5092   0.0971
 C 0.0125 0.2005 0.5931   0.616703
 C 0.6959 0.9192 0.7609   0.603089
 C 0.626 0.0185 0.7478   0.063255
 C 0.534 0.0094 0.6657   0.08326
 C 0.4348 0.0965 0.6625   0.642437
 C 0.2118 0.7793 0.0955   0.603528
 C 0.1619 0.7822 0.0027   0.033579
 C 0.0652 0.6917 0.9908   0.0971
 C 0.9875 0.7005 0.9069   0.616703
 C 0.3041 0.4192 0.7391   0.603089
 C 0.374 0.5185 0.7522   0.063256
 C 0.466 0.5094 0.8343   0.08326
 C 0.5652 0.5965 0.8375   0.642437
 C 0.2118 0.2207 0.9045   0.603528
 C 0.1619 0.2178 0.9973   0.033579
 C 0.0652 0.3083 0.0092   0.0971
 C 0.9875 0.2995 0.0931   0.616703
 C 0.3041 0.5808 0.2609   0.603089
 C 0.374 0.4815 0.2478   0.063256
 C 0.466 0.4906 0.1657   0.08326
 C 0.5652 0.4035 0.1625   0.642437
 O 0.6749 0.7603 0.6141   -0.590655
 O 0.8761 0.6896 0.6515   -0.598103
 O 0.7236 0.7281 0.4457   -0.537974
 O 0.8538 0.8926 0.4989   -0.727781
 O 0.0036 0.8644 0.3503   -0.602231
 O 0.0917 0.725 0.3964   -0.576511
 O 0.8181 0.0956 0.2692   -0.620235
 O 0.6268 0.1455 0.2   -0.559428
 O 0.7296 0.9085 0.269   -0.571545
 O 0.6168 0.000799999999998 0.4066   -0.730902
 O 0.4417 0.8421 0.3965   -0.592639
 O 0.3449 0.8993 0.2775   -0.603093
 O 0.6749 0.2397 0.3859   -0.590655
 O 0.8761 0.3104 0.3485   -0.598103
 O 0.7236 0.2719 0.5543   -0.537974
 O 0.8538 0.1074 0.5011   -0.727781
 O 0.0036 0.1356 0.6497   -0.602232
 O 0.0917 0.275 0.6036   -0.576511
 O 0.8181 0.9044 0.7308   -0.620235
 O 0.6268 0.8545 0.8   -0.559428
 O 0.7296 0.0915 0.731   -0.571545
 O 0.6168 0.9992 0.5934   -0.730902
 O 0.4417 0.1579 0.6035   -0.592639
 O 0.3449 0.1007 0.7225   -0.603093
 O 0.3251 0.7397 0.1141   -0.590655
 O 0.1239 0.8104 0.1515   -0.598103
 O 0.2764 0.7719 0.9457   -0.537974
 O 0.1462 0.6074 0.9989   -0.727781
 O 0.9964 0.6356 0.8503   -0.602231
 O 0.9083 0.775 0.8964   -0.576511
 O 0.1819 0.4044 0.7692   -0.620235
 O 0.3732 0.3545 0.7   -0.559428
 O 0.2704 0.5915 0.769   -0.571545
 O 0.3832 0.4992 0.9066   -0.730902
 O 0.5583 0.6579 0.8965   -0.592639
 O 0.6551 0.6007 0.7775   -0.603093
 O 0.3251 0.2603 0.8859   -0.590655
 O 0.1239 0.1896 0.8485   -0.598103
 O 0.2764 0.2281 0.0543   -0.537974
 O 0.1462 0.3926 0.0011   -0.727781
 O 0.9964 0.3644 0.1497   -0.602232
 O 0.9083 0.225 0.1036   -0.576511
 O 0.1819 0.5956 0.2308   -0.620235
 O 0.3732 0.6455 0.3   -0.559428
 O 0.2704 0.4085 0.231   -0.571545
 O 0.3832 0.5008 0.0934   -0.730902
 O 0.5583 0.3421 0.1035   -0.592639
 O 0.6551 0.3993 0.2225   -0.603093
