{'_ref': 'TBD', '_srcid': 'CAKYAQ_clean', 'submitters': [{'name': 'Dalar Nazarian Jeff Camp and David Sholl', 'email': 'dalar@gatech.edu jcamp6@gatech.edu'}], '_method': 'VASP DFT with PBE;DDEC'}
data_Co3H26C40(N5O4)2
_symmetry_space_group_name_H-M   'P 1'
_cell_length_a   11.44819985
_cell_length_b   11.54079996
_cell_length_c   11.76630000
_cell_angle_alpha   65.36999988
_cell_angle_beta   80.53999886
_cell_angle_gamma   72.75899764
_symmetry_Int_Tables_number   1
_chemical_formula_structural   Co3H26C40(N5O4)2
_chemical_formula_sum   'Co3 H26 C40 N10 O8'
_cell_volume   1348.14989252
_cell_formula_units_Z   1
loop_
 _symmetry_equiv_pos_site_id
 _symmetry_equiv_pos_as_xyz
  1  'x, y, z'
loop_
 _atom_site_label
 _atom_site_fract_x
 _atom_site_fract_y
 _atom_site_fract_z
 _atom_site_charge
 Co 0.5 0.0 0.5   0.549676
 Co 0.5 0.5 0.0   0.612182
 Co 0.5 0.5 0.5   0.990104
 H 0.545 0.1618 0.1779   0.087426
 H 0.7016 0.8743 0.7039   0.074285
 H 0.9096 0.7799 0.7201   0.112589
 H 0.9457 0.9418 0.3413   0.129968
 H 0.7369 0.03 0.3377   0.073032
 H 0.0767 0.6186 0.7038   0.1171
 H 0.2783 0.5032 0.693   0.082537
 H 0.3397 0.777 0.3692   0.095514
 H 0.141 0.9031 0.371   0.11139
 H 0.6576 0.6846 0.9776   0.084325
 H 0.8569 0.6919 0.9742   0.123292
 H 0.9619 0.3061 0.0377   0.119811
 H 0.7588 0.3086 0.0433   0.088029
 H 0.455 0.8382 0.8221   0.087427
 H 0.2984 0.1257 0.2961   0.074285
 H 0.0904 0.2201 0.2799   0.112589
 H 0.0543 0.0582 0.6587   0.129971
 H 0.2631 0.97 0.6623   0.073032
 H 0.9233 0.3814 0.2962   0.117099
 H 0.7217 0.4968 0.307   0.082537
 H 0.6603 0.223 0.6308   0.095516
 H 0.859 0.0969 0.629   0.111392
 H 0.3424 0.3154 0.0224   0.084326
 H 0.1431 0.3081 0.0258   0.123301
 H 0.0381 0.6939 0.9623   0.119821
 H 0.2412 0.6914 0.9567   0.08803
 C 0.5242 0.2164 0.2241   0.190675
 C 0.4778 0.2787 0.3781   -0.052933
 C 0.481 0.3878 0.2684   -0.037688
 C 0.447 0.2566 0.5116   0.630408
 C 0.4615 0.5316 0.2346   0.639949
 C 0.7519 0.8859 0.6292   0.155386
 C 0.8762 0.8288 0.6399   -0.213607
 C 0.9521 0.8438 0.5318   0.099046
 C 0.8973 0.9238 0.4175   -0.207109
 C 0.7726 0.9764 0.4163   0.161656
 C 0.0838 0.7741 0.5353   0.080937
 C 0.1286 0.653 0.6332   -0.213338
 C 0.249 0.5845 0.6256   0.181025
 C 0.285 0.7441 0.4374   0.180797
 C 0.1661 0.8199 0.4376   -0.205731
 C 0.7207 0.6061 0.9896   0.155817
 C 0.8399 0.6116 0.9867   -0.201068
 C 0.9344 0.5 0.0022   0.07361
 C 0.9007 0.3863 0.0243   -0.208918
 C 0.7792 0.3883 0.0271   0.143284
 C 0.4758 0.7836 0.7759   0.190675
 C 0.5222 0.7213 0.6219   -0.052934
 C 0.519 0.6122 0.7316   -0.037689
 C 0.553 0.7434 0.4884   0.630409
 C 0.5385 0.4684 0.7654   0.63995
 C 0.2481 0.1141 0.3708   0.155385
 C 0.1238 0.1712 0.3601   -0.213607
 C 0.0479 0.1562 0.4682   0.099045
 C 0.1027 0.0762 0.5825   -0.20711
 C 0.2274 0.0236 0.5837   0.161657
 C 0.9162 0.2259 0.4647   0.080937
 C 0.8714 0.347 0.3668   -0.213337
 C 0.751 0.4155 0.3744   0.181024
 C 0.715 0.2559 0.5626   0.180796
 C 0.8339 0.1801 0.5624   -0.205732
 C 0.2793 0.3939 0.0104   0.155818
 C 0.1601 0.3884 0.0133   -0.201074
 C 0.0656 0.5 0.9978   0.073627
 C 0.0993 0.6137 0.9757   -0.208923
 C 0.2208 0.6117 0.9729   0.143285
 N 0.5058 0.1707 0.348   -0.293459
 N 0.5104 0.3466 0.1713   -0.326353
 N 0.6984 0.9563 0.5199   -0.263085
 N 0.3266 0.6262 0.5289   -0.349975
 N 0.6889 0.4985 0.0078   -0.261868
 N 0.4942 0.8293 0.652   -0.293459
 N 0.4896 0.6534 0.8287   -0.326352
 N 0.3016 0.0437 0.4801   -0.263085
 N 0.6734 0.3738 0.4711   -0.349975
 N 0.3111 0.5015 0.9922   -0.261868
 O 0.4149 0.3505 0.5469   -0.579833
 O 0.4526 0.1378 0.5859   -0.525301
 O 0.4572 0.5776 0.3144   -0.5731
 O 0.4515 0.6035 0.1188   -0.55452
 O 0.5851 0.6495 0.4531   -0.579832
 O 0.5474 0.8622 0.4141   -0.525301
 O 0.5428 0.4224 0.6856   -0.573099
 O 0.5485 0.3965 0.8812   -0.55452
