{'_ref': 'TBD', '_srcid': 'CAKYAQ_clean', 'submitters': [{'name': 'Dalar Nazarian Jeff Camp and David Sholl', 'email': 'dalar@gatech.edu jcamp6@gatech.edu'}], '_method': 'VASP DFT with PBE;DDEC'}
data_CoH2(CO)4
_symmetry_space_group_name_H-M   'P 1'
_cell_length_a   7.49699977
_cell_length_b   7.73760003
_cell_length_c   7.73760000
_cell_angle_alpha   116.71999652
_cell_angle_beta   102.89200241
_cell_angle_gamma   102.89200219
_symmetry_Int_Tables_number   1
_chemical_formula_structural   CoH2(CO)4
_chemical_formula_sum   'Co2 H4 C8 O8'
_cell_volume   362.848445134
_cell_formula_units_Z   2
loop_
 _symmetry_equiv_pos_site_id
 _symmetry_equiv_pos_as_xyz
  1  'x, y, z'
loop_
 _atom_site_label
 _atom_site_fract_x
 _atom_site_fract_y
 _atom_site_fract_z
 _atom_site_charge
 Co 0.49958 0.85837 0.13712   1.069277
 Co 0.99958 0.13712 0.85837   1.069277
 H 0.2768 0.682 0.4752   0.142366
 H 0.2191 0.3873 0.4949   0.138708
 H 0.7768 0.4752 0.682   0.142366
 H 0.7191 0.4949 0.3873   0.138708
 C 0.2693 0.88061 0.77659   0.756679
 C 0.2648 0.67879 0.61281   -0.216687
 C 0.2206 0.49905 0.60515   -0.188435
 C 0.1712 0.46114 0.76386   0.714069
 C 0.7693 0.77659 0.88061   0.756679
 C 0.7648 0.61281 0.67879   -0.216689
 C 0.7206 0.60515 0.49905   -0.188435
 C 0.6712 0.76386 0.46114   0.714068
 O 0.3881 0.97648 0.96072   -0.637701
 O 0.1527 0.9506 0.7092   -0.577482
 O 0.2407 0.59957 0.95283   -0.622554
 O 0.0578 0.27727 0.69273   -0.578239
 O 0.8881 0.96072 0.97648   -0.637701
 O 0.6527 0.7092 0.9506   -0.577481
 O 0.7407 0.95283 0.59957   -0.622553
 O 0.5578 0.69273 0.27727   -0.578239
