{'_ref': 'TBD', '_srcid': 'CAKYAQ_clean', 'submitters': [{'name': 'Dalar Nazarian Jeff Camp and David Sholl', 'email': 'dalar@gatech.edu jcamp6@gatech.edu'}], '_method': 'VASP DFT with PBE;DDEC'}
data_Ni2H22C36S(NO2)4
_symmetry_space_group_name_H-M   'P 1'
_cell_length_a   8.25299995
_cell_length_b   11.25899999
_cell_length_c   13.22140000
_cell_angle_alpha   107.20999965
_cell_angle_beta   108.18599791
_cell_angle_gamma   90.00000215
_symmetry_Int_Tables_number   1
_chemical_formula_structural   Ni2H22C36S(NO2)4
_chemical_formula_sum   'Ni2 H22 C36 S1 N4 O8'
_cell_volume   1109.12687271
_cell_formula_units_Z   1
loop_
 _symmetry_equiv_pos_site_id
 _symmetry_equiv_pos_as_xyz
  1  'x, y, z'
loop_
 _atom_site_label
 _atom_site_fract_x
 _atom_site_fract_y
 _atom_site_fract_z
 _atom_site_charge
 Ni 0.23603 0.92994 0.37244   0.720565
 Ni 0.86359 0.07006 0.62756   0.862377
 H 0.7376 0.2082 0.0706   0.12262
 H 0.6628 0.2931 0.226   0.092925
 H 0.7119 0.1981 0.3638   0.069258
 H 0.2274 0.1932 0.5288   0.090052
 H 0.2203 0.3943 0.5272   0.117473
 H 0.2688 0.2822 0.2208   0.140085
 H 0.2807 0.0824 0.2322   0.102423
 H 0.3575 0.6875 0.2654   0.098599
 H 0.3746 0.4822 0.2704   0.135166
 H 0.0801 0.549 0.4644   0.116153
 H 0.0734 0.7503 0.4554   0.079477
 H 0.667 0.7918 0.9294   0.121752
 H 0.4368 0.7069 0.774   0.093454
 H 0.3481 0.8019 0.6362   0.067944
 H 0.6986 0.8068 0.4712   0.088283
 H 0.6931 0.6057 0.4728   0.117515
 H 0.048 0.7178 0.7792   0.138922
 H 0.0485 0.9176 0.7678   0.099116
 H 0.0921 0.3125 0.7346   0.094277
 H 0.1042 0.5178 0.7296   0.134397
 H 0.6157 0.451 0.5356   0.115092
 H 0.618 0.2497 0.5446   0.07474
 C 0.83597 0.0604 0.29654   -0.133537
 C 0.87633 0.000999999999998 0.19826   -0.090567
 C 0.8425 0.0599 0.1146   0.033598
 C 0.761 0.1699 0.1264   -0.07512
 C 0.7166 0.2199 0.2186   -0.122289
 C 0.7493 0.1644 0.3028   -0.04961
 C 0.88339 0.0078 0.39338   0.667611
 C 0.9484 0.875 0.1768   0.651606
 C 0.2368 0.2118 0.4666   0.175449
 C 0.2302 0.3321 0.4656   -0.198703
 C 0.23801 0.3625 0.37242   0.087072
 C 0.2597 0.2659 0.284   -0.182777
 C 0.2675 0.1463 0.2916   0.176176
 C 0.3019 0.6602 0.307   0.159353
 C 0.311 0.535 0.308   -0.20184
 C 0.2217 0.4927 0.367   0.10171
 C 0.1376 0.5739 0.4226   -0.196923
 C 0.1356 0.6959 0.4178   0.183192
 C 0.53943 0.9396 0.70346   -0.144654
 C 0.67807 0.999 0.80174   -0.080993
 C 0.7279 0.9401 0.8854   0.033383
 C 0.6346 0.8301 0.8736   -0.069694
 C 0.498 0.7801 0.7814   -0.123425
 C 0.4465 0.8356 0.6972   -0.044248
 C 0.49001 0.9922 0.60662   0.665511
 C 0.7716 0.125 0.8232   0.652192
 C 0.7702 0.7882 0.5334   0.188188
 C 0.7646 0.6679 0.5344   -0.203551
 C 0.86559 0.6375 0.62758   0.089883
 C 0.9757 0.7341 0.716   -0.186145
 C 0.9759 0.8537 0.7084   0.18537
 C 0.9949 0.3398 0.693   0.169741
 C 0.003 0.465 0.692   -0.20496
 C 0.8547 0.5073 0.633   0.101833
 C 0.715 0.4261 0.5774   -0.199323
 C 0.7178 0.3041 0.5822   0.194658
 S 0.9199 0.0 0.0   -0.092076
 N 0.25662 0.1186 0.38144   -0.30224
 N 0.22028 0.7384 0.36116   -0.243367
 N 0.87518 0.8814 0.61856   -0.353106
 N 0.85912 0.2616 0.63884   -0.287922
 O 0.00779 0.9464 0.40838   -0.570167
 O 0.79807 0.0377 0.45754   -0.595086
 O 0.10659 0.8715 0.20178   -0.598802
 O 0.83897 0.7827 0.13134   -0.554929
 O 0.59941 0.0536 0.59162   -0.55511
 O 0.34053 0.9623 0.54246   -0.543468
 O 0.90481 0.1285 0.79822   -0.637545
 O 0.70763 0.2173 0.86866   -0.567012
