{'_ref': 'TBD', '_srcid': 'CAKYAQ_clean', 'submitters': [{'name': 'Dalar Nazarian Jeff Camp and David Sholl', 'email': 'dalar@gatech.edu jcamp6@gatech.edu'}], '_method': 'VASP DFT with PBE;DDEC'}
data_ErH6(C2O)6
_symmetry_space_group_name_H-M   'P 1'
_cell_length_a   8.51389976
_cell_length_b   10.21650015
_cell_length_c   11.07210000
_cell_angle_alpha   64.20800156
_cell_angle_beta   71.56299755
_cell_angle_gamma   80.75199974
_symmetry_Int_Tables_number   1
_chemical_formula_structural   ErH6(C2O)6
_chemical_formula_sum   'Er2 H12 C24 O12'
_cell_volume   822.324966914
_cell_formula_units_Z   2
loop_
 _symmetry_equiv_pos_site_id
 _symmetry_equiv_pos_as_xyz
  1  'x, y, z'
loop_
 _atom_site_label
 _atom_site_fract_x
 _atom_site_fract_y
 _atom_site_fract_z
 _atom_site_charge
 Er 0.86652 0.06377 0.83769   1.487422
 Er 0.13348 0.93623 0.16231   1.487425
 H 0.9942 0.4736 0.2196   0.118208
 H 0.0526 0.7241 0.8121   0.105661
 H 0.4628 0.1484 0.616   0.08161
 H 0.2768 0.885 0.5146   0.106094
 H 0.7767 0.453 0.416   0.100877
 H 0.3614 0.3676 0.7312   0.104357
 H 0.0058 0.5264 0.7804   0.118206
 H 0.9474 0.2759 0.1879   0.105659
 H 0.5372 0.8516 0.384   0.081609
 H 0.7232 0.115 0.4854   0.106093
 H 0.2233 0.547 0.584   0.100876
 H 0.6386 0.6324 0.2688   0.104357
 C 0.056 0.7464 0.0427   0.703376
 C 0.0277 0.6192 0.0194   -0.092318
 C 0.9964 0.4843 0.1312   -0.049129
 C 0.0314 0.6342 0.8876   -0.064492
 C 0.1737 0.0466 0.6613   0.625875
 C 0.3427 0.0212 0.5778   -0.097712
 C 0.4781 0.0889 0.569   -0.042307
 C 0.3663 0.9313 0.5085   -0.060925
 C 0.6773 0.2724 0.6787   0.641788
 C 0.5848 0.3918 0.5873   -0.111792
 C 0.6647 0.4718 0.4501   -0.041279
 C 0.4174 0.4204 0.6384   -0.03692
 C 0.944 0.2536 0.9573   0.703377
 C 0.9723 0.3808 0.9806   -0.092314
 C 0.0036 0.5157 0.8688   -0.049132
 C 0.9686 0.3658 0.1124   -0.064498
 C 0.8263 0.9534 0.3387   0.625875
 C 0.6573 0.9788 0.4222   -0.097715
 C 0.5219 0.9111 0.431   -0.042298
 C 0.6337 0.0687 0.4915   -0.060915
 C 0.3227 0.7276 0.3213   0.641788
 C 0.4152 0.6082 0.4127   -0.111793
 C 0.3353 0.5282 0.5499   -0.041281
 C 0.5826 0.5796 0.3616   -0.036918
 O 0.0158 0.8727 0.967   -0.681025
 O 0.1216 0.7234 0.1365   -0.581019
 O 0.0514 0.9893 0.6635   -0.544414
 O 0.1549 0.1226 0.7301   -0.531344
 O 0.8266 0.2461 0.627   -0.544903
 O 0.605 0.1965 0.806   -0.595693
 O 0.9842 0.1273 0.033   -0.681025
 O 0.8784 0.2766 0.8635   -0.581018
 O 0.9486 0.0107 0.3365   -0.544413
 O 0.8451 0.8774 0.2699   -0.531344
 O 0.1734 0.7539 0.373   -0.544903
 O 0.395 0.8035 0.194   -0.595692
