{'_ref': 'TBD', '_srcid': 'CAKYAQ_clean', 'submitters': [{'name': 'Dalar Nazarian Jeff Camp and David Sholl', 'email': 'dalar@gatech.edu jcamp6@gatech.edu'}], '_method': 'VASP DFT with PBE;DDEC'}
data_ZnH27C28N4O5
_symmetry_space_group_name_H-M   'P 1'
_cell_length_a   9.38980000
_cell_length_b   17.09170028
_cell_length_c   19.86010000
_cell_angle_alpha   90.00000000
_cell_angle_beta   90.00000000
_cell_angle_gamma   100.42799960
_symmetry_Int_Tables_number   1
_chemical_formula_structural   ZnH27C28N4O5
_chemical_formula_sum   'Zn4 H108 C112 N16 O20'
_cell_volume   3134.65651303
_cell_formula_units_Z   4
loop_
 _symmetry_equiv_pos_site_id
 _symmetry_equiv_pos_as_xyz
  1  'x, y, z'
loop_
 _atom_site_label
 _atom_site_fract_x
 _atom_site_fract_y
 _atom_site_fract_z
 _atom_site_charge
 Zn 0.06707 0.2781 0.8187   0.859031
 Zn 0.43293 0.2219 0.3187   0.859031
 Zn 0.93293 0.7219 0.1813   0.859031
 Zn 0.56707 0.7781 0.6813   0.859031
 H 0.7833 0.0581 0.767   0.099091
 H 0.381 0.9423 0.8094   0.118343
 H 0.5335 0.153 0.8965   0.121968
 H 0.1631 0.9693 0.854   0.062821
 H 0.2516 0.9302 0.9078   0.053884
 H 0.9467 0.0151 0.8872   0.106219
 H 0.2149 0.9634 0.0305   0.10031
 H 0.1192 0.1254 0.7582   0.084332
 H 0.2598 0.0778 0.6803   0.138989
 H 0.4869 0.2963 0.66   0.121658
 H 0.3409 0.3384 0.7394   0.082867
 H 0.4208 0.1552 0.5612   0.086407
 H 0.4813 0.0991 0.6121   0.069277
 H 0.6901 0.1334 0.5278   0.041834
 H 0.6244 0.2031 0.4958   0.071932
 H 0.8254 0.2943 0.531   0.03193
 H 0.8739 0.2301 0.484   0.070851
 H 0.9203 0.217 0.6817   0.065509
 H 0.8556 0.2876 0.6508   0.045331
 H 0.6675 0.1912 0.6935   0.065304
 H 0.7156 0.1262 0.6472   0.047533
 H 0.0617 0.3213 0.5765   0.06207
 H 0.1205 0.2562 0.6181   0.072464
 H 0.05 0.1414 0.4907   0.135587
 H 0.1949 0.1223 0.4018   0.090909
 H 0.4448 0.3243 0.4349   0.055757
 H 0.3098 0.3492 0.5251   0.115537
 H 0.7167 0.4419 0.267   0.099091
 H 0.119 0.5577 0.3094   0.118343
 H 0.9665 0.347 0.3965   0.121968
 H 0.3369 0.5307 0.354   0.062821
 H 0.2484 0.5698 0.4078   0.053884
 H 0.5533 0.4849 0.3872   0.106219
 H 0.2851 0.5366 0.5305   0.100311
 H 0.3808 0.3746 0.2582   0.084332
 H 0.2402 0.4222 0.1803   0.138989
 H 0.0131 0.2037 0.16   0.121658
 H 0.1591 0.1616 0.2394   0.082867
 H 0.0792 0.3448 0.0612   0.086407
 H 0.0187 0.4009 0.1121   0.069277
 H 0.8099 0.3666 0.0278   0.041834
 H 0.8756 0.2969 0.9958   0.071932
 H 0.6746 0.2057 0.031   0.03193
 H 0.6261 0.2699 0.984   0.070851
 H 0.5797 0.283 0.1817   0.065509
 H 0.6444 0.2124 0.1508   0.045331
 H 0.8325 0.3088 0.1935   0.065304
 H 0.7844 0.3738 0.1472   0.047533
 H 0.4383 0.1787 0.0765   0.062071
 H 0.3795 0.2438 0.1181   0.072464
 H 0.45 0.3586 0.9907   0.135587
 H 0.3051 0.3777 0.9018   0.090909
 H 0.0552 0.1757 0.9349   0.055757
 H 0.1902 0.1508 0.0251   0.115537
 H 0.2167 0.9419 0.233   0.099091
 H 0.619 0.0577 0.1906   0.118343
 H 0.4665 0.847 0.1035   0.121968
 H 0.8369 0.0307 0.146   0.062823
 H 0.7484 0.0698 0.0922   0.053885
 H 0.0533 0.9849 0.1128   0.106219
 H 0.7851 0.0366 0.9695   0.10031
 H 0.8808 0.8746 0.2418   0.084332
 H 0.7402 0.9222 0.3197   0.138988
 H 0.5131 0.7037 0.34   0.121659
 H 0.6591 0.6616 0.2606   0.082869
 H 0.5792 0.8448 0.4388   0.086407
 H 0.5187 0.9009 0.3879   0.069277
 H 0.3099 0.8666 0.4722   0.041834
 H 0.3756 0.7969 0.5042   0.071932
 H 0.1746 0.7057 0.469   0.03193
 H 0.1261 0.7699 0.516   0.070851
 H 0.0797 0.783 0.3183   0.065509
 H 0.1444 0.7124 0.3492   0.045331
 H 0.3325 0.8088 0.3065   0.065304
 H 0.2844 0.8738 0.3528   0.047533
 H 0.9383 0.6787 0.4235   0.06207
 H 0.8795 0.7438 0.3819   0.072464
 H 0.95 0.8586 0.5093   0.135585
 H 0.8051 0.8777 0.5982   0.090908
 H 0.5552 0.6757 0.5651   0.055757
 H 0.6902 0.6508 0.4749   0.115537
 H 0.2833 0.5581 0.733   0.099091
 H 0.881 0.4423 0.6906   0.118343
 H 0.0335 0.653 0.6035   0.121968
 H 0.6631 0.4693 0.646   0.062823
 H 0.7516 0.4302 0.5922   0.053885
 H 0.4467 0.5151 0.6128   0.106219
 H 0.7149 0.4634 0.4695   0.100311
 H 0.6192 0.6254 0.7418   0.084332
 H 0.7598 0.5778 0.8197   0.138988
 H 0.9869 0.7963 0.84   0.121659
 H 0.8409 0.8384 0.7606   0.082869
 H 0.9208 0.6552 0.9388   0.086407
 H 0.9813 0.5991 0.8879   0.069277
 H 0.1901 0.6334 0.9722   0.041834
 H 0.1244 0.7031 0.0042   0.071932
 H 0.3254 0.7943 0.969   0.03193
 H 0.3739 0.7301 0.016   0.070851
 H 0.4203 0.717 0.8183   0.065509
 H 0.3556 0.7876 0.8492   0.045331
 H 0.1675 0.6912 0.8065   0.065304
 H 0.2156 0.6262 0.8528   0.047533
 H 0.5617 0.8213 0.9235   0.062071
 H 0.6205 0.7562 0.8819   0.072464
 H 0.55 0.6414 0.0093   0.135585
 H 0.6949 0.6223 0.0982   0.090908
 H 0.9448 0.8243 0.0651   0.055757
 H 0.8098 0.8492 0.9749   0.115537
 C 0.7951 0.188 0.8425   0.661031
 C 0.677 0.1172 0.8329   -0.101469
 C 0.6956 0.0559 0.7894   -0.075915
 C 0.5846 0.9919 0.7792   -0.079215
 C 0.607 0.9273 0.7315   0.64774
 C 0.4548 0.986 0.8152   -0.226336
 C 0.4382 0.0464 0.8594   0.24747
 C 0.5473 0.1122 0.8676   -0.166401
 C 0.209 0.9765 0.8978   0.103749
 C 0.0998 0.9874 0.951   0.010801
 C 0.9685 0.0091 0.9324   -0.116574
 C 0.1281 0.9783 0.018   -0.092465
 C 0.1938 0.1608 0.7379   0.182945
 C 0.2774 0.1317 0.6907   -0.220631
 C 0.388 0.1826 0.6587   0.146619
 C 0.4114 0.2601 0.6787   -0.204347
 C 0.323 0.2851 0.7268   0.171956
 C 0.4726 0.1539 0.6033   -0.015024
 C 0.6841 0.1892 0.5322   0.024037
 C 0.8321 0.2385 0.5275   0.026199
 C 0.8605 0.2317 0.6457   0.023556
 C 0.7098 0.1822 0.6503   0.012662
 C 0.0694 0.2654 0.5773   0.002658
 C 0.1588 0.2489 0.5179   0.140188
 C 0.1295 0.1804 0.4801   -0.212128
 C 0.2172 0.1691 0.4264   0.179932
 C 0.3632 0.2871 0.446   0.188905
 C 0.2821 0.3027 0.5003   -0.212297
 C 0.7049 0.312 0.3425   0.661031
 C 0.823 0.3828 0.3329   -0.101469
 C 0.8044 0.4441 0.2894   -0.075915
 C 0.9154 0.5081 0.2792   -0.079215
 C 0.893 0.5727 0.2315   0.64774
 C 0.0452 0.514 0.3152   -0.226336
 C 0.0618 0.4536 0.3594   0.24747
 C 0.9527 0.3878 0.3676   -0.166401
 C 0.291 0.5235 0.3978   0.103749
 C 0.4002 0.5126 0.451   0.010801
 C 0.5315 0.4909 0.4324   -0.116574
 C 0.3719 0.5217 0.518   -0.092465
 C 0.3062 0.3392 0.2379   0.182945
 C 0.2226 0.3683 0.1907   -0.220631
 C 0.112 0.3174 0.1587   0.146619
 C 0.0886 0.2399 0.1787   -0.204347
 C 0.177 0.2149 0.2268   0.171956
 C 0.0274 0.3461 0.1033   -0.015024
 C 0.8159 0.3108 0.0322   0.024037
 C 0.6679 0.2615 0.0275   0.026199
 C 0.6395 0.2683 0.1457   0.023556
 C 0.7902 0.3178 0.1503   0.012662
 C 0.4306 0.2346 0.0773   0.002658
 C 0.3412 0.2511 0.0179   0.140188
 C 0.3705 0.3196 0.9801   -0.212129
 C 0.2828 0.3309 0.9264   0.179932
 C 0.1368 0.2129 0.946   0.188905
 C 0.2179 0.1973 0.000300000000003   -0.212297
 C 0.2049 0.812 0.1575   0.661031
 C 0.323 0.8828 0.1671   -0.101469
 C 0.3044 0.9441 0.2106   -0.075915
 C 0.4154 0.0081 0.2208   -0.079215
 C 0.393 0.0727 0.2685   0.64774
 C 0.5452 0.014 0.1848   -0.226336
 C 0.5618 0.9536 0.1406   0.24747
 C 0.4527 0.8878 0.1324   -0.166401
 C 0.791 0.0235 0.1022   0.103749
 C 0.9002 0.0126 0.049   0.010799
 C 0.0315 0.9909 0.0676   -0.116568
 C 0.8719 0.0217 0.982   -0.092459
 C 0.8062 0.8392 0.2621   0.182945
 C 0.7226 0.8683 0.3093   -0.220631
 C 0.612 0.8174 0.3413   0.146619
 C 0.5886 0.7399 0.3213   -0.204347
 C 0.677 0.7149 0.2732   0.171956
 C 0.5274 0.8461 0.3967   -0.015023
 C 0.3159 0.8108 0.4678   0.024037
 C 0.1679 0.7615 0.4725   0.026199
 C 0.1395 0.7683 0.3543   0.023556
 C 0.2902 0.8178 0.3497   0.012662
 C 0.9306 0.7346 0.4227   0.002658
 C 0.8412 0.7511 0.4821   0.140188
 C 0.8705 0.8196 0.5199   -0.212128
 C 0.7828 0.8309 0.5736   0.179932
 C 0.6368 0.7129 0.554   0.188905
 C 0.7179 0.6973 0.4997   -0.212297
 C 0.2951 0.688 0.6575   0.661031
 C 0.177 0.6172 0.6671   -0.101469
 C 0.1956 0.5559 0.7106   -0.075915
 C 0.0846 0.4919 0.7208   -0.079215
 C 0.107 0.4273 0.7685   0.64774
 C 0.9548 0.486 0.6848   -0.226336
 C 0.9382 0.5464 0.6406   0.24747
 C 0.0473 0.6122 0.6324   -0.166401
 C 0.709 0.4765 0.6022   0.103749
 C 0.5998 0.4874 0.549   0.010799
 C 0.4685 0.5091 0.5676   -0.116568
 C 0.6281 0.4783 0.482   -0.092459
 C 0.6938 0.6608 0.7621   0.182945
 C 0.7774 0.6317 0.8093   -0.220631
 C 0.888 0.6826 0.8413   0.146619
 C 0.9114 0.7601 0.8213   -0.204347
 C 0.823 0.7851 0.7732   0.171956
 C 0.9726 0.6539 0.8967   -0.015023
 C 0.1841 0.6892 0.9678   0.024037
 C 0.3321 0.7385 0.9725   0.026199
 C 0.3605 0.7317 0.8543   0.023556
 C 0.2098 0.6822 0.8497   0.012662
 C 0.5694 0.7654 0.9227   0.002658
 C 0.6588 0.7489 0.9821   0.140188
 C 0.6295 0.6804 0.0199   -0.212128
 C 0.7172 0.6691 0.0736   0.179932
 C 0.8632 0.7871 0.054   0.188905
 C 0.7821 0.8027 0.9997   -0.212297
 N 0.2135 0.2366 0.756   -0.350013
 N 0.6185 0.2027 0.5969   -0.344772
 N 0.9255 0.2186 0.5802   -0.359103
 N 0.332 0.2223 0.40863   -0.360173
 N 0.2865 0.2634 0.256   -0.350013
 N 0.8815 0.2973 0.0969   -0.344772
 N 0.5745 0.2814 0.0802   -0.359103
 N 0.168 0.2777 0.90863   -0.360173
 N 0.7865 0.7634 0.244   -0.350013
 N 0.3815 0.7973 0.4031   -0.344772
 N 0.0745 0.7814 0.4198   -0.359103
 N 0.668 0.7777 0.59137   -0.360173
 N 0.7135 0.7366 0.744   -0.350013
 N 0.1185 0.7027 0.9031   -0.344772
 N 0.4255 0.7186 0.9198   -0.359103
 N 0.832 0.7223 0.09137   -0.360173
 O 0.91531 0.18361 0.81498   -0.618948
 O 0.7738 0.2457 0.875   -0.590039
 O 0.7189 0.9338 0.6979   -0.612616
 O 0.50797 0.86577 0.72915   -0.598439
 O 0.3166 0.0459 0.8983   -0.291294
 O 0.58469 0.31639 0.31498   -0.618948
 O 0.7262 0.2543 0.375   -0.590039
 O 0.7811 0.5662 0.1979   -0.612616
 O 0.99203 0.63423 0.22915   -0.598439
 O 0.1834 0.4541 0.3983   -0.291294
 O 0.08469 0.81639 0.18502   -0.618948
 O 0.2262 0.7543 0.125   -0.590039
 O 0.2811 0.0662 0.3021   -0.612616
 O 0.49203 0.13423 0.27085   -0.598439
 O 0.6834 0.9541 0.1017   -0.291294
 O 0.41531 0.68361 0.68502   -0.618948
 O 0.2738 0.7457 0.625   -0.590039
 O 0.2189 0.4338 0.8021   -0.612616
 O 0.00797 0.36577 0.77085   -0.598439
 O 0.8166 0.5459 0.6017   -0.291294
