{'_ref': 'TBD', '_srcid': 'CAKYAQ_clean', 'submitters': [{'name': 'Dalar Nazarian Jeff Camp and David Sholl', 'email': 'dalar@gatech.edu jcamp6@gatech.edu'}], '_method': 'VASP DFT with PBE;DDEC'}
data_NiH3(C3O2)3
_symmetry_space_group_name_H-M   'P 1'
_cell_length_a   9.96160000
_cell_length_b   9.96160036
_cell_length_c   19.68000000
_cell_angle_alpha   90.00000000
_cell_angle_beta   90.00000000
_cell_angle_gamma   102.87899811
_symmetry_Int_Tables_number   1
_chemical_formula_structural   NiH3(C3O2)3
_chemical_formula_sum   'Ni4 H12 C36 O24'
_cell_volume   1903.78529659
_cell_formula_units_Z   4
loop_
 _symmetry_equiv_pos_site_id
 _symmetry_equiv_pos_as_xyz
  1  'x, y, z'
loop_
 _atom_site_label
 _atom_site_fract_x
 _atom_site_fract_y
 _atom_site_fract_z
 _atom_site_charge
 Ni 0.31304 0.43132 0.73365   0.960231
 Ni 0.68696 0.56868 0.23365   0.960231
 Ni 0.56868 0.68696 0.76635   0.960234
 Ni 0.43132 0.31304 0.26635   0.960234
 H 0.6744 0.7122 0.6   0.088558
 H 0.3361 0.9883 0.7484   0.121009
 H 0.3256 0.2878 0.1   0.088558
 H 0.6639 0.0117 0.2484   0.121009
 H 0.2878 0.3256 0.9   0.088558
 H 0.0117 0.6639 0.7516   0.121009
 H 0.7122 0.6744 0.4   0.088558
 H 0.9883 0.3361 0.2516   0.121009
 H 0.4137 0.4137 0.5   0.114184
 H 0.5863 0.5863 0.0   0.114184
 H 0.9511 0.0489 0.75   0.119752
 H 0.0489 0.9511 0.25   0.119752
 C 0.6431 0.6675 0.5596   0.027982
 C 0.4417 0.5049 0.6234   0.697435
 C 0.5303 0.5595 0.561   -0.165375
 C 0.2097 0.1939 0.7466   0.615008
 C 0.2415 0.9527 0.7491   0.036762
 C 0.1511 0.0419 0.7495   -0.143195
 C 0.3569 0.3325 0.0596   0.027982
 C 0.5583 0.4951 0.1234   0.697435
 C 0.4697 0.4405 0.061   -0.165375
 C 0.7903 0.8061 0.2466   0.615008
 C 0.7585 0.0473 0.2491   0.036762
 C 0.8489 0.9581 0.2495   -0.143195
 C 0.3325 0.3569 0.9404   0.027982
 C 0.4951 0.5583 0.8766   0.697435
 C 0.4405 0.4697 0.939   -0.165375
 C 0.8061 0.7903 0.7534   0.61501
 C 0.0473 0.7585 0.7509   0.036762
 C 0.9581 0.8489 0.7505   -0.143196
 C 0.6675 0.6431 0.4404   0.027982
 C 0.5049 0.4417 0.3766   0.697435
 C 0.5595 0.5303 0.439   -0.165375
 C 0.1939 0.2097 0.2534   0.61501
 C 0.9527 0.2415 0.2509   0.036762
 C 0.0419 0.1511 0.2505   -0.143196
 C 0.8319 0.8319 0.5   0.618722
 C 0.7111 0.7111 0.5   -0.142198
 C 0.4885 0.4885 0.5   0.018451
 C 0.1681 0.1681 0.0   0.618722
 C 0.2889 0.2889 0.0   -0.142198
 C 0.5115 0.5115 0.0   0.018451
 C 0.0108 0.9892 0.75   0.051934
 C 0.2863 0.7137 0.75   0.697571
 C 0.1899 0.8101 0.75   -0.165698
 C 0.9892 0.0108 0.25   0.051934
 C 0.7137 0.2863 0.25   0.697571
 C 0.8101 0.1899 0.25   -0.165698
 O 0.8559 0.8959 0.5537   -0.401933
 O 0.3275 0.4341 0.6141   -0.482647
 O 0.1379 0.2783 0.7598   -0.449014
 O 0.3367 0.2391 0.7326   -0.469188
 O 0.2312 0.5886 0.7416   -0.527029
 O 0.4882 0.5358 0.6793   -0.564964
 O 0.1441 0.1041 0.0537   -0.401933
 O 0.6725 0.5659 0.1141   -0.482647
 O 0.8621 0.7217 0.2598   -0.449014
 O 0.6633 0.7609 0.2326   -0.469188
 O 0.7688 0.4114 0.2416   -0.527029
 O 0.5118 0.4642 0.1793   -0.564964
 O 0.1041 0.1441 0.9463   -0.401933
 O 0.5659 0.6725 0.8859   -0.482647
 O 0.7217 0.8621 0.7402   -0.449014
 O 0.7609 0.6633 0.7674   -0.469191
 O 0.4114 0.7688 0.7584   -0.527029
 O 0.4642 0.5118 0.8207   -0.564964
 O 0.8959 0.8559 0.4463   -0.401933
 O 0.4341 0.3275 0.3859   -0.482647
 O 0.2783 0.1379 0.2402   -0.449014
 O 0.2391 0.3367 0.2674   -0.469191
 O 0.5886 0.2312 0.2584   -0.527029
 O 0.5358 0.4882 0.3207   -0.564964
