{'_ref': 'TBD', '_srcid': 'CAKYAQ_clean', 'submitters': [{'name': 'Dalar Nazarian Jeff Camp and David Sholl', 'email': 'dalar@gatech.edu jcamp6@gatech.edu'}], '_method': 'VASP DFT with PBE;DDEC'}
data_ZnH2(C3O2)2
_symmetry_space_group_name_H-M   'P 1'
_cell_length_a   18.76659970
_cell_length_b   18.76660028
_cell_length_c   18.76660000
_cell_angle_alpha   60.00000049
_cell_angle_beta   59.99999948
_cell_angle_gamma   59.99999965
_symmetry_Int_Tables_number   1
_chemical_formula_structural   ZnH2(C3O2)2
_chemical_formula_sum   'Zn12 H24 C72 O48'
_cell_volume   4673.49510912
_cell_formula_units_Z   12
loop_
 _symmetry_equiv_pos_site_id
 _symmetry_equiv_pos_as_xyz
  1  'x, y, z'
loop_
 _atom_site_label
 _atom_site_fract_x
 _atom_site_fract_y
 _atom_site_fract_z
 _atom_site_charge
 Zn 0.5 0.07916 0.5   1.168434
 Zn 0.07916 0.5 0.92084   1.168434
 Zn 0.5 0.92084 0.5   1.168434
 Zn 0.92084 0.5 0.07916   1.168434
 Zn 0.5 0.5 0.92084   1.168434
 Zn 0.07916 0.92084 0.5   1.168435
 Zn 0.5 0.5 0.07916   1.168434
 Zn 0.92084 0.07916 0.5   1.168435
 Zn 0.5 0.92084 0.07916   1.168435
 Zn 0.07916 0.5 0.5   1.168435
 Zn 0.5 0.07916 0.92084   1.168435
 Zn 0.92084 0.5 0.5   1.168435
 H 0.7707 0.9875 0.4711   0.107693
 H 0.9875 0.7707 0.7707   0.107693
 H 0.4711 0.7707 0.7707   0.107693
 H 0.7707 0.4711 0.9875   0.107693
 H 0.7707 0.4711 0.7707   0.107693
 H 0.9875 0.7707 0.4711   0.107693
 H 0.4711 0.7707 0.9875   0.107693
 H 0.7707 0.9875 0.7707   0.107693
 H 0.7707 0.7707 0.9875   0.107693
 H 0.9875 0.4711 0.7707   0.107693
 H 0.4711 0.9875 0.7707   0.107693
 H 0.7707 0.7707 0.4711   0.107693
 H 0.0125 0.2293 0.5289   0.107694
 H 0.2293 0.0125 0.2293   0.107694
 H 0.2293 0.5289 0.2293   0.107693
 H 0.5289 0.2293 0.0125   0.107693
 H 0.5289 0.2293 0.2293   0.107693
 H 0.2293 0.0125 0.5289   0.107694
 H 0.2293 0.5289 0.0125   0.107693
 H 0.0125 0.2293 0.2293   0.107694
 H 0.2293 0.2293 0.0125   0.107694
 H 0.5289 0.0125 0.2293   0.107694
 H 0.0125 0.5289 0.2293   0.107693
 H 0.2293 0.2293 0.5289   0.107693
 C 0.66372 0.9302 0.47588   0.742262
 C 0.75634 0.8857 0.47226   -0.186821
 C 0.9302 0.66372 0.9302   0.742262
 C 0.8857 0.75634 0.8857   -0.18682
 C 0.47588 0.9302 0.66372   0.742262
 C 0.47226 0.8857 0.75634   -0.18682
 C 0.9302 0.47588 0.9302   0.742263
 C 0.8857 0.47226 0.8857   -0.18682
 C 0.66372 0.47588 0.9302   0.742262
 C 0.75634 0.47226 0.8857   -0.18682
 C 0.9302 0.9302 0.47588   0.742262
 C 0.8857 0.8857 0.47226   -0.18682
 C 0.47588 0.66372 0.9302   0.742262
 C 0.47226 0.75634 0.8857   -0.18682
 C 0.9302 0.9302 0.66372   0.742262
 C 0.8857 0.8857 0.75634   -0.186819
 C 0.66372 0.9302 0.9302   0.742262
 C 0.75634 0.8857 0.8857   -0.18682
 C 0.9302 0.47588 0.66372   0.742262
 C 0.8857 0.47226 0.75634   -0.18682
 C 0.47588 0.9302 0.9302   0.742263
 C 0.47226 0.8857 0.8857   -0.18682
 C 0.9302 0.66372 0.47588   0.742262
 C 0.8857 0.75634 0.47226   -0.18682
 C 0.0698 0.33628 0.52412   0.742262
 C 0.1143 0.24366 0.52774   -0.186821
 C 0.33628 0.0698 0.0698   0.742262
 C 0.24366 0.1143 0.1143   -0.18682
 C 0.0698 0.52412 0.33628   0.742262
 C 0.1143 0.52774 0.24366   -0.18682
 C 0.52412 0.0698 0.0698   0.742262
 C 0.52774 0.1143 0.1143   -0.18682
 C 0.52412 0.33628 0.0698   0.742262
 C 0.52774 0.24366 0.1143   -0.186821
 C 0.0698 0.0698 0.52412   0.742262
 C 0.1143 0.1143 0.52774   -0.18682
 C 0.33628 0.52412 0.0698   0.742262
 C 0.24366 0.52774 0.1143   -0.18682
 C 0.0698 0.0698 0.33628   0.742262
 C 0.1143 0.1143 0.24366   -0.186819
 C 0.0698 0.33628 0.0698   0.742261
 C 0.1143 0.24366 0.1143   -0.18682
 C 0.52412 0.0698 0.33628   0.742262
 C 0.52774 0.1143 0.24366   -0.18682
 C 0.0698 0.52412 0.0698   0.742262
 C 0.1143 0.52774 0.1143   -0.18682
 C 0.33628 0.0698 0.52412   0.742262
 C 0.24366 0.1143 0.52774   -0.18682
 C 0.7997 0.92878 0.47182   0.038111
 C 0.92878 0.7997 0.7997   0.03811
 C 0.47182 0.7997 0.7997   0.038111
 C 0.7997 0.47182 0.92878   0.038111
 C 0.7997 0.47182 0.7997   0.038111
 C 0.92878 0.7997 0.47182   0.038111
 C 0.47182 0.7997 0.92878   0.038111
 C 0.7997 0.92878 0.7997   0.03811
 C 0.7997 0.7997 0.92878   0.03811
 C 0.92878 0.47182 0.7997   0.038111
 C 0.47182 0.92878 0.7997   0.038111
 C 0.7997 0.7997 0.47182   0.038111
 C 0.07122 0.2003 0.52818   0.038111
 C 0.2003 0.07122 0.2003   0.03811
 C 0.2003 0.52818 0.2003   0.038111
 C 0.52818 0.2003 0.07122   0.038111
 C 0.52818 0.2003 0.2003   0.038111
 C 0.2003 0.07122 0.52818   0.038111
 C 0.2003 0.52818 0.07122   0.038111
 C 0.07122 0.2003 0.2003   0.03811
 C 0.2003 0.2003 0.07122   0.03811
 C 0.52818 0.07122 0.2003   0.038111
 C 0.07122 0.52818 0.2003   0.038111
 C 0.2003 0.2003 0.52818   0.038111
 O 0.62795 0.00639 0.47841   -0.642732
 O 0.00639 0.62795 0.88725   -0.642731
 O 0.47841 0.88725 0.62795   -0.642732
 O 0.88725 0.47841 0.00639   -0.642732
 O 0.62795 0.47841 0.88725   -0.642732
 O 0.00639 0.88725 0.47841   -0.642732
 O 0.47841 0.62795 0.00639   -0.642732
 O 0.88725 0.00639 0.62795   -0.642731
 O 0.62795 0.88725 0.00639   -0.642731
 O 0.00639 0.47841 0.62795   -0.642732
 O 0.47841 0.00639 0.88725   -0.642732
 O 0.88725 0.62795 0.47841   -0.642732
 O 0.99361 0.37205 0.52159   -0.642732
 O 0.37205 0.99361 0.11275   -0.642731
 O 0.11275 0.52159 0.37205   -0.642732
 O 0.52159 0.11275 0.99361   -0.642732
 O 0.52159 0.37205 0.11275   -0.642732
 O 0.11275 0.99361 0.52159   -0.642732
 O 0.37205 0.52159 0.99361   -0.642732
 O 0.99361 0.11275 0.37205   -0.642731
 O 0.11275 0.37205 0.99361   -0.642731
 O 0.52159 0.99361 0.37205   -0.642732
 O 0.99361 0.52159 0.11275   -0.642732
 O 0.37205 0.11275 0.52159   -0.642732
 O 0.37205 0.99361 0.52159   -0.642732
 O 0.99361 0.37205 0.11275   -0.642731
 O 0.52159 0.11275 0.37205   -0.642732
 O 0.11275 0.52159 0.99361   -0.642732
 O 0.37205 0.52159 0.11275   -0.642732
 O 0.99361 0.11275 0.52159   -0.642732
 O 0.52159 0.37205 0.99361   -0.642732
 O 0.11275 0.99361 0.37205   -0.642731
 O 0.37205 0.11275 0.99361   -0.642731
 O 0.99361 0.52159 0.37205   -0.642732
 O 0.52159 0.99361 0.11275   -0.642732
 O 0.11275 0.37205 0.52159   -0.642732
 O 0.00639 0.62795 0.47841   -0.642732
 O 0.62795 0.00639 0.88725   -0.642731
 O 0.88725 0.47841 0.62795   -0.642732
 O 0.47841 0.88725 0.00639   -0.642732
 O 0.47841 0.62795 0.88725   -0.642732
 O 0.88725 0.00639 0.47841   -0.642732
 O 0.62795 0.47841 0.00639   -0.642732
 O 0.00639 0.88725 0.62795   -0.642731
 O 0.88725 0.62795 0.00639   -0.642731
 O 0.47841 0.00639 0.62795   -0.642732
 O 0.00639 0.47841 0.88725   -0.642732
 O 0.62795 0.88725 0.47841   -0.642732
