{'_ref': 'TBD', '_srcid': 'CAKYAQ_clean', 'submitters': [{'name': 'Dalar Nazarian Jeff Camp and David Sholl', 'email': 'dalar@gatech.edu jcamp6@gatech.edu'}], '_method': 'VASP DFT with PBE;DDEC'}
data_Co3P2H7C3NO9
_symmetry_space_group_name_H-M   'P 1'
_cell_length_a   8.26599965
_cell_length_b   12.87399985
_cell_length_c   15.70613226
_cell_angle_alpha   114.19444847
_cell_angle_beta   96.61652696
_cell_angle_gamma   90.00000149
_symmetry_Int_Tables_number   1
_chemical_formula_structural   Co3P2H7C3NO9
_chemical_formula_sum   'Co12 P8 H28 C12 N4 O36'
_cell_volume   1512.36351307
_cell_formula_units_Z   4
loop_
 _symmetry_equiv_pos_site_id
 _symmetry_equiv_pos_as_xyz
  1  'x, y, z'
loop_
 _atom_site_label
 _atom_site_fract_x
 _atom_site_fract_y
 _atom_site_fract_z
 _atom_site_charge
 Co 0.93339 0.11205 0.49484   1.239899
 Co 0.54361 0.11102 0.49186   1.285728
 Co 0.85619 0.01832 0.27218   1.211928
 Co 0.56661 0.61721 0.50516   1.239666
 Co 0.95639 0.61916 0.50814   1.28606
 Co 0.64381 0.74614 0.72782   1.212381
 Co 0.06661 0.88795 0.50516   1.2399
 Co 0.45639 0.88898 0.50814   1.285728
 Co 0.14381 0.98168 0.72782   1.211928
 Co 0.43339 0.38279 0.49484   1.239667
 Co 0.04361 0.38084 0.49186   1.28606
 Co 0.35619 0.25386 0.27218   1.212381
 P 0.7238 0.88077 0.3703   1.883395
 P 0.2052 0.1463 0.37252   1.930789
 P 0.7762 0.51047 0.6297   1.881569
 P 0.2948 0.77378 0.62748   1.932485
 P 0.2762 0.11923 0.6297   1.883395
 P 0.7948 0.8537 0.62748   1.93079
 P 0.2238 0.48953 0.3703   1.881569
 P 0.7052 0.22622 0.37252   1.932485
 H 0.6647 0.7403 0.3804   0.424209
 H 0.0863 0.9325 0.1726   0.351552
 H 0.9779 0.8685 0.0226   0.043384
 H 0.7174 0.8008 0.0944   0.100853
 H 0.8658 0.7264 0.0576   0.103897
 H 0.8589 0.0459 0.061   0.096615
 H 0.7099 0.0018 0.0932   0.090747
 H 0.8353 0.3599 0.6196   0.423273
 H 0.4137 0.7599 0.8274   0.351685
 H 0.5221 0.8459 0.9774   0.043641
 H 0.7826 0.7064 0.9056   0.100563
 H 0.6342 0.6688 0.9424   0.104249
 H 0.6411 0.9849 0.939   0.097027
 H 0.7901 0.9086 0.9068   0.091261
 H 0.3353 0.2597 0.6196   0.424209
 H 0.9137 0.0675 0.8274   0.351551
 H 0.0221 0.1315 0.9774   0.043381
 H 0.2826 0.1992 0.9056   0.100855
 H 0.1342 0.2736 0.9424   0.103914
 H 0.1411 0.9541 0.939   0.096611
 H 0.2901 0.9982 0.9068   0.090747
 H 0.1647 0.6401 0.3804   0.423273
 H 0.5863 0.2401 0.1726   0.351683
 H 0.4779 0.1541 0.0226   0.043639
 H 0.2174 0.2936 0.0944   0.100564
 H 0.3658 0.3312 0.0576   0.104266
 H 0.3589 0.0151 0.061   0.097023
 H 0.2099 0.0914 0.0932   0.091261
 C 0.8964 0.8896 0.0666   0.232603
 C 0.795 0.7825 0.0492   -0.190868
 C 0.7912 0.9789 0.0498   -0.205072
 C 0.6036 0.823 0.9334   0.231986
 C 0.705 0.7333 0.9508   -0.190758
 C 0.7088 0.9291 0.9502   -0.206191
 C 0.1036 0.1104 0.9334   0.232605
 C 0.205 0.2175 0.9508   -0.190873
 C 0.2088 0.0211 0.9502   -0.205071
 C 0.3964 0.177 0.0666   0.231987
 C 0.295 0.2667 0.0492   -0.190763
 C 0.2912 0.0709 0.0498   -0.20619
 N 0.9828 0.9383 0.163   -0.671517
 N 0.5172 0.7753 0.837   -0.671765
 N 0.0172 0.0617 0.837   -0.671517
 N 0.4828 0.2247 0.163   -0.671765
 O 0.5783 0.93475 0.4207   -0.949556
 O 0.8824 0.9368 0.4332   -0.988921
 O 0.7205 0.9013 0.2816   -0.847833
 O 0.7187 0.754 0.3452   -0.676069
 O 0.0365 0.09941 0.37602   -0.947116
 O 0.2217 0.2752 0.4328   -1.084778
 O 0.333 0.0844 0.4062   -0.855883
 O 0.2236 0.1254 0.2712   -0.848378
 O 0.0084 0.2846 0.5734   -0.72927
 O 0.9217 0.51405 0.5793   -0.949527
 O 0.6176 0.5036 0.5668   -0.988524
 O 0.7795 0.6197 0.7184   -0.84702
 O 0.7813 0.4088 0.6548   -0.6747
 O 0.4635 0.72339 0.62398   -0.94801
 O 0.2783 0.8424 0.5672   -1.085434
 O 0.167 0.6782 0.5938   -0.856075
 O 0.2764 0.8542 0.7288   -0.848986
 O 0.4916 0.7112 0.4266   -0.729206
 O 0.4217 0.06525 0.5793   -0.949556
 O 0.1176 0.0632 0.5668   -0.988921
 O 0.2795 0.0987 0.7184   -0.847833
 O 0.2813 0.246 0.6548   -0.676068
 O 0.9635 0.90059 0.62398   -0.947116
 O 0.7783 0.7248 0.5672   -1.084778
 O 0.667 0.9156 0.5938   -0.855883
 O 0.7764 0.8746 0.7288   -0.848378
 O 0.9916 0.7154 0.4266   -0.729269
 O 0.0783 0.48595 0.4207   -0.949527
 O 0.3824 0.4964 0.4332   -0.988524
 O 0.2205 0.3803 0.2816   -0.84702
 O 0.2187 0.5912 0.3452   -0.674698
 O 0.5365 0.27661 0.37602   -0.94801
 O 0.7217 0.1576 0.4328   -1.085434
 O 0.833 0.3218 0.4062   -0.856075
 O 0.7236 0.1458 0.2712   -0.848985
 O 0.5084 0.2888 0.5734   -0.729205
