{'_ref': 'TBD', '_srcid': 'CAKYAQ_clean', 'submitters': [{'name': 'Dalar Nazarian Jeff Camp and David Sholl', 'email': 'dalar@gatech.edu jcamp6@gatech.edu'}], '_method': 'VASP DFT with PBE;DDEC'}
data_Co3H8C14(NO)6
_symmetry_space_group_name_H-M   'P 1'
_cell_length_a   10.90929992
_cell_length_b   10.90930052
_cell_length_c   11.04000000
_cell_angle_alpha   85.68819937
_cell_angle_beta   85.68819913
_cell_angle_gamma   67.53309927
_symmetry_Int_Tables_number   1
_chemical_formula_structural   Co3H8C14(NO)6
_chemical_formula_sum   'Co6 H16 C28 N12 O12'
_cell_volume   1209.20123507
_cell_formula_units_Z   2
loop_
 _symmetry_equiv_pos_site_id
 _symmetry_equiv_pos_as_xyz
  1  'x, y, z'
loop_
 _atom_site_label
 _atom_site_fract_x
 _atom_site_fract_y
 _atom_site_fract_z
 _atom_site_charge
 Co 0.49433 0.35503 0.99249   0.876281
 Co 0.64497 0.50567 0.50751   0.876282
 Co 0.50567 0.64497 0.00751   0.876281
 Co 0.35503 0.49433 0.49249   0.876283
 Co 0.60153 0.39847 0.25   0.750163
 Co 0.39847 0.60153 0.75   0.750163
 H 0.685 0.4062 0.0375   0.437853
 H 0.5815 0.9263 0.0647   0.129559
 H 0.6415 0.8365 0.4884   0.129641
 H 0.6406 0.0346 0.3948   0.107267
 H 0.5938 0.315 0.4625   0.437854
 H 0.0737 0.4185 0.4353   0.12956
 H 0.1635 0.3585 0.0116   0.129641
 H 0.9654 0.3594 0.1052   0.107268
 H 0.315 0.5938 0.9625   0.437853
 H 0.4185 0.0737 0.9353   0.129558
 H 0.3585 0.1635 0.5116   0.129641
 H 0.3594 0.9654 0.6052   0.107267
 H 0.4062 0.685 0.5375   0.437854
 H 0.9263 0.5815 0.5647   0.129559
 H 0.8365 0.6415 0.9884   0.12964
 H 0.0346 0.6406 0.8948   0.107268
 C 0.5823 0.7931 0.2103   0.13854
 C 0.59 0.9102 0.1482   -0.104165
 C 0.6106 0.1292 0.1659   0.665314
 C 0.6067 0.7657 0.3307   0.147147
 C 0.6107 0.9975 0.2203   -0.137127
 C 0.6283 0.8557 0.4058   -0.177914
 C 0.6287 0.9719 0.3496   -0.041132
 C 0.2069 0.4177 0.2897   0.138541
 C 0.0898 0.41 0.3518   -0.104166
 C 0.8708 0.3894 0.3341   0.665314
 C 0.2343 0.3933 0.1693   0.147146
 C 0.0025 0.3893 0.2797   -0.137128
 C 0.1443 0.3717 0.0942   -0.177914
 C 0.0281 0.3713 0.1504   -0.041131
 C 0.4177 0.2069 0.7897   0.13854
 C 0.41 0.0898 0.8518   -0.104165
 C 0.3894 0.8708 0.8341   0.665314
 C 0.3933 0.2343 0.6693   0.147147
 C 0.3893 0.0025 0.7797   -0.137127
 C 0.3717 0.1443 0.5942   -0.177915
 C 0.3713 0.0281 0.6504   -0.041131
 C 0.7931 0.5823 0.7103   0.13854
 C 0.9102 0.59 0.6482   -0.104165
 C 0.1292 0.6106 0.6659   0.665315
 C 0.7657 0.6067 0.8307   0.147146
 C 0.9975 0.6107 0.7203   -0.137128
 C 0.8557 0.6283 0.9058   -0.177914
 C 0.9719 0.6287 0.8496   -0.041131
 N 0.5701 0.6875 0.1653   -0.290788
 N 0.5805 0.6003 0.2579   0.014691
 N 0.6035 0.6431 0.3624   -0.289722
 N 0.3125 0.4299 0.3347   -0.290789
 N 0.3997 0.4195 0.2421   0.014691
 N 0.3569 0.3965 0.1376   -0.289721
 N 0.4299 0.3125 0.8347   -0.290788
 N 0.4195 0.3997 0.7421   0.014691
 N 0.3965 0.3569 0.6376   -0.289722
 N 0.6875 0.5701 0.6653   -0.290789
 N 0.6003 0.5805 0.7579   0.014691
 N 0.6431 0.6035 0.8624   -0.289722
 O 0.6038 0.439 0.068   -0.854936
 O 0.5744 0.1626 0.0599   -0.579179
 O 0.6461 0.1971 0.236   -0.546412
 O 0.561 0.3962 0.432   -0.854937
 O 0.8374 0.4256 0.4401   -0.579179
 O 0.8029 0.3539 0.264   -0.546411
 O 0.3962 0.561 0.932   -0.854936
 O 0.4256 0.8374 0.9401   -0.579179
 O 0.3539 0.8029 0.764   -0.546412
 O 0.439 0.6038 0.568   -0.854937
 O 0.1626 0.5744 0.5599   -0.579179
 O 0.1971 0.6461 0.736   -0.546411
