{'_ref': 'TBD', '_srcid': 'CAKYAQ_clean', 'submitters': [{'name': 'Dalar Nazarian Jeff Camp and David Sholl', 'email': 'dalar@gatech.edu jcamp6@gatech.edu'}], '_method': 'VASP DFT with PBE;DDEC'}
data_MnH6C9O5
_symmetry_space_group_name_H-M   'P 1'
_cell_length_a   7.43700000
_cell_length_b   11.27800000
_cell_length_c   15.16400000
_cell_angle_alpha   90.00000000
_cell_angle_beta   90.00000000
_cell_angle_gamma   90.00000000
_symmetry_Int_Tables_number   1
_chemical_formula_structural   MnH6C9O5
_chemical_formula_sum   'Mn4 H24 C36 O20'
_cell_volume   1271.8727057
_cell_formula_units_Z   4
loop_
 _symmetry_equiv_pos_site_id
 _symmetry_equiv_pos_as_xyz
  1  'x, y, z'
loop_
 _atom_site_label
 _atom_site_fract_x
 _atom_site_fract_y
 _atom_site_fract_z
 _atom_site_charge
 Mn 0.53531 0.28615 0.22059   0.965968
 Mn 0.46469 0.78615 0.77941   0.965969
 Mn 0.03531 0.28615 0.27941   0.965959
 Mn 0.96469 0.78615 0.72059   0.965959
 H 0.8064 0.0299 0.5007   0.102213
 H 0.3606 0.8216 0.4962   0.120732
 H 0.4943 0.018 0.2821   0.12269
 H 0.0305 0.7908 0.3319   0.091803
 H 0.0669 0.8692 0.418   0.07472
 H 0.1667 0.7446 0.4061   0.066612
 H 0.1936 0.5299 0.4993   0.102205
 H 0.6394 0.3216 0.5038   0.120732
 H 0.5057 0.518 0.7179   0.12269
 H 0.9695 0.2908 0.6681   0.091802
 H 0.9331 0.3692 0.582   0.074719
 H 0.8333 0.2446 0.5939   0.066604
 H 0.3064 0.0299 0.9993   0.102213
 H 0.8606 0.8216 0.0038   0.120732
 H 0.9943 0.018 0.2179   0.122683
 H 0.5305 0.7908 0.1681   0.091798
 H 0.5669 0.8692 0.082   0.074719
 H 0.6667 0.7446 0.0939   0.066612
 H 0.6936 0.5299 0.000700000000002   0.102205
 H 0.1394 0.3216 0.9962   0.120732
 H 0.0057 0.518 0.7821   0.122683
 H 0.4695 0.2908 0.8319   0.091797
 H 0.4331 0.3692 0.918   0.074719
 H 0.3333 0.2446 0.9061   0.066604
 C 0.7813 0.13093 0.34182   0.664771
 C 0.6362 0.86816 0.60106   0.718522
 C 0.6642 0.03949 0.38606   -0.107259
 C 0.7034 0.000410000000002 0.4708   -0.06935
 C 0.5917 0.91794 0.512   -0.090895
 C 0.4396 0.87551 0.46776   -0.193128
 C 0.4047 0.91237 0.38234   0.260218
 C 0.5177 0.99381 0.34106   -0.132343
 C 0.1212 0.8148 0.37527   -0.006905
 C 0.2187 0.63093 0.65818   0.664772
 C 0.3638 0.36816 0.39894   0.718519
 C 0.3358 0.53949 0.61394   -0.107261
 C 0.2966 0.50041 0.5292   -0.069348
 C 0.4083 0.41794 0.488   -0.090894
 C 0.5604 0.37551 0.53224   -0.193127
 C 0.5953 0.41237 0.61766   0.260218
 C 0.4823 0.49381 0.65894   -0.132344
 C 0.8788 0.3148 0.62473   -0.006902
 C 0.2813 0.13093 0.15818   0.664771
 C 0.1362 0.86816 0.89894   0.718522
 C 0.1642 0.03949 0.11394   -0.10726
 C 0.2034 0.000410000000002 0.0292   -0.06935
 C 0.0917 0.91794 0.988   -0.090896
 C 0.9396 0.87551 0.03224   -0.193128
 C 0.9047 0.91237 0.11766   0.260218
 C 0.0177 0.99381 0.15894   -0.132341
 C 0.6212 0.8148 0.12473   -0.006903
 C 0.7187 0.63093 0.84182   0.664772
 C 0.8638 0.36816 0.10106   0.718519
 C 0.8358 0.53949 0.88606   -0.107262
 C 0.7966 0.50041 0.9708   -0.069348
 C 0.9083 0.41794 0.012   -0.090894
 C 0.0604 0.37551 0.96776   -0.193127
 C 0.0953 0.41237 0.88234   0.260218
 C 0.9823 0.49381 0.84106   -0.132342
 C 0.3788 0.3148 0.87527   -0.0069
 O 0.73831 0.16835 0.26589   -0.600715
 O 0.92038 0.16532 0.37936   -0.51996
 O 0.79761 0.87057 0.62475   -0.59605
 O 0.50775 0.8251 0.64465   -0.607749
 O 0.26321 0.87173 0.3322   -0.263874
 O 0.26169 0.66835 0.73411   -0.600715
 O 0.07962 0.66532 0.62064   -0.51996
 O 0.20239 0.37057 0.37525   -0.596049
 O 0.49225 0.3251 0.35535   -0.607749
 O 0.73679 0.37173 0.6678   -0.263875
 O 0.23831 0.16835 0.23411   -0.600717
 O 0.42038 0.16532 0.12064   -0.51996
 O 0.29761 0.87057 0.87525   -0.59605
 O 0.00775 0.8251 0.85535   -0.607749
 O 0.76321 0.87173 0.1678   -0.263877
 O 0.76169 0.66835 0.76589   -0.600717
 O 0.57962 0.66532 0.87936   -0.51996
 O 0.70239 0.37057 0.12475   -0.59605
 O 0.99225 0.3251 0.14465   -0.607748
 O 0.23679 0.37173 0.8322   -0.263878
