{'_ref': 'TBD', '_srcid': 'CAKYAQ_clean', 'submitters': [{'name': 'Dalar Nazarian Jeff Camp and David Sholl', 'email': 'dalar@gatech.edu jcamp6@gatech.edu'}], '_method': 'VASP DFT with PBE;DDEC'}
data_CdBH12C8N3O4
_symmetry_space_group_name_H-M   'P 1'
_cell_length_a   11.47700000
_cell_length_b   11.47700038
_cell_length_c   22.58500000
_cell_angle_alpha   90.00000000
_cell_angle_beta   90.00000000
_cell_angle_gamma   119.99999890
_symmetry_Int_Tables_number   1
_chemical_formula_structural   CdBH12C8N3O4
_chemical_formula_sum   'Cd6 B6 H72 C48 N18 O24'
_cell_volume   2576.36570306
_cell_formula_units_Z   6
loop_
 _symmetry_equiv_pos_site_id
 _symmetry_equiv_pos_as_xyz
  1  'x, y, z'
loop_
 _atom_site_label
 _atom_site_fract_x
 _atom_site_fract_y
 _atom_site_fract_z
 _atom_site_charge
 Cd 0.5301 0.76505 0.91667   1.092386
 Cd 0.23495 0.4699 0.58333   1.092386
 Cd 0.23495 0.76505 0.25   1.092242
 Cd 0.4699 0.23495 0.41667   1.092386
 Cd 0.76505 0.5301 0.08333   1.092386
 Cd 0.76505 0.23495 0.75   1.092242
 B 0.6477 0.6477 0.0   0.847217
 B 0.0 0.3523 0.66667   0.848241
 B 0.3523 0.0 0.33333   0.848237
 B 0.3523 0.3523 0.5   0.847217
 B 0.0 0.6477 0.16667   0.848241
 B 0.6477 0.0 0.83333   0.848237
 H 0.8578 0.8146 0.89   0.055367
 H 0.824 0.6589 0.9201   0.040754
 H 0.9007 0.8054 0.9641   0.038839
 H 0.3337 0.5823 0.0351   0.063554
 H 0.4655 0.6261 0.0862   0.05477
 H 0.3967 0.4723 0.0474   0.063817
 H 0.9568 0.1422 0.55667   0.055332
 H 0.8349 0.176 0.58677   0.040681
 H 0.9047 0.0993 0.63077   0.038821
 H 0.2486 0.6663 0.70177   0.063546
 H 0.1606 0.5345 0.75287   0.054734
 H 0.0756 0.6033 0.71407   0.063854
 H 0.1854 0.0432 0.22333   0.055442
 H 0.3411 0.1651 0.25343   0.040789
 H 0.1946 0.0953 0.29743   0.038838
 H 0.4177 0.7514 0.36843   0.063536
 H 0.3739 0.8394 0.41953   0.05481
 H 0.5277 0.9244 0.38073   0.063763
 H 0.1422 0.1854 0.39   0.055366
 H 0.176 0.3411 0.4201   0.040753
 H 0.0993 0.1946 0.4641   0.038837
 H 0.6663 0.4177 0.5351   0.063554
 H 0.5345 0.3739 0.5862   0.05477
 H 0.6033 0.5277 0.5474   0.063817
 H 0.0432 0.8578 0.05667   0.05533
 H 0.1651 0.824 0.08677   0.040681
 H 0.0953 0.9007 0.13077   0.038819
 H 0.7514 0.3337 0.20177   0.063546
 H 0.8394 0.4655 0.25287   0.054734
 H 0.9244 0.3967 0.21407   0.063854
 H 0.8146 0.9568 0.72333   0.05544
 H 0.6589 0.8349 0.75343   0.040789
 H 0.8054 0.9047 0.79743   0.038837
 H 0.5823 0.2486 0.86843   0.063536
 H 0.6261 0.1606 0.91953   0.05481
 H 0.4723 0.0756 0.88073   0.063763
 H 0.0432 0.1854 0.77667   0.05544
 H 0.1651 0.3411 0.74657   0.040788
 H 0.0953 0.1946 0.70257   0.038836
 H 0.7514 0.4177 0.63157   0.063535
 H 0.8394 0.3739 0.58047   0.054809
 H 0.9244 0.5277 0.61927   0.063763
 H 0.8146 0.8578 0.11   0.055366
 H 0.6589 0.824 0.0799   0.040753
 H 0.8054 0.9007 0.0359   0.038837
 H 0.5823 0.3337 0.9649   0.063554
 H 0.6261 0.4655 0.9138   0.05477
 H 0.4723 0.3967 0.9526   0.063817
 H 0.1422 0.9568 0.44333   0.055331
 H 0.176 0.8349 0.41323   0.040681
 H 0.0993 0.9047 0.36923   0.038819
 H 0.6663 0.2486 0.29823   0.063546
 H 0.5345 0.1606 0.24713   0.054733
 H 0.6033 0.0756 0.28593   0.063854
 H 0.9568 0.8146 0.27667   0.055438
 H 0.8349 0.6589 0.24657   0.040788
 H 0.9047 0.8054 0.20257   0.038835
 H 0.2486 0.5823 0.13157   0.063535
 H 0.1606 0.6261 0.08047   0.054809
 H 0.0756 0.4723 0.11927   0.063763
 H 0.1854 0.1422 0.61   0.055364
 H 0.3411 0.176 0.5799   0.040753
 H 0.1946 0.0993 0.5359   0.038835
 H 0.4177 0.6663 0.4649   0.063554
 H 0.3739 0.5345 0.4138   0.05477
 H 0.5277 0.6033 0.4526   0.063817
 H 0.8578 0.0432 0.94333   0.055329
 H 0.824 0.1651 0.91323   0.04068
 H 0.9007 0.0953 0.86923   0.038818
 H 0.3337 0.7514 0.79823   0.063546
 H 0.4655 0.8394 0.74713   0.054733
 H 0.3967 0.9244 0.78593   0.063854
 C 0.9619 0.5122 0.9682   0.450104
 C 0.8282 0.7533 0.9295   0.033028
 C 0.4229 0.5765 0.0446   0.014513
 C 0.5503 0.0381 0.63487   0.449825
 C 0.9251 0.1718 0.59617   0.033163
 C 0.1536 0.5771 0.71127   0.014449
 C 0.4878 0.4497 0.30153   0.4499
 C 0.2467 0.0749 0.26283   0.032924
 C 0.4235 0.8464 0.37793   0.014541
 C 0.0381 0.4878 0.4682   0.450104
 C 0.1718 0.2467 0.4295   0.033029
 C 0.5771 0.4235 0.5446   0.014513
 C 0.4497 0.9619 0.13487   0.449825
 C 0.0749 0.8282 0.09617   0.033164
 C 0.8464 0.4229 0.21127   0.014449
 C 0.5122 0.5503 0.80153   0.4499
 C 0.7533 0.9251 0.76283   0.032925
 C 0.5765 0.1536 0.87793   0.014541
 C 0.4497 0.4878 0.69847   0.449899
 C 0.0749 0.2467 0.73717   0.032926
 C 0.8464 0.4235 0.62207   0.014541
 C 0.5122 0.9619 0.0318   0.450104
 C 0.7533 0.8282 0.0705   0.033029
 C 0.5765 0.4229 0.9554   0.014513
 C 0.0381 0.5503 0.36513   0.449825
 C 0.1718 0.9251 0.40383   0.033164
 C 0.5771 0.1536 0.28873   0.014449
 C 0.5503 0.5122 0.19847   0.449899
 C 0.9251 0.7533 0.23717   0.032926
 C 0.1536 0.5765 0.12207   0.014541
 C 0.4878 0.0381 0.5318   0.450104
 C 0.2467 0.1718 0.5705   0.03303
 C 0.4235 0.5771 0.4554   0.014513
 C 0.9619 0.4497 0.86513   0.449825
 C 0.8282 0.0749 0.90383   0.033164
 C 0.4229 0.8464 0.78873   0.014449
 C 0.0335 0.51675 0.91667   -0.499251
 C 0.1749 0.58745 0.91667   0.458472
 C 0.48325 0.9665 0.58333   -0.499251
 C 0.41255 0.8251 0.58333   0.458472
 C 0.48325 0.51675 0.25   -0.49909
 C 0.41255 0.58745 0.25   0.458343
 C 0.9665 0.48325 0.41667   -0.499251
 C 0.8251 0.41255 0.41667   0.458472
 C 0.51675 0.0335 0.08333   -0.499251
 C 0.58745 0.1749 0.08333   0.458472
 C 0.51675 0.48325 0.75   -0.49909
 C 0.58745 0.41255 0.75   0.458343
 N 0.9011 0.5087 0.0084   -0.480774
 N 0.6076 0.0989 0.67507   -0.480597
 N 0.4913 0.3924 0.34173   -0.480698
 N 0.0989 0.4913 0.5084   -0.480774
 N 0.3924 0.9011 0.17507   -0.480597
 N 0.5087 0.6076 0.84173   -0.480698
 N 0.3924 0.4913 0.65827   -0.480698
 N 0.5087 0.9011 0.9916   -0.480774
 N 0.0989 0.6076 0.32493   -0.480598
 N 0.6076 0.5087 0.15827   -0.480698
 N 0.4913 0.0989 0.4916   -0.480774
 N 0.9011 0.3924 0.82493   -0.480598
 N 0.2886 0.6443 0.91667   -0.48411
 N 0.3557 0.7114 0.58333   -0.48411
 N 0.3557 0.6443 0.25   -0.484017
 N 0.7114 0.3557 0.41667   -0.48411
 N 0.6443 0.2886 0.08333   -0.48411
 N 0.6443 0.3557 0.75   -0.484017
 O 0.7062 0.7293 0.9471   -0.512425
 O 0.5183 0.6405 0.9987   -0.528823
 O 0.0231 0.2938 0.61377   -0.512692
 O 0.1222 0.4817 0.66537   -0.529039
 O 0.2707 0.9769 0.28043   -0.512642
 O 0.3595 0.8778 0.33203   -0.529077
 O 0.2938 0.2707 0.4471   -0.512425
 O 0.4817 0.3595 0.4987   -0.528823
 O 0.9769 0.7062 0.11377   -0.512693
 O 0.8778 0.5183 0.16537   -0.529039
 O 0.7293 0.0231 0.78043   -0.512642
 O 0.6405 0.1222 0.83203   -0.529077
 O 0.9769 0.2707 0.71957   -0.512642
 O 0.8778 0.3595 0.66797   -0.52908
 O 0.7293 0.7062 0.0529   -0.512425
 O 0.6405 0.5183 0.0013   -0.528823
 O 0.2938 0.0231 0.38623   -0.512692
 O 0.4817 0.1222 0.33463   -0.529038
 O 0.0231 0.7293 0.21957   -0.512643
 O 0.1222 0.6405 0.16797   -0.52908
 O 0.2707 0.2938 0.5529   -0.512425
 O 0.3595 0.4817 0.5013   -0.528823
 O 0.7062 0.9769 0.88623   -0.512692
 O 0.5183 0.8778 0.83463   -0.529038
