{'_ref': 'TBD', '_srcid': 'CAKYAQ_clean', 'submitters': [{'name': 'Dalar Nazarian Jeff Camp and David Sholl', 'email': 'dalar@gatech.edu jcamp6@gatech.edu'}], '_method': 'VASP DFT with PBE;DDEC'}
data_Cd4H63C77(NO5)7
_symmetry_space_group_name_H-M   'P 1'
_cell_length_a   14.00240000
_cell_length_b   16.70389986
_cell_length_c   26.82240000
_cell_angle_alpha   91.16499854
_cell_angle_beta   90.00000000
_cell_angle_gamma   90.00000000
_symmetry_Int_Tables_number   1
_chemical_formula_structural   Cd4H63C77(NO5)7
_chemical_formula_sum   'Cd8 H126 C154 N14 O70'
_cell_volume   6272.32004515
_cell_formula_units_Z   2
loop_
 _symmetry_equiv_pos_site_id
 _symmetry_equiv_pos_as_xyz
  1  'x, y, z'
loop_
 _atom_site_label
 _atom_site_fract_x
 _atom_site_fract_y
 _atom_site_fract_z
 _atom_site_charge
 Cd 0.44763 0.55984 0.25491   1.059741
 Cd 0.69048 0.25028 0.4987   1.018753
 Cd 0.44921 0.94248 0.75294   1.041518
 Cd 0.19826 0.25118 0.99758   1.046929
 Cd 0.94763 0.44016 0.74509   1.059741
 Cd 0.19048 0.74972 0.5013   1.018753
 Cd 0.94921 0.05752 0.24706   1.041518
 Cd 0.69826 0.74882 0.00242   1.046929
 H 0.9004 0.2791 0.3287   0.273316
 H 0.1375 0.559 0.3193   0.117164
 H 0.9854 0.5224 0.3448   0.115738
 H 0.0226 0.3019 0.2835   0.115757
 H 0.1813 0.3355 0.2645   0.11354
 H 0.7171 0.3403 0.3329   0.111666
 H 0.7387 0.2258 0.2817   0.127803
 H 0.6687 0.2029 0.3263   0.143742
 H 0.7784 0.1762 0.3277   0.106202
 H 0.9956 0.2111 0.8271   0.266016
 H 0.7181 0.1505 0.7657   0.124424
 H 0.8746 0.1866 0.7854   0.114923
 H 0.9307 0.9595 0.8257   0.120505
 H 0.7755 0.9217 0.8033   0.108702
 H 0.183 0.1593 0.8299   0.11193
 H 0.1433 0.2766 0.7851   0.149763
 H 0.2236 0.2945 0.8263   0.137006
 H 0.1153 0.3207 0.8365   0.113067
 H 0.9841 0.2831 0.1671   0.273827
 H 0.7667 0.5765 0.1933   0.107569
 H 0.9175 0.5356 0.1666   0.12412
 H 0.8566 0.3082 0.2052   0.10748
 H 0.7039 0.3481 0.2294   0.112037
 H 0.1696 0.3388 0.1663   0.107582
 H 0.1319 0.2184 0.2083   0.143023
 H 0.2151 0.2047 0.1681   0.142044
 H 0.1086 0.176 0.1556   0.119096
 H 0.4486 0.7489 0.423   0.296288
 H 0.7505 0.9853 0.4431   0.110733
 H 0.7315 0.8506 0.4207   0.123568
 H 0.45 0.866 0.4528   0.093012
 H 0.4673 0.0012 0.4728   0.118036
 H 0.5526 0.6086 0.4188   0.112821
 H 0.4105 0.6146 0.4687   0.119617
 H 0.4092 0.5415 0.4292   0.148606
 H 0.3489 0.6207 0.4187   0.113528
 H 0.4468 0.7494 0.5794   0.275322
 H 0.7506 0.5173 0.5479   0.112843
 H 0.7311 0.6493 0.5753   0.124752
 H 0.4451 0.6266 0.5628   0.101812
 H 0.4641 0.4925 0.5384   0.122956
 H 0.5517 0.8868 0.5893   0.104044
 H 0.408 0.883 0.54   0.114741
 H 0.409 0.956 0.5796   0.13534
 H 0.3473 0.8776 0.5903   0.115632
 H 0.4394 0.7586 0.0857   0.277452
 H 0.4258 0.0148 0.0457   0.122469
 H 0.4444 0.8827 0.0724   0.102633
 H 0.1564 0.8606 0.0794   0.125687
 H 0.1388 0.9893 0.0495   0.112096
 H 0.3303 0.6243 0.0975   0.114861
 H 0.4673 0.6255 0.0419   0.125557
 H 0.464 0.5504 0.078   0.139825
 H 0.534 0.6239 0.0903   0.112428
 H 0.4374 0.7452 0.9113   0.263422
 H 0.4188 0.495 0.9694   0.123089
 H 0.4397 0.6307 0.9505   0.11212
 H 0.1568 0.6484 0.9207   0.126635
 H 0.1369 0.5136 0.9379   0.113469
 H 0.3319 0.8855 0.9123   0.113113
 H 0.4622 0.889 0.9694   0.122126
 H 0.471 0.9579 0.929   0.13668
 H 0.5349 0.8787 0.9237   0.109524
 H 0.4004 0.7209 0.6713   0.273316
 H 0.6375 0.441 0.6807   0.117164
 H 0.4854 0.4776 0.6552   0.115737
 H 0.5226 0.6981 0.7165   0.115757
 H 0.6813 0.6645 0.7355   0.113539
 H 0.2171 0.6597 0.6671   0.111666
 H 0.2387 0.7742 0.7183   0.127803
 H 0.1687 0.7971 0.6737   0.143742
 H 0.2784 0.8238 0.6723   0.106202
 H 0.4956 0.7889 0.1729   0.266016
 H 0.2181 0.8495 0.2343   0.124423
 H 0.3746 0.8134 0.2146   0.114923
 H 0.4307 0.0405 0.1743   0.120505
 H 0.2755 0.0783 0.1967   0.1087
 H 0.683 0.8407 0.1701   0.11193
 H 0.6433 0.7234 0.2149   0.149762
 H 0.7236 0.7055 0.1737   0.137003
 H 0.6153 0.6793 0.1635   0.113066
 H 0.4841 0.7169 0.8329   0.273827
 H 0.2667 0.4235 0.8067   0.107566
 H 0.4175 0.4644 0.8334   0.12412
 H 0.3566 0.6918 0.7948   0.10748
 H 0.2039 0.6519 0.7706   0.112037
 H 0.6696 0.6612 0.8337   0.107582
 H 0.6319 0.7816 0.7917   0.143023
 H 0.7151 0.7953 0.8319   0.142043
 H 0.6086 0.824 0.8444   0.119096
 H 0.9486 0.2511 0.577   0.296288
 H 0.2505 0.0147 0.5569   0.110733
 H 0.2315 0.1494 0.5793   0.123568
 H 0.95 0.134 0.5472   0.093012
 H 0.9673 0.9988 0.5272   0.118036
 H 0.0526 0.3914 0.5812   0.112821
 H 0.9105 0.3854 0.5313   0.119617
 H 0.9092 0.4585 0.5708   0.148606
 H 0.8489 0.3793 0.5813   0.113528
 H 0.9468 0.2506 0.4206   0.275322
 H 0.2506 0.4827 0.4521   0.112843
 H 0.2311 0.3507 0.4247   0.124752
 H 0.9451 0.3734 0.4372   0.101811
 H 0.9641 0.5075 0.4616   0.122956
 H 0.0517 0.1132 0.4107   0.104044
 H 0.908 0.117 0.46   0.114741
 H 0.909 0.044 0.4204   0.13534
 H 0.8473 0.1224 0.4097   0.115632
 H 0.9394 0.2414 0.9143   0.277452
 H 0.9258 0.9852 0.9543   0.122469
 H 0.9444 0.1173 0.9276   0.102633
 H 0.6564 0.1394 0.9206   0.125687
 H 0.6388 0.0107 0.9505   0.112096
 H 0.8303 0.3757 0.9025   0.114861
 H 0.9673 0.3745 0.9581   0.125557
 H 0.964 0.4496 0.922   0.139825
 H 0.034 0.3761 0.9097   0.112427
 H 0.9374 0.2548 0.0887   0.263422
 H 0.9188 0.505 0.0306   0.123089
 H 0.9397 0.3693 0.0495   0.11212
 H 0.6568 0.3516 0.0793   0.126635
 H 0.6369 0.4864 0.0621   0.113469
 H 0.8319 0.1145 0.0877   0.113113
 H 0.9622 0.111 0.0306   0.122126
 H 0.971 0.0421 0.071   0.13668
 H 0.0349 0.1213 0.0763   0.109524
 C 0.2736 0.4762 0.27541   0.597891
 C 0.174 0.4516 0.28936   -0.072891
 C 0.1152 0.5061 0.3128   -0.060075
 C 0.024 0.4848 0.327   -0.047221
 C 0.9882 0.4093 0.3156   -0.086966
 C 0.0464 0.3538 0.29166   -0.082834
 C 0.1403 0.3743 0.27953   -0.041024
 C 0.8868 0.393 0.33096   0.475709
 C 0.7598 0.297 0.3452   0.056433
 C 0.734 0.2183 0.31774   -0.350924
 C 0.7406 0.2861 0.40081   0.598603
 C 0.6291 0.0089 0.7726   0.617548
 C 0.7306 0.0324 0.78329   -0.091156
 C 0.7611 0.1114 0.77776   -0.040028
 C 0.8541 0.133 0.78982   -0.073769
 C 0.9173 0.077 0.80825   -0.097865
 C 0.8876 0.9982 0.81336   -0.057476
 C 0.7949 0.9759 0.8004   -0.055091
 C 0.0164 0.0971 0.82559   0.496112
 C 0.1369 0.1995 0.84398   0.065835
 C 0.1565 0.2799 0.82093   -0.365731
 C 0.1548 0.2095 0.90001   0.584682
 C 0.6227 0.4946 0.23074   0.598826
 C 0.7203 0.4666 0.21449   -0.076094
 C 0.7845 0.5218 0.1954   -0.054142
 C 0.874 0.4975 0.1795   -0.051162
 C 0.9006 0.4178 0.18218   -0.094794
 C 0.8377 0.3625 0.20201   -0.08085
 C 0.7476 0.3865 0.21712   -0.055385
 C 0.000500000000002 0.3973 0.1646   0.478193
 C 0.1258 0.298 0.15079   0.058919
 C 0.1473 0.2171 0.17263   -0.368541
 C 0.1465 0.2917 0.09509   0.587168
 C 0.6255 0.094 0.47347   0.626376
 C 0.6114 0.0068 0.46041   -0.083649
 C 0.6892 0.9612 0.44492   -0.066369
 C 0.6781 0.881 0.43205   -0.050362
 C 0.5888 0.8447 0.43571   -0.096204
 C 0.5112 0.8903 0.45076   -0.085456
 C 0.5214 0.9705 0.46285   -0.051563
 C 0.5847 0.7577 0.42138   0.515996
 C 0.4935 0.6355 0.40658   0.075159
 C 0.4079 0.5999 0.43317   -0.376167
 C 0.4837 0.6176 0.35051   0.587792
 C 0.624 0.4053 0.52556   0.622711
 C 0.6092 0.4919 0.54061   -0.093201
 C 0.6882 0.539 0.55154   -0.059425
 C 0.6765 0.6175 0.56766   -0.047265
 C 0.5857 0.6505 0.57277   -0.09511
 C 0.5073 0.6041 0.56068   -0.079535
 C 0.5186 0.5245 0.54547   -0.046913
 C 0.5808 0.7351 0.59263   0.491346
 C 0.4925 0.8603 0.60178   0.064709
 C 0.4064 0.8976 0.57554   -0.360581
 C 0.4836 0.8794 0.65774   0.61007
 C 0.2656 0.0985 0.02713   0.599052
 C 0.2805 0.0147 0.04456   -0.093679
 C 0.371 0.983 0.05199   -0.046376
 C 0.3822 0.9046 0.06871   -0.076864
 C 0.3025 0.8591 0.0798   -0.091622
 C 0.2115 0.8916 0.07229   -0.042336
 C 0.201 0.9682 0.05469   -0.05366
 C 0.3062 0.7762 0.09976   0.485795
 C 0.3924 0.6496 0.10731   0.059194
 C 0.4716 0.6087 0.07662   -0.36309
 C 0.41 0.6322 0.16226   0.589636
 C 0.2579 0.4063 0.97113   0.595898
 C 0.2748 0.492 0.957   -0.085413
 C 0.3655 0.5264 0.95992   -0.041298
 C 0.3779 0.6073 0.94896   -0.085855
 C 0.2999 0.6532 0.93579   -0.079967
 C 0.2099 0.6175 0.93109   -0.051839
 C 0.1981 0.5376 0.94146   -0.058974
 C 0.3045 0.7415 0.92675   0.489925
 C 0.3938 0.8596 0.90278   0.065207
 C 0.4726 0.8999 0.93404   -0.354449
 C 0.4104 0.8746 0.84724   0.606525
 C 0.7736 0.5238 0.72459   0.597891
 C 0.674 0.5484 0.71064   -0.072891
 C 0.6152 0.4939 0.6872   -0.060075
 C 0.524 0.5152 0.673   -0.04722
 C 0.4882 0.5907 0.6844   -0.086966
 C 0.5464 0.6462 0.70834   -0.082834
 C 0.6403 0.6257 0.72047   -0.041024
 C 0.3868 0.607 0.66904   0.475709
 C 0.2598 0.703 0.6548   0.056433
 C 0.234 0.7817 0.68226   -0.350924
 C 0.2406 0.7139 0.59919   0.598603
 C 0.1291 0.9911 0.2274   0.617548
 C 0.2306 0.9676 0.21671   -0.091156
 C 0.2611 0.8886 0.22224   -0.040028
 C 0.3541 0.867 0.21018   -0.073769
 C 0.4173 0.923 0.19175   -0.097865
 C 0.3876 0.0018 0.18664   -0.057476
 C 0.2949 0.0241 0.1996   -0.055091
 C 0.5164 0.9029 0.17441   0.496112
 C 0.6369 0.8005 0.15602   0.065835
 C 0.6565 0.7201 0.17907   -0.36573
 C 0.6548 0.7905 0.09999   0.584682
 C 0.1227 0.5054 0.76926   0.598826
 C 0.2203 0.5334 0.78551   -0.076094
 C 0.2845 0.4782 0.8046   -0.054141
 C 0.374 0.5025 0.8205   -0.051162
 C 0.4006 0.5822 0.81782   -0.094793
 C 0.3377 0.6375 0.79799   -0.08085
 C 0.2476 0.6135 0.78288   -0.055385
 C 0.5005 0.6027 0.8354   0.478193
 C 0.6258 0.702 0.84921   0.058919
 C 0.6473 0.7829 0.82737   -0.36854
 C 0.6465 0.7083 0.90491   0.587168
 C 0.1255 0.906 0.52653   0.626376
 C 0.1114 0.9932 0.53959   -0.083649
 C 0.1892 0.0388 0.55508   -0.066369
 C 0.1781 0.119 0.56795   -0.050361
 C 0.0888 0.1553 0.56429   -0.096204
 C 0.0112 0.1097 0.54924   -0.085455
 C 0.0214 0.0295 0.53715   -0.051563
 C 0.0847 0.2423 0.57862   0.515996
 C 0.9935 0.3645 0.59342   0.075159
 C 0.9079 0.4001 0.56683   -0.376167
 C 0.9837 0.3824 0.64949   0.587792
 C 0.124 0.5947 0.47444   0.622711
 C 0.1092 0.5081 0.45939   -0.093201
 C 0.1882 0.461 0.44846   -0.059425
 C 0.1765 0.3825 0.43234   -0.047265
 C 0.0857 0.3495 0.42723   -0.095109
 C 0.0073 0.3959 0.43932   -0.079535
 C 0.0186 0.4755 0.45453   -0.046913
 C 0.0808 0.2649 0.40737   0.491346
 C 0.9925 0.1397 0.39822   0.064709
 C 0.9064 0.1024 0.42446   -0.360581
 C 0.9836 0.1206 0.34226   0.61007
 C 0.7656 0.9015 0.97287   0.599052
 C 0.7805 0.9853 0.95544   -0.093679
 C 0.871 0.017 0.94801   -0.046376
 C 0.8822 0.0954 0.93129   -0.076864
 C 0.8025 0.1409 0.9202   -0.091622
 C 0.7115 0.1084 0.92771   -0.042337
 C 0.701 0.0318 0.94531   -0.05366
 C 0.8062 0.2238 0.90024   0.485795
 C 0.8924 0.3504 0.89269   0.059194
 C 0.9716 0.3913 0.92338   -0.36309
 C 0.91 0.3678 0.83774   0.589636
 C 0.7579 0.5937 0.02887   0.595898
 C 0.7748 0.508 0.043   -0.085414
 C 0.8655 0.4736 0.04008   -0.041299
 C 0.8779 0.3927 0.05104   -0.085854
 C 0.7999 0.3468 0.06421   -0.079966
 C 0.7099 0.3825 0.06891   -0.05184
 C 0.6981 0.4624 0.05854   -0.058974
 C 0.8045 0.2585 0.07325   0.489925
 C 0.8938 0.1404 0.09722   0.065207
 C 0.9726 0.1001 0.06596   -0.354449
 C 0.9104 0.1254 0.15276   0.606525
 N 0.8585 0.31772 0.33382   -0.357023
 N 0.0399 0.17438 0.83123   -0.344361
 N 0.0268 0.3207 0.16202   -0.365415
 N 0.5012 0.72096 0.41809   -0.397513
 N 0.4986 0.77508 0.58933   -0.381855
 N 0.3873 0.7342 0.09572   -0.358649
 N 0.3859 0.77521 0.9136   -0.351034
 N 0.3585 0.68228 0.66618   -0.357023
 N 0.5399 0.82562 0.16877   -0.344361
 N 0.5268 0.6793 0.83798   -0.365415
 N 0.0012 0.27904 0.58191   -0.397513
 N 0.9986 0.22492 0.41067   -0.381855
 N 0.8873 0.2658 0.90428   -0.358649
 N 0.8859 0.22479 0.0864   -0.351034
 O 0.28822 0.54973 0.2692   -0.476817
 O 0.33808 0.42447 0.27098   -0.415556
 O 0.8327 0.45074 0.34097   -0.417679
 O 0.65362 0.28078 0.41446   -0.501951
 O 0.80703 0.27919 0.43153   -0.56253
 O 0.56516 0.06206 0.7702   -0.482589
 O 0.61085 0.93567 0.76682   -0.514943
 O 0.07383 0.04316 0.83559   -0.442624
 O 0.24131 0.217 0.91407   -0.479073
 O 0.08651 0.21619 0.92999   -0.540409
 O 0.55543 0.44458 0.2342   -0.460497
 O 0.61165 0.56734 0.24   -0.472661
 O 0.05574 0.4517 0.15257   -0.419781
 O 0.23381 0.29004 0.08211   -0.472602
 O 0.08059 0.28175 0.06418   -0.535316
 O 0.7089 0.11639 0.48462   -0.569781
 O 0.5557 0.1409 0.47355   -0.491694
 O 0.6585 0.7206 0.4117   -0.438606
 O 0.47063 0.67045 0.31969   -0.509805
 O 0.4848 0.54385 0.33792   -0.471804
 O 0.7065 0.38427 0.51234   -0.541866
 O 0.5552 0.3573 0.52682   -0.504405
 O 0.65353 0.76734 0.61104   -0.424253
 O 0.4641 0.82686 0.68819   -0.569523
 O 0.49164 0.95278 0.67034   -0.559465
 O 0.18327 0.11874 0.01403   -0.488521
 O 0.33545 0.14644 0.02632   -0.431417
 O 0.2332 0.74614 0.11894   -0.411032
 O 0.4057 0.55847 0.1735   -0.490542
 O 0.4296 0.68529 0.19354   -0.523354
 O 0.32662 0.35813 0.97235   -0.436512
 O 0.17404 0.3861 0.9821   -0.488345
 O 0.2299 0.78266 0.93268   -0.424593
 O 0.4174 0.94747 0.83524   -0.554304
 O 0.41882 0.81929 0.81595   -0.571179
 O 0.78822 0.45027 0.7308   -0.476817
 O 0.83808 0.57553 0.72902   -0.415556
 O 0.3327 0.54926 0.65903   -0.417679
 O 0.15362 0.71922 0.58554   -0.501951
 O 0.30703 0.72081 0.56847   -0.56253
 O 0.06516 0.93794 0.2298   -0.482589
 O 0.11085 0.06433 0.23318   -0.514943
 O 0.57383 0.95684 0.16441   -0.442624
 O 0.74131 0.783 0.08593   -0.479073
 O 0.58651 0.78381 0.07001   -0.540409
 O 0.05543 0.55542 0.7658   -0.460497
 O 0.11165 0.43266 0.76   -0.472661
 O 0.55574 0.5483 0.84743   -0.419781
 O 0.73381 0.70996 0.91789   -0.472602
 O 0.58059 0.71825 0.93582   -0.535316
 O 0.2089 0.88361 0.51538   -0.569781
 O 0.0557 0.8591 0.52645   -0.491694
 O 0.1585 0.2794 0.5883   -0.438606
 O 0.97063 0.32955 0.68031   -0.509805
 O 0.9848 0.45615 0.66208   -0.471804
 O 0.2065 0.61573 0.48766   -0.541866
 O 0.0552 0.6427 0.47318   -0.504405
 O 0.15353 0.23266 0.38896   -0.424253
 O 0.9641 0.17314 0.31181   -0.569523
 O 0.99164 0.04722 0.32966   -0.559465
 O 0.68327 0.88126 0.98597   -0.488521
 O 0.83545 0.85356 0.97368   -0.431417
 O 0.7332 0.25386 0.88106   -0.411032
 O 0.9057 0.44153 0.8265   -0.490542
 O 0.9296 0.31471 0.80646   -0.523354
 O 0.82662 0.64187 0.02765   -0.436512
 O 0.67404 0.6139 0.0179   -0.488345
 O 0.7299 0.21734 0.06732   -0.424593
 O 0.9174 0.05253 0.16476   -0.554304
 O 0.91882 0.18071 0.18405   -0.571179
