{'_ref': 'TBD', '_srcid': 'CAKYAQ_clean', 'submitters': [{'name': 'Dalar Nazarian Jeff Camp and David Sholl', 'email': 'dalar@gatech.edu jcamp6@gatech.edu'}], '_method': 'VASP DFT with PBE;DDEC'}
data_MnH15C19S(NO2)3
_symmetry_space_group_name_H-M   'P 1'
_cell_length_a   8.70800000
_cell_length_b   11.66299981
_cell_length_c   27.21800000
_cell_angle_alpha   101.48499984
_cell_angle_beta   90.00000000
_cell_angle_gamma   90.00000000
_symmetry_Int_Tables_number   1
_chemical_formula_structural   MnH15C19S(NO2)3
_chemical_formula_sum   'Mn4 H60 C76 S4 N12 O24'
_cell_volume   2708.94833432
_cell_formula_units_Z   4
loop_
 _symmetry_equiv_pos_site_id
 _symmetry_equiv_pos_as_xyz
  1  'x, y, z'
loop_
 _atom_site_label
 _atom_site_fract_x
 _atom_site_fract_y
 _atom_site_fract_z
 _atom_site_charge
 Mn 0.36613 0.74615 0.80333   1.020892
 Mn 0.86613 0.75385 0.69667   1.020892
 Mn 0.63387 0.25385 0.19667   1.020892
 Mn 0.13387 0.24615 0.30333   1.020892
 H 0.9515 0.8884 0.8875   0.332959
 H 0.749 0.7682 0.8777   0.133137
 H 0.644 0.8739 0.8727   0.096619
 H 0.8634 0.1126 0.9937   0.106642
 H 0.4335 0.1902 0.0414   0.094228
 H 0.3459 0.1495 0.9599   0.117983
 H 0.5206 0.0913 0.8942   0.075362
 H 0.5366 0.9405 0.7545   0.070125
 H 0.5417 0.1346 0.753   0.118942
 H 0.1885 0.179 0.8484   0.131262
 H 0.1911 0.9812 0.8452   0.070518
 H 0.4601 0.3063 0.7335   0.130262
 H 0.4621 0.5036 0.7386   0.071995
 H 0.2834 0.5582 0.8706   0.084831
 H 0.2725 0.3631 0.8698   0.1407
 H 0.4515 0.6116 0.6125   0.332959
 H 0.249 0.7318 0.6223   0.133137
 H 0.144 0.6261 0.6273   0.096619
 H 0.3634 0.3874 0.5063   0.106642
 H 0.9335 0.3098 0.4586   0.094228
 H 0.8459 0.3505 0.5401   0.117983
 H 0.0206 0.4087 0.6058   0.075362
 H 0.0366 0.5595 0.7455   0.070125
 H 0.0417 0.3654 0.747   0.118942
 H 0.6885 0.321 0.6516   0.131262
 H 0.6911 0.5188 0.6548   0.070518
 H 0.9601 0.1937 0.7665   0.130263
 H 0.9621 0.9964 0.7614   0.071995
 H 0.7834 0.9418 0.6294   0.084831
 H 0.7725 0.1369 0.6302   0.1407
 H 0.0485 0.1116 0.1125   0.332959
 H 0.251 0.2318 0.1223   0.133135
 H 0.356 0.1261 0.1273   0.096618
 H 0.1366 0.8874 0.0063   0.106642
 H 0.5665 0.8098 0.9586   0.094227
 H 0.6541 0.8505 0.0401   0.117983
 H 0.4794 0.9087 0.1058   0.075362
 H 0.4634 0.0595 0.2455   0.070125
 H 0.4583 0.8654 0.247   0.118942
 H 0.8115 0.821 0.1516   0.131262
 H 0.8089 0.0188 0.1548   0.070518
 H 0.5399 0.6937 0.2665   0.130262
 H 0.5379 0.4964 0.2614   0.071995
 H 0.7166 0.4418 0.1294   0.084831
 H 0.7275 0.6369 0.1302   0.1407
 H 0.5485 0.3884 0.3875   0.332959
 H 0.751 0.2682 0.3777   0.133135
 H 0.856 0.3739 0.3727   0.096618
 H 0.6366 0.6126 0.4937   0.106642
 H 0.0665 0.6902 0.5414   0.094227
 H 0.1541 0.6495 0.4599   0.117983
 H 0.9794 0.5913 0.3942   0.075362
 H 0.9634 0.4405 0.2545   0.070125
 H 0.9583 0.6346 0.253   0.118942
 H 0.3115 0.679 0.3484   0.131262
 H 0.3089 0.4812 0.3452   0.070518
 H 0.0399 0.8063 0.2335   0.130263
 H 0.0379 0.0036 0.2386   0.071995
 H 0.2166 0.0582 0.3706   0.084831
 H 0.2275 0.8631 0.3698   0.1407
 C 0.7325 0.7911 0.80532   0.680402
 C 0.7405 0.8355 0.8619   -0.103515
 C 0.7069 0.0967 0.9381   -0.256453
 C 0.7596 0.1205 0.9871   0.031131
 C 0.6573 0.1562 0.0261   -0.146196
 C 0.5026 0.1666 0.0153   -0.018341
 C 0.4499 0.1425 0.9667   -0.121989
 C 0.5544 0.1073 0.9272   -0.002448
 C 0.7145 0.1859 0.0795   0.676679
 C 0.4647 0.9893 0.7735   0.199489
 C 0.469 0.1059 0.7724   -0.177418
 C 0.3646 0.1809 0.8005   0.090527
 C 0.2603 0.1321 0.8285   -0.191475
 C 0.2637 0.0129 0.8266   0.200905
 C 0.3681 0.3088 0.8021   0.101444
 C 0.4238 0.3555 0.7623   -0.201096
 C 0.4248 0.475 0.7658   0.212088
 C 0.3205 0.5066 0.8426   0.177197
 C 0.3139 0.3889 0.8424   -0.205791
 C 0.2325 0.7089 0.69468   0.680402
 C 0.2405 0.6645 0.6381   -0.103515
 C 0.2069 0.4033 0.5619   -0.256453
 C 0.2596 0.3795 0.5129   0.031131
 C 0.1573 0.3438 0.4739   -0.146196
 C 0.0026 0.3334 0.4847   -0.018341
 C 0.9499 0.3575 0.5333   -0.121989
 C 0.0544 0.3927 0.5728   -0.002448
 C 0.2145 0.3141 0.4205   0.676679
 C 0.9647 0.5107 0.7265   0.19949
 C 0.969 0.3941 0.7276   -0.177417
 C 0.8646 0.3191 0.6995   0.090527
 C 0.7603 0.3679 0.6715   -0.191475
 C 0.7637 0.4871 0.6734   0.200905
 C 0.8681 0.1912 0.6979   0.101444
 C 0.9238 0.1445 0.7377   -0.201096
 C 0.9248 0.025 0.7342   0.212089
 C 0.8205 0.9934 0.6574   0.177197
 C 0.8139 0.1111 0.6576   -0.205791
 C 0.2675 0.2089 0.19468   0.680401
 C 0.2595 0.1645 0.1381   -0.103515
 C 0.2931 0.9033 0.0619   -0.256453
 C 0.2404 0.8795 0.0129   0.031131
 C 0.3427 0.8438 0.9739   -0.146195
 C 0.4974 0.8334 0.9847   -0.018342
 C 0.5501 0.8575 0.0333   -0.121989
 C 0.4456 0.8927 0.0728   -0.002448
 C 0.2855 0.8141 0.9205   0.676679
 C 0.5353 0.0107 0.2265   0.199489
 C 0.531 0.8941 0.2276   -0.177418
 C 0.6354 0.8191 0.1995   0.090527
 C 0.7397 0.8679 0.1715   -0.191475
 C 0.7363 0.9871 0.1734   0.200905
 C 0.6319 0.6912 0.1979   0.101444
 C 0.5762 0.6445 0.2377   -0.201096
 C 0.5752 0.525 0.2342   0.212088
 C 0.6795 0.4934 0.1574   0.177197
 C 0.6861 0.6111 0.1576   -0.205791
 C 0.7675 0.2911 0.30532   0.680402
 C 0.7595 0.3355 0.3619   -0.103515
 C 0.7931 0.5967 0.4381   -0.256453
 C 0.7404 0.6205 0.4871   0.031131
 C 0.8427 0.6562 0.5261   -0.146195
 C 0.9974 0.6666 0.5153   -0.018342
 C 0.0501 0.6425 0.4667   -0.121989
 C 0.9456 0.6073 0.4272   -0.002448
 C 0.7855 0.6859 0.5795   0.676679
 C 0.0353 0.4893 0.2735   0.19949
 C 0.031 0.6059 0.2724   -0.177417
 C 0.1354 0.6809 0.3005   0.090527
 C 0.2397 0.6321 0.3285   -0.191475
 C 0.2363 0.5129 0.3266   0.200905
 C 0.1319 0.8088 0.3021   0.101444
 C 0.0762 0.8555 0.2623   -0.201096
 C 0.0752 0.975 0.2658   0.212089
 C 0.1795 0.0066 0.3426   0.177197
 C 0.1861 0.8889 0.3424   -0.205791
 S 0.8399 0.05436 0.88841   1.248437
 S 0.3399 0.44564 0.61159   1.248437
 S 0.1601 0.94564 0.11159   1.248437
 S 0.6601 0.55436 0.38841   1.248437
 N 0.8641 0.9156 0.88054   -0.559301
 N 0.3638 0.9414 0.80006   -0.368234
 N 0.3769 0.5513 0.80497   -0.367847
 N 0.3641 0.5844 0.61946   -0.559301
 N 0.8638 0.5586 0.69994   -0.368234
 N 0.8769 0.9487 0.69503   -0.367847
 N 0.1359 0.0844 0.11946   -0.559302
 N 0.6362 0.0586 0.19994   -0.368234
 N 0.6231 0.4487 0.19503   -0.367847
 N 0.6359 0.4156 0.38054   -0.559301
 N 0.1362 0.4414 0.30006   -0.368234
 N 0.1231 0.0513 0.30497   -0.367847
 O 0.6091 0.7436 0.78907   -0.625362
 O 0.8469 0.8011 0.7788   -0.596721
 O 0.769 0.0777 0.8441   -0.603291
 O 0.9845 0.1063 0.90502   -0.585376
 O 0.8583 0.1918 0.08516   -0.641705
 O 0.6185 0.2081 0.11403   -0.642198
 O 0.1091 0.7564 0.71093   -0.625362
 O 0.3469 0.6989 0.7212   -0.596721
 O 0.269 0.4223 0.6559   -0.603291
 O 0.4845 0.3937 0.59498   -0.585376
 O 0.3583 0.3082 0.41484   -0.641705
 O 0.1185 0.2919 0.38597   -0.642198
 O 0.3909 0.2564 0.21093   -0.625362
 O 0.1531 0.1989 0.2212   -0.596721
 O 0.231 0.9223 0.1559   -0.603291
 O 0.0155 0.8937 0.09498   -0.585376
 O 0.1417 0.8082 0.91484   -0.641705
 O 0.3815 0.7919 0.88597   -0.642198
 O 0.8909 0.2436 0.28907   -0.625362
 O 0.6531 0.3011 0.2788   -0.596721
 O 0.731 0.5777 0.3441   -0.603291
 O 0.5155 0.6063 0.40502   -0.585376
 O 0.6417 0.6918 0.58516   -0.641705
 O 0.8815 0.7081 0.61403   -0.642198
