{'_ref': 'TBD', '_srcid': 'CAKYAQ_clean', 'submitters': [{'name': 'Dalar Nazarian Jeff Camp and David Sholl', 'email': 'dalar@gatech.edu jcamp6@gatech.edu'}], '_method': 'VASP DFT with PBE;DDEC'}
data_NaH8C12(NO3)2
_symmetry_space_group_name_H-M   'P 1'
_cell_length_a   10.48210000
_cell_length_b   10.48210000
_cell_length_c   13.92830000
_cell_angle_alpha   90.00000000
_cell_angle_beta   90.00000000
_cell_angle_gamma   90.00000000
_symmetry_Int_Tables_number   1
_chemical_formula_structural   NaH8C12(NO3)2
_chemical_formula_sum   'Na4 H32 C48 N8 O24'
_cell_volume   1530.3638898
_cell_formula_units_Z   4
loop_
 _symmetry_equiv_pos_site_id
 _symmetry_equiv_pos_as_xyz
  1  'x, y, z'
loop_
 _atom_site_label
 _atom_site_fract_x
 _atom_site_fract_y
 _atom_site_fract_z
 _atom_site_charge
 Na 0.597 0.597 0.0   0.932899
 Na 0.403 0.403 0.5   0.932899
 Na 0.903 0.097 0.75   0.932888
 Na 0.097 0.903 0.25   0.932888
 H 0.5527 0.6438 0.7688   0.293552
 H 0.6932 0.9489 0.6419   0.110303
 H 0.5859 0.8867 0.4992   0.101259
 H 0.4723 0.6987 0.4933   0.159796
 H 0.4473 0.3562 0.2688   0.293552
 H 0.3068 0.0511 0.1419   0.110303
 H 0.4141 0.1133 0.9992   0.101259
 H 0.5277 0.3013 0.9933   0.159796
 H 0.8562 0.0527 0.5188   0.293552
 H 0.5511 0.1932 0.3919   0.110304
 H 0.6133 0.0859 0.2492   0.101259
 H 0.8013 0.9723 0.2433   0.159796
 H 0.1438 0.9473 0.0188   0.293552
 H 0.4489 0.8068 0.8919   0.110304
 H 0.3867 0.9141 0.7492   0.101259
 H 0.1987 0.0277 0.7433   0.159796
 H 0.9473 0.1438 0.9812   0.293552
 H 0.8068 0.4489 0.1081   0.110303
 H 0.9141 0.3867 0.2508   0.101259
 H 0.0277 0.1987 0.2567   0.159796
 H 0.0527 0.8562 0.4812   0.293552
 H 0.1932 0.5511 0.6081   0.110303
 H 0.0859 0.6133 0.7508   0.101259
 H 0.9723 0.8013 0.7567   0.159796
 H 0.6438 0.5527 0.2312   0.293552
 H 0.9489 0.6932 0.3581   0.110303
 H 0.8867 0.5859 0.5008   0.101259
 H 0.6987 0.4723 0.5067   0.159796
 H 0.3562 0.4473 0.7312   0.293552
 H 0.0511 0.3068 0.8581   0.110303
 H 0.1133 0.4141 0.000799999999998   0.101259
 H 0.3013 0.5277 0.0067   0.159796
 C 0.6996 0.8249 0.814   0.613886
 C 0.6336 0.797 0.7189   0.073921
 C 0.6447 0.8724 0.64   -0.16688
 C 0.5817 0.8338 0.5545   0.033316
 C 0.5153 0.722 0.5507   -0.287272
 C 0.51 0.6389 0.6331   0.530704
 C 0.3004 0.1751 0.314   0.613886
 C 0.3664 0.203 0.2189   0.073921
 C 0.3553 0.1276 0.14   -0.16688
 C 0.4183 0.1662 0.0545   0.033316
 C 0.4847 0.278 0.0507   -0.287272
 C 0.49 0.3611 0.1331   0.530704
 C 0.6751 0.1996 0.564   0.613885
 C 0.703 0.1336 0.4689   0.073921
 C 0.6276 0.1447 0.39   -0.16688
 C 0.6662 0.0817 0.3045   0.033317
 C 0.778 0.0153 0.3007   -0.287272
 C 0.8611 0.01 0.3831   0.530705
 C 0.3249 0.8004 0.064   0.613885
 C 0.297 0.8664 0.9689   0.073921
 C 0.3724 0.8553 0.89   -0.16688
 C 0.3338 0.9183 0.8045   0.033317
 C 0.222 0.9847 0.8007   -0.287272
 C 0.1389 0.99 0.8831   0.530705
 C 0.8004 0.3249 0.936   0.613886
 C 0.8664 0.297 0.0311   0.073921
 C 0.8553 0.3724 0.11   -0.166876
 C 0.9183 0.3338 0.1955   0.033319
 C 0.9847 0.222 0.1993   -0.287271
 C 0.99 0.1389 0.1169   0.530707
 C 0.1996 0.6751 0.436   0.613886
 C 0.1336 0.703 0.5311   0.073921
 C 0.1447 0.6276 0.61   -0.166876
 C 0.0817 0.6662 0.6955   0.033319
 C 0.0153 0.778 0.6993   -0.287271
 C 0.01 0.8611 0.6169   0.530707
 C 0.8249 0.6996 0.186   0.613885
 C 0.797 0.6336 0.2811   0.073921
 C 0.8724 0.6447 0.36   -0.166877
 C 0.8338 0.5817 0.4455   0.033319
 C 0.722 0.5153 0.4493   -0.287271
 C 0.6389 0.51 0.3669   0.530708
 C 0.1751 0.3004 0.686   0.613885
 C 0.203 0.3664 0.7811   0.073921
 C 0.1276 0.3553 0.86   -0.166877
 C 0.1662 0.4183 0.9455   0.033319
 C 0.278 0.4847 0.9493   -0.287271
 C 0.3611 0.49 0.8669   0.530708
 N 0.5638 0.6867 0.7151   -0.264816
 N 0.4362 0.3133 0.2151   -0.264816
 N 0.8133 0.0638 0.4651   -0.264816
 N 0.1867 0.9362 0.9651   -0.264816
 N 0.9362 0.1867 0.0349   -0.264816
 N 0.0638 0.8133 0.5349   -0.264816
 N 0.6867 0.5638 0.2849   -0.264816
 N 0.3133 0.4362 0.7849   -0.264816
 O 0.6804 0.7476 0.8818   -0.55784
 O 0.7724 0.9198 0.8158   -0.534191
 O 0.4634 0.5288 0.6324   -0.572192
 O 0.3196 0.2524 0.3818   -0.55784
 O 0.2276 0.0802 0.3158   -0.534191
 O 0.5366 0.4712 0.1324   -0.572192
 O 0.7524 0.1804 0.6318   -0.557839
 O 0.5802 0.2724 0.5658   -0.534191
 O 0.9712 0.9634 0.3824   -0.57219
 O 0.2476 0.8196 0.1318   -0.557839
 O 0.4198 0.7276 0.0658   -0.534191
 O 0.0288 0.0366 0.8824   -0.57219
 O 0.8196 0.2476 0.8682   -0.557839
 O 0.7276 0.4198 0.9342   -0.534192
 O 0.0366 0.0288 0.1176   -0.57219
 O 0.1804 0.7524 0.3682   -0.557839
 O 0.2724 0.5802 0.4342   -0.534192
 O 0.9634 0.9712 0.6176   -0.57219
 O 0.7476 0.6804 0.1182   -0.55784
 O 0.9198 0.7724 0.1842   -0.53419
 O 0.5288 0.4634 0.3676   -0.572191
 O 0.2524 0.3196 0.6182   -0.55784
 O 0.0802 0.2276 0.6842   -0.53419
 O 0.4712 0.5366 0.8676   -0.572191
