{'_ref': 'TBD', '_srcid': 'CAKYAQ_clean', 'submitters': [{'name': 'Dalar Nazarian Jeff Camp and David Sholl', 'email': 'dalar@gatech.edu jcamp6@gatech.edu'}], '_method': 'VASP DFT with PBE;DDEC'}
data_Ni2H8C11NO7
_symmetry_space_group_name_H-M   'P 1'
_cell_length_a   11.07700000
_cell_length_b   13.43360000
_cell_length_c   14.81560008
_cell_angle_alpha   99.04599997
_cell_angle_beta   90.00000000
_cell_angle_gamma   90.00000000
_symmetry_Int_Tables_number   1
_chemical_formula_structural   Ni2H8C11NO7
_chemical_formula_sum   'Ni8 H32 C44 N4 O28'
_cell_volume   2177.20024204
_cell_formula_units_Z   4
loop_
 _symmetry_equiv_pos_site_id
 _symmetry_equiv_pos_as_xyz
  1  'x, y, z'
loop_
 _atom_site_label
 _atom_site_fract_x
 _atom_site_fract_y
 _atom_site_fract_z
 _atom_site_charge
 Ni 0.99863 0.88825 0.95653   1.041657
 Ni 0.14819 0.09248 0.86488   0.977201
 Ni 0.49863 0.61175 0.04347   1.041657
 Ni 0.64819 0.40752 0.13512   0.977201
 Ni 0.00137 0.11175 0.04347   1.041657
 Ni 0.85181 0.90752 0.13512   0.977202
 Ni 0.50137 0.38825 0.95653   1.041657
 Ni 0.35181 0.59248 0.86488   0.977202
 H 0.0621 0.9625 0.1143   0.463736
 H 0.366 0.9274 0.0471   0.117497
 H 0.3975 0.09 0.9469   0.099598
 H 0.4973 0.9118 0.8781   0.124379
 H 0.1043 0.1931 0.7005   0.090664
 H 0.0555 0.1574 0.551   0.127931
 H 0.0087 0.8763 0.582   0.126889
 H 0.0717 0.9184 0.7292   0.072193
 H 0.5621 0.5375 0.8857   0.463736
 H 0.866 0.5726 0.9529   0.117497
 H 0.8975 0.41 0.0531   0.099598
 H 0.9973 0.5882 0.1219   0.124379
 H 0.6043 0.3069 0.2995   0.090664
 H 0.5555 0.3426 0.449   0.127931
 H 0.5087 0.6237 0.418   0.126889
 H 0.5717 0.5816 0.2708   0.072193
 H 0.9379 0.0375 0.8857   0.463736
 H 0.634 0.0726 0.9529   0.117498
 H 0.6025 0.91 0.0531   0.099599
 H 0.5027 0.0882 0.1219   0.124381
 H 0.8957 0.8069 0.2995   0.090665
 H 0.9445 0.8426 0.449   0.127932
 H 0.9913 0.1237 0.418   0.126889
 H 0.9283 0.0816 0.2708   0.072193
 H 0.4379 0.4625 0.1143   0.463736
 H 0.134 0.4274 0.0471   0.117498
 H 0.1025 0.59 0.9469   0.099599
 H 0.0027 0.4118 0.8781   0.124381
 H 0.3957 0.6931 0.7005   0.090665
 H 0.4445 0.6574 0.551   0.127932
 H 0.4913 0.3763 0.582   0.126889
 H 0.4283 0.4184 0.7292   0.072193
 C 0.3782 0.951 0.9885   -0.15765
 C 0.3938 0.0667 0.0063   -0.16778
 C 0.4915 0.8981 0.941   -0.150703
 C 0.2644 0.9261 0.929   0.706547
 C 0.2808 0.1113 0.0556   0.702212
 C 0.4755 0.785 0.9409   0.725614
 C 0.0876 0.1264 0.676   0.181713
 C 0.0546 0.1061 0.5864   -0.196311
 C 0.0205 0.0118 0.5483   0.099943
 C 0.0289 0.9429 0.6037   -0.196431
 C 0.0673 0.9691 0.6932   0.207235
 C 0.8782 0.549 0.0115   -0.15765
 C 0.8938 0.4333 0.9937   -0.16778
 C 0.9915 0.6019 0.059   -0.150704
 C 0.7644 0.5739 0.071   0.706547
 C 0.7808 0.3887 0.9444   0.702212
 C 0.9755 0.715 0.0591   0.725614
 C 0.5876 0.3736 0.324   0.181713
 C 0.5546 0.3939 0.4136   -0.196311
 C 0.5205 0.4882 0.4517   0.099943
 C 0.5289 0.5571 0.3963   -0.196431
 C 0.5673 0.5309 0.3068   0.207235
 C 0.6218 0.049 0.0115   -0.15765
 C 0.6062 0.9333 0.9937   -0.167782
 C 0.5085 0.1019 0.059   -0.150706
 C 0.7356 0.0739 0.071   0.706547
 C 0.7192 0.8887 0.9444   0.702213
 C 0.5245 0.215 0.0591   0.725615
 C 0.9124 0.8736 0.324   0.181713
 C 0.9454 0.8939 0.4136   -0.196311
 C 0.9795 0.9882 0.4517   0.099941
 C 0.9711 0.0571 0.3963   -0.19643
 C 0.9327 0.0309 0.3068   0.207235
 C 0.1218 0.451 0.9885   -0.15765
 C 0.1062 0.5667 0.0063   -0.167782
 C 0.0085 0.3981 0.941   -0.150706
 C 0.2356 0.4261 0.929   0.706547
 C 0.2192 0.6113 0.0556   0.702213
 C 0.0245 0.285 0.9409   0.725615
 C 0.4124 0.6264 0.676   0.181713
 C 0.4454 0.6061 0.5864   -0.196311
 C 0.4795 0.5118 0.5483   0.099941
 C 0.4711 0.4429 0.6037   -0.19643
 C 0.4327 0.4691 0.6932   0.207235
 N 0.0972 0.0586 0.7297   -0.342588
 N 0.5972 0.4414 0.2703   -0.342588
 N 0.9028 0.9414 0.2703   -0.342588
 N 0.4028 0.5586 0.7297   -0.342588
 O 0.1857 0.8732 0.9589   -0.586832
 O 0.256 0.9622 0.8554   -0.660461
 O 0.1865 0.113 0.0065   -0.670901
 O 0.282 0.141 0.1388   -0.594913
 O 0.4259 0.7345 0.8728   -0.617787
 O 0.5094 0.7517 0.0105   -0.580546
 O 0.9984 0.9725 0.085   -0.942106
 O 0.6857 0.6268 0.0411   -0.586832
 O 0.756 0.5378 0.1446   -0.660461
 O 0.6865 0.387 0.9935   -0.670901
 O 0.782 0.359 0.8612   -0.594913
 O 0.9259 0.7655 0.1272   -0.617787
 O 0.0094 0.7483 0.9895   -0.580546
 O 0.4984 0.5275 0.915   -0.942106
 O 0.8143 0.1268 0.0411   -0.586832
 O 0.744 0.0378 0.1446   -0.660461
 O 0.8135 0.887 0.9935   -0.670902
 O 0.718 0.859 0.8612   -0.594913
 O 0.5741 0.2655 0.1272   -0.617787
 O 0.4906 0.2483 0.9895   -0.580546
 O 0.0016 0.0275 0.915   -0.942106
 O 0.3143 0.3732 0.9589   -0.586833
 O 0.244 0.4622 0.8554   -0.660461
 O 0.3135 0.613 0.0065   -0.670902
 O 0.218 0.641 0.1388   -0.594913
 O 0.0741 0.2345 0.8728   -0.617787
 O 0.9906 0.2517 0.0105   -0.580546
 O 0.5016 0.4725 0.085   -0.942106
