{'_ref': 'TBD', '_srcid': 'CAKYAQ_clean', 'submitters': [{'name': 'Dalar Nazarian Jeff Camp and David Sholl', 'email': 'dalar@gatech.edu jcamp6@gatech.edu'}], '_method': 'VASP DFT with PBE;DDEC'}
data_Gd2Cu3(C4O5)6
_symmetry_space_group_name_H-M   'P 1'
_cell_length_a   14.69000000
_cell_length_b   15.12599978
_cell_length_c   15.12600000
_cell_angle_alpha   120.00000049
_cell_angle_beta   90.00000000
_cell_angle_gamma   90.00000000
_symmetry_Int_Tables_number   1
_chemical_formula_structural   Gd2Cu3(C4O5)6
_chemical_formula_sum   'Gd4 Cu6 C48 O60'
_cell_volume   2910.72121353
_cell_formula_units_Z   2
loop_
 _symmetry_equiv_pos_site_id
 _symmetry_equiv_pos_as_xyz
  1  'x, y, z'
loop_
 _atom_site_label
 _atom_site_fract_x
 _atom_site_fract_y
 _atom_site_fract_z
 _atom_site_charge
 Gd 0.75 0.33333 0.66666   1.800693
 Gd 0.75 0.66667 0.33334   1.800693
 Gd 0.25 0.66667 0.33334   1.799835
 Gd 0.25 0.33333 0.66666   1.799835
 Cu 0.5 0.5 0.5   1.027986
 Cu 0.5 0.0 0.5   1.025944
 Cu 0.5 0.5 0.0   1.031152
 Cu 0.0 0.0 0.5   1.028008
 Cu 0.0 0.5 0.5   1.025865
 Cu 0.0 0.5 0.0   1.031069
 C 0.7005 0.2684 0.4147   -0.215178
 C 0.6396 0.3566 0.4863   0.751916
 C 0.7005 0.1463 0.7316   -0.219073
 C 0.6396 0.1297 0.6434   0.751623
 C 0.7005 0.5853 0.8537   -0.219383
 C 0.6396 0.5137 0.8703   0.751848
 C 0.7005 0.7316 0.5853   -0.215189
 C 0.6396 0.6434 0.5137   0.751909
 C 0.7005 0.8537 0.2684   -0.219084
 C 0.6396 0.8703 0.3566   0.751621
 C 0.7005 0.4147 0.1463   -0.219396
 C 0.6396 0.4863 0.1297   0.751842
 C 0.7995 0.8537 0.5853   -0.216647
 C 0.8604 0.8703 0.5137   0.752062
 C 0.7995 0.4147 0.2684   -0.220565
 C 0.8604 0.4863 0.3566   0.751656
 C 0.7995 0.7316 0.1463   -0.220764
 C 0.8604 0.6434 0.1297   0.751961
 C 0.7995 0.1463 0.4147   -0.216659
 C 0.8604 0.1297 0.4863   0.752055
 C 0.7995 0.5853 0.7316   -0.220574
 C 0.8604 0.5137 0.6434   0.751652
 C 0.7995 0.2684 0.8537   -0.220773
 C 0.8604 0.3566 0.8703   0.751955
 C 0.2995 0.7316 0.5853   -0.21518
 C 0.3604 0.6434 0.5137   0.75185
 C 0.2995 0.8537 0.2684   -0.219077
 C 0.3604 0.8703 0.3566   0.751564
 C 0.2995 0.4147 0.1463   -0.219386
 C 0.3604 0.4863 0.1297   0.751787
 C 0.2995 0.2684 0.4147   -0.215192
 C 0.3604 0.3566 0.4863   0.751844
 C 0.2995 0.1463 0.7316   -0.219088
 C 0.3604 0.1297 0.6434   0.751563
 C 0.2995 0.5853 0.8537   -0.219399
 C 0.3604 0.5137 0.8703   0.75178
 C 0.2005 0.1463 0.4147   -0.21665
 C 0.1396 0.1297 0.4863   0.751997
 C 0.2005 0.5853 0.7316   -0.220566
 C 0.1396 0.5137 0.6434   0.75159
 C 0.2005 0.2684 0.8537   -0.220767
 C 0.1396 0.3566 0.8703   0.751905
 C 0.2005 0.8537 0.5853   -0.216663
 C 0.1396 0.8703 0.5137   0.75199
 C 0.2005 0.4147 0.2684   -0.220576
 C 0.1396 0.4863 0.3566   0.751586
 C 0.2005 0.7316 0.1463   -0.220776
 C 0.1396 0.6434 0.1297   0.751899
 O 0.6416 0.3854 0.5784   -0.615956
 O 0.5933 0.3936 0.4429   -0.523819
 O 0.6416 0.193 0.6146   -0.610252
 O 0.5933 0.0493 0.6064   -0.523144
 O 0.6416 0.4216 0.807   -0.612505
 O 0.5933 0.5571 0.9507   -0.525084
 O 0.6416 0.6146 0.4216   -0.615968
 O 0.5933 0.6064 0.5571   -0.52384
 O 0.6416 0.807 0.3854   -0.610262
 O 0.5933 0.9507 0.3936   -0.523162
 O 0.6416 0.5784 0.193   -0.612517
 O 0.5933 0.4429 0.0493   -0.525105
 O 0.8584 0.807 0.4216   -0.616059
 O 0.9067 0.9507 0.5571   -0.52386
 O 0.8584 0.5784 0.3854   -0.610258
 O 0.9067 0.4429 0.3936   -0.523081
 O 0.8584 0.6146 0.193   -0.612445
 O 0.9067 0.6064 0.0493   -0.525061
 O 0.8584 0.193 0.5784   -0.616071
 O 0.9067 0.0493 0.4429   -0.523884
 O 0.8584 0.4216 0.6146   -0.61027
 O 0.9067 0.5571 0.6064   -0.5231
 O 0.8584 0.3854 0.807   -0.612455
 O 0.9067 0.3936 0.9507   -0.525079
 O 0.3584 0.6146 0.4216   -0.615905
 O 0.4067 0.6064 0.5571   -0.523866
 O 0.3584 0.807 0.3854   -0.610199
 O 0.4067 0.9507 0.3936   -0.523182
 O 0.3584 0.5784 0.193   -0.612452
 O 0.4067 0.4429 0.0493   -0.525114
 O 0.3584 0.3854 0.5784   -0.615917
 O 0.4067 0.3936 0.4429   -0.523886
 O 0.3584 0.193 0.6146   -0.610209
 O 0.4067 0.0493 0.6064   -0.5232
 O 0.3584 0.4216 0.807   -0.612464
 O 0.4067 0.5571 0.9507   -0.525136
 O 0.1416 0.193 0.5784   -0.616008
 O 0.0933 0.0493 0.4429   -0.523906
 O 0.1416 0.4216 0.6146   -0.610205
 O 0.0933 0.5571 0.6064   -0.523117
 O 0.1416 0.3854 0.807   -0.612393
 O 0.0933 0.3936 0.9507   -0.525094
 O 0.1416 0.807 0.4216   -0.61602
 O 0.0933 0.9507 0.5571   -0.52393
 O 0.1416 0.5784 0.3854   -0.610217
 O 0.0933 0.4429 0.3936   -0.523135
 O 0.1416 0.6146 0.193   -0.612402
 O 0.0933 0.6064 0.0493   -0.525112
 O 0.75 0.23705 0.4741   0.088512
 O 0.75 0.23705 0.76295   0.095504
 O 0.75 0.5259 0.76295   0.095491
 O 0.75 0.76295 0.5259   0.088512
 O 0.75 0.76295 0.23705   0.095504
 O 0.75 0.4741 0.23705   0.095491
 O 0.25 0.76295 0.5259   0.08857
 O 0.25 0.76295 0.23705   0.095562
 O 0.25 0.4741 0.23705   0.095549
 O 0.25 0.23705 0.4741   0.08857
 O 0.25 0.23705 0.76295   0.095562
 O 0.25 0.5259 0.76295   0.095549
