{'_ref': 'TBD', '_srcid': 'CAKYAQ_clean', 'submitters': [{'name': 'Dalar Nazarian Jeff Camp and David Sholl', 'email': 'dalar@gatech.edu jcamp6@gatech.edu'}], '_method': 'VASP DFT with PBE;DDEC'}
data_LaAgH8C14(NO4)2
_symmetry_space_group_name_H-M   'P 1'
_cell_length_a   9.28640000
_cell_length_b   9.88399960
_cell_length_c   22.44600000
_cell_angle_alpha   90.00000000
_cell_angle_beta   90.00000000
_cell_angle_gamma   116.56400125
_symmetry_Int_Tables_number   1
_chemical_formula_structural   LaAgH8C14(NO4)2
_chemical_formula_sum   'La4 Ag4 H32 C56 N8 O32'
_cell_volume   1842.75686117
_cell_formula_units_Z   4
loop_
 _symmetry_equiv_pos_site_id
 _symmetry_equiv_pos_as_xyz
  1  'x, y, z'
loop_
 _atom_site_label
 _atom_site_fract_x
 _atom_site_fract_y
 _atom_site_fract_z
 _atom_site_charge
 La 0.35977 0.11562 0.00884   2.124645
 La 0.64023 0.38438 0.50884   2.124645
 La 0.64023 0.88438 0.99116   2.124644
 La 0.35977 0.61562 0.49116   2.124644
 Ag 0.31779 0.9745 0.35346   0.335587
 Ag 0.68221 0.5255 0.85346   0.335587
 Ag 0.68221 0.0255 0.64654   0.335587
 Ag 0.31779 0.4745 0.14654   0.335587
 H 0.5988 0.8901 0.3319   0.080892
 H 0.738 0.8608 0.2551   0.127014
 H 0.6819 0.8982 0.1576   0.109712
 H 0.3573 0.0103 0.2222   0.069628
 H 0.811 0.2891 0.8403   0.063485
 H 0.0218 0.2456 0.8697   0.154113
 H 0.2166 0.4357 0.9269   0.086928
 H 0.9699 0.6789 0.9292   0.099688
 H 0.4012 0.6099 0.8319   0.080892
 H 0.262 0.6392 0.7551   0.127014
 H 0.3181 0.6018 0.6576   0.109712
 H 0.6427 0.4897 0.7222   0.069628
 H 0.189 0.2109 0.3403   0.063485
 H 0.9782 0.2544 0.3697   0.154113
 H 0.7834 0.0643 0.4269   0.086929
 H 0.0301 0.8211 0.4292   0.099688
 H 0.4012 0.1099 0.6681   0.080892
 H 0.262 0.1392 0.7449   0.127013
 H 0.3181 0.1018 0.8424   0.109713
 H 0.6427 0.9897 0.7778   0.069627
 H 0.189 0.7109 0.1597   0.063485
 H 0.9782 0.7544 0.1303   0.154113
 H 0.7834 0.5643 0.0731   0.086929
 H 0.0301 0.3211 0.0708   0.099688
 H 0.5988 0.3901 0.1681   0.080892
 H 0.738 0.3608 0.2449   0.127013
 H 0.6819 0.3982 0.3424   0.109713
 H 0.3573 0.5103 0.2778   0.069627
 H 0.811 0.7891 0.6597   0.063485
 H 0.0218 0.7456 0.6303   0.154113
 H 0.2166 0.9357 0.5731   0.086929
 H 0.9699 0.1789 0.5708   0.099688
 C 0.5758 0.9087 0.2933   0.174861
 C 0.6577 0.8904 0.2475   -0.189673
 C 0.6265 0.9143 0.1892   0.06008
 C 0.5134 0.9614 0.1799   -0.206571
 C 0.4361 0.9782 0.2284   0.161658
 C 0.4703 0.997 0.1196   0.740641
 C 0.8907 0.3594 0.8645   0.167451
 C 0.0131 0.3325 0.8805   -0.158566
 C 0.1261 0.4458 0.9149   0.063058
 C 0.1121 0.5808 0.9336   -0.2198
 C 0.985 0.5961 0.9171   0.170122
 C 0.2381 0.7131 0.9695   0.75519
 C 0.4751 0.4981 0.0334   0.525316
 C 0.9926 0.992 0.03352   0.534064
 C 0.4242 0.5913 0.7933   0.174862
 C 0.3423 0.6096 0.7475   -0.189674
 C 0.3735 0.5857 0.6892   0.06008
 C 0.4866 0.5386 0.6799   -0.206571
 C 0.5639 0.5218 0.7284   0.161658
 C 0.5297 0.503 0.6196   0.740641
 C 0.1093 0.1406 0.3645   0.167451
 C 0.9869 0.1675 0.3805   -0.158565
 C 0.8739 0.0542 0.4149   0.063058
 C 0.8879 0.9192 0.4336   -0.2198
 C 0.015 0.9039 0.4171   0.170122
 C 0.7619 0.7869 0.4695   0.75519
 C 0.5249 0.0019 0.5334   0.525316
 C 0.0074 0.508 0.53352   0.534064
 C 0.4242 0.0913 0.7067   0.174861
 C 0.3423 0.1096 0.7525   -0.189674
 C 0.3735 0.0857 0.8108   0.06008
 C 0.4866 0.0386 0.8201   -0.20657
 C 0.5639 0.0218 0.7716   0.161658
 C 0.5297 0.003 0.8804   0.74064
 C 0.1093 0.6406 0.1355   0.167451
 C 0.9869 0.6675 0.1195   -0.158566
 C 0.8739 0.5542 0.0851   0.063058
 C 0.8879 0.4192 0.0664   -0.2198
 C 0.015 0.4039 0.0829   0.170123
 C 0.7619 0.2869 0.0305   0.75519
 C 0.5249 0.5019 0.9666   0.525314
 C 0.0074 0.008 0.96648   0.534067
 C 0.5758 0.4087 0.2067   0.174862
 C 0.6577 0.3904 0.2525   -0.189675
 C 0.6265 0.4143 0.3108   0.06008
 C 0.5134 0.4614 0.3201   -0.20657
 C 0.4361 0.4782 0.2716   0.161658
 C 0.4703 0.497 0.3804   0.74064
 C 0.8907 0.8594 0.6355   0.16745
 C 0.0131 0.8325 0.6195   -0.158565
 C 0.1261 0.9458 0.5851   0.063058
 C 0.1121 0.0808 0.5664   -0.2198
 C 0.985 0.0961 0.5829   0.170123
 C 0.2381 0.2131 0.5305   0.75519
 C 0.4751 0.9981 0.4666   0.525314
 C 0.9926 0.492 0.46648   0.534067
 N 0.464 0.9522 0.2843   -0.280644
 N 0.8758 0.4865 0.8818   -0.311927
 N 0.536 0.5478 0.7843   -0.280645
 N 0.1242 0.0135 0.3818   -0.311927
 N 0.536 0.0478 0.7157   -0.280644
 N 0.1242 0.5135 0.1182   -0.311927
 N 0.464 0.4522 0.2157   -0.280645
 N 0.8758 0.9865 0.6182   -0.311927
 O 0.5201 0.9606 0.07337   -0.77498
 O 0.3837 0.0622 0.11804   -0.632285
 O 0.2087 0.8174 0.99345   -0.738583
 O 0.3621 0.707 0.971   -0.665009
 O 0.3818 0.3728 0.05519   -0.561605
 O 0.539 0.6355 0.05903   -0.642738
 O 0.1146 0.0512 0.06415   -0.602081
 O 0.8593 0.9219 0.0559   -0.619673
 O 0.4799 0.5394 0.57337   -0.77498
 O 0.6163 0.4378 0.61804   -0.632285
 O 0.7913 0.6826 0.49345   -0.738583
 O 0.6379 0.793 0.471   -0.665009
 O 0.6182 0.1272 0.55519   -0.561605
 O 0.461 0.8645 0.55903   -0.642738
 O 0.8854 0.4488 0.56415   -0.602081
 O 0.1407 0.5781 0.5559   -0.619673
 O 0.4799 0.0394 0.92663   -0.77498
 O 0.6163 0.9378 0.88196   -0.632285
 O 0.7913 0.1826 0.00655   -0.738583
 O 0.6379 0.293 0.029   -0.665009
 O 0.6182 0.6272 0.94481   -0.561605
 O 0.461 0.3645 0.94097   -0.642738
 O 0.8854 0.9488 0.93585   -0.602081
 O 0.1407 0.0781 0.9441   -0.619674
 O 0.5201 0.4606 0.42663   -0.77498
 O 0.3837 0.5622 0.38196   -0.632285
 O 0.2087 0.3174 0.50655   -0.738583
 O 0.3621 0.207 0.529   -0.665009
 O 0.3818 0.8728 0.44481   -0.561605
 O 0.539 0.1355 0.44097   -0.642738
 O 0.1146 0.5512 0.43585   -0.602081
 O 0.8593 0.4219 0.4441   -0.619674
