{'_ref': 'TBD', '_srcid': 'CAKYAQ_clean', 'submitters': [{'name': 'Dalar Nazarian Jeff Camp and David Sholl', 'email': 'dalar@gatech.edu jcamp6@gatech.edu'}], '_method': 'VASP DFT with PBE;DDEC'}
data_CaH4(C3O2)3
_symmetry_space_group_name_H-M   'P 1'
_cell_length_a   6.86560038
_cell_length_b   9.12869981
_cell_length_c   9.92090000
_cell_angle_alpha   101.34100129
_cell_angle_beta   99.68300206
_cell_angle_gamma   111.94999844
_symmetry_Int_Tables_number   1
_chemical_formula_structural   CaH4(C3O2)3
_chemical_formula_sum   'Ca2 H8 C18 O12'
_cell_volume   545.111426166
_cell_formula_units_Z   2
loop_
 _symmetry_equiv_pos_site_id
 _symmetry_equiv_pos_as_xyz
  1  'x, y, z'
loop_
 _atom_site_label
 _atom_site_fract_x
 _atom_site_fract_y
 _atom_site_fract_z
 _atom_site_charge
 Ca 0.68682 0.42197 0.89164   1.571131
 Ca 0.31318 0.57803 0.10836   1.571133
 H 0.5081 0.2492 0.5397   0.419857
 H 0.1413 0.8897 0.7367   0.106632
 H 0.1638 0.8912 0.3357   0.104641
 H 0.7165 0.5042 0.4096   0.107437
 H 0.4919 0.7508 0.4603   0.419857
 H 0.8587 0.1103 0.2633   0.106632
 H 0.8362 0.1088 0.6643   0.104641
 H 0.2835 0.4958 0.5904   0.107437
 C 0.9167 0.6825 0.5902   -0.153592
 C 0.9268 0.6853 0.3488   -0.17485
 C 0.0874 0.8378 0.6393   0.041341
 C 0.3575 0.0847 0.6016   0.701717
 C 0.1001 0.8395 0.3991   0.01553
 C 0.822 0.598 0.6942   0.690755
 C 0.8439 0.6048 0.1912   0.785783
 C 0.834 0.6071 0.4438   0.02847
 C 0.1785 0.9166 0.5451   -0.215023
 C 0.0833 0.3175 0.4098   -0.153592
 C 0.0732 0.3147 0.6512   -0.17485
 C 0.9126 0.1622 0.3607   0.041341
 C 0.6425 0.9153 0.3984   0.701717
 C 0.8999 0.1605 0.6009   0.01553
 C 0.178 0.402 0.3058   0.690755
 C 0.1561 0.3952 0.8088   0.785783
 C 0.166 0.3929 0.5562   0.02847
 C 0.8215 0.0834 0.4549   -0.215023
 O 0.6764 0.45292 0.64885   -0.71679
 O 0.9784 0.6027 0.1208   -0.74665
 O 0.4182 0.15365 0.50235   -0.514188
 O 0.6422 0.541 0.13354   -0.767457
 O 0.4382 0.15175 0.72896   -0.613905
 O 0.8889 0.6729 0.82456   -0.670841
 O 0.3236 0.54708 0.35115   -0.71679
 O 0.0216 0.3973 0.8792   -0.74665
 O 0.5818 0.84635 0.49765   -0.514188
 O 0.3578 0.459 0.86646   -0.767456
 O 0.5618 0.84825 0.27104   -0.613905
 O 0.1111 0.3271 0.17544   -0.670841
