{'_ref': 'TBD', '_srcid': 'CAKYAQ_clean', 'submitters': [{'name': 'Dalar Nazarian Jeff Camp and David Sholl', 'email': 'dalar@gatech.edu jcamp6@gatech.edu'}], '_method': 'VASP DFT with PBE;DDEC'}
data_Zn2H24(C11O4)3
_symmetry_space_group_name_H-M   'P 1'
_cell_length_a   13.17699983
_cell_length_b   13.22690000
_cell_length_c   13.22690016
_cell_angle_alpha   88.43509948
_cell_angle_beta   79.87130041
_cell_angle_gamma   79.87100065
_symmetry_Int_Tables_number   1
_chemical_formula_structural   Zn2H24(C11O4)3
_chemical_formula_sum   'Zn4 H48 C66 O24'
_cell_volume   2234.01398586
_cell_formula_units_Z   2
loop_
 _symmetry_equiv_pos_site_id
 _symmetry_equiv_pos_as_xyz
  1  'x, y, z'
loop_
 _atom_site_label
 _atom_site_fract_x
 _atom_site_fract_y
 _atom_site_fract_z
 _atom_site_charge
 Zn 0.00373 0.29247 0.36323   1.014111
 Zn 0.19129 0.389 0.23598   1.068997
 Zn 0.50373 0.36323 0.29247   1.014103
 Zn 0.69129 0.23598 0.389   1.069002
 H 0.492 0.7916 0.9974   0.066092
 H 0.4578 0.8708 0.9134   0.061349
 H 0.6302 0.9795 0.8703   0.064559
 H 0.5872 0.9336 0.7812   0.068811
 H 0.6195 0.6717 0.8701   0.066132
 H 0.6992 0.7172 0.7862   0.062593
 H 0.7046 0.8613 0.9999   0.065823
 H 0.7696 0.7784 0.9196   0.057571
 H 0.3141 0.909 0.032   0.11479
 H 0.4954 0.0782 0.143   0.131957
 H 0.168 0.0127 0.1213   0.088114
 H 0.3512 0.1782 0.2306   0.090688
 H 0.6413 0.082 0.7238   0.132905
 H 0.9105 0.8812 0.6524   0.128185
 H 0.7061 0.1929 0.5987   0.095725
 H 0.9765 0.996 0.536   0.104805
 H 0.4277 0.7353 0.6451   0.127524
 H 0.6972 0.5829 0.7141   0.130344
 H 0.4335 0.6152 0.5192   0.09549
 H 0.7078 0.4687 0.5803   0.102353
 H 0.8744 0.7274 0.0224   0.120386
 H 0.6471 0.5702 0.1374   0.137967
 H 0.9897 0.6156 0.0998   0.078971
 H 0.7651 0.4578 0.2146   0.10101
 H 0.992 0.9974 0.7916   0.06609
 H 0.9578 0.9134 0.8708   0.061353
 H 0.1302 0.8703 0.9795   0.064562
 H 0.0872 0.7812 0.9336   0.068805
 H 0.1195 0.8701 0.6717   0.066139
 H 0.1992 0.7862 0.7172   0.062597
 H 0.2046 0.9999 0.8613   0.06582
 H 0.2696 0.9196 0.7784   0.057575
 H 0.8141 0.032 0.909   0.114796
 H 0.9954 0.143 0.0782   0.131935
 H 0.668 0.1213 0.0127   0.088124
 H 0.8512 0.2306 0.1782   0.090687
 H 0.1413 0.7238 0.082   0.132903
 H 0.4105 0.6524 0.8812   0.128184
 H 0.2061 0.5987 0.1929   0.095723
 H 0.4765 0.536 0.996   0.1048
 H 0.9277 0.6451 0.7353   0.127516
 H 0.1972 0.7141 0.5829   0.130337
 H 0.9335 0.5192 0.6152   0.095482
 H 0.2078 0.5803 0.4687   0.102357
 H 0.3744 0.0224 0.7274   0.120383
 H 0.1471 0.1374 0.5702   0.137968
 H 0.4897 0.0998 0.6156   0.078977
 H 0.2651 0.2146 0.4578   0.101014
 C 0.6183 0.8256 0.894   -0.050035
 C 0.5093 0.8507 0.9575   0.080073
 C 0.6378 0.9196 0.827   0.068965
 C 0.6294 0.731 0.827   0.072514
 C 0.7015 0.8009 0.9615   0.076208
 C 0.4193 0.9849 0.0753   0.302687
 C 0.3215 0.964 0.0708   -0.289963
 C 0.4293 0.0656 0.1378   -0.218103
 C 0.2343 0.0259 0.1249   0.038069
 C 0.3435 0.1247 0.1899   0.027028
 C 0.244 0.1075 0.1845   -0.242636
 C 0.1484 0.1712 0.2414   0.677109
 C 0.7705 0.9704 0.6996   0.291956
 C 0.7079 0.0642 0.685   -0.263723
 C 0.8698 0.9445 0.6429   -0.233904
 C 0.7476 0.1307 0.6105   0.02113
 C 0.9085 0.0123 0.5723   0.019659
 C 0.8459 0.1064 0.5548   -0.229032
 C 0.8891 0.1782 0.478   0.689563
 C 0.5637 0.6721 0.6891   0.306165
 C 0.4838 0.6811 0.6325   -0.259024
 C 0.6456 0.5912 0.6732   -0.292779
 C 0.4874 0.6092 0.557   0.022532
 C 0.6502 0.5213 0.5945   0.033496
 C 0.571 0.5284 0.5374   -0.210153
 C 0.5775 0.4506 0.457   0.72252
 C 0.7495 0.6601 0.0723   0.304654
 C 0.852 0.6732 0.061   -0.291759
 C 0.7165 0.5791 0.1297   -0.241636
 C 0.9206 0.6057 0.1069   0.036477
 C 0.7875 0.5117 0.1753   0.0368
 C 0.891 0.5231 0.1637   -0.223857
 C 0.9689 0.4497 0.2103   0.737259
 C 0.1183 0.894 0.8256   -0.050041
 C 0.0093 0.9575 0.8507   0.080071
 C 0.1378 0.827 0.9196   0.068981
 C 0.1294 0.827 0.731   0.072516
 C 0.2015 0.9615 0.8009   0.076215
 C 0.9193 0.0753 0.9849   0.302659
 C 0.8215 0.0708 0.964   -0.289966
 C 0.9293 0.1378 0.0656   -0.218071
 C 0.7343 0.1249 0.0259   0.038086
 C 0.8435 0.1899 0.1247   0.027029
 C 0.744 0.1845 0.1075   -0.242684
 C 0.6484 0.2414 0.1712   0.677144
 C 0.2705 0.6996 0.9704   0.291964
 C 0.2079 0.685 0.0642   -0.263726
 C 0.3698 0.6429 0.9445   -0.233906
 C 0.2476 0.6105 0.1307   0.021135
 C 0.4085 0.5723 0.0123   0.019662
 C 0.3459 0.5548 0.1064   -0.229031
 C 0.3891 0.478 0.1782   0.689588
 C 0.0637 0.6891 0.6721   0.306177
 C 0.9838 0.6325 0.6811   -0.258991
 C 0.1456 0.6732 0.5912   -0.292815
 C 0.9874 0.557 0.6092   0.022541
 C 0.1502 0.5945 0.5213   0.033493
 C 0.071 0.5374 0.5284   -0.210148
 C 0.0775 0.457 0.4506   0.722519
 C 0.2495 0.0723 0.6601   0.304649
 C 0.352 0.061 0.6732   -0.291741
 C 0.2165 0.1297 0.5791   -0.241639
 C 0.4206 0.1069 0.6057   0.036479
 C 0.2875 0.1753 0.5117   0.036811
 C 0.391 0.1637 0.5231   -0.22388
 C 0.4689 0.2103 0.4497   0.737254
 O 0.511 0.9331 0.0235   -0.262716
 O 0.74 0.89856 0.76984   -0.268841
 O 0.554 0.74731 0.76111   -0.287108
 O 0.6737 0.72178 0.02942   -0.269296
 O 0.0611 0.14987 0.24447   -0.535981
 O 0.1593 0.25135 0.29119   -0.673289
 O 0.8331 0.23652 0.42568   -0.594811
 O 0.9854 0.18137 0.46683   -0.534608
 O 0.5097 0.4631 0.4001   -0.609207
 O 0.6528 0.3779 0.4509   -0.623937
 O 0.0601 0.4651 0.1947   -0.636585
 O 0.9354 0.37753 0.26207   -0.599135
 O 0.011 0.0235 0.9331   -0.262703
 O 0.24 0.76984 0.89856   -0.268847
 O 0.054 0.76111 0.74731   -0.287125
 O 0.1737 0.02942 0.72178   -0.2693
 O 0.5611 0.24447 0.14987   -0.535988
 O 0.6593 0.29119 0.25135   -0.673288
 O 0.3331 0.42568 0.23652   -0.594834
 O 0.4854 0.46683 0.18137   -0.534612
 O 0.0097 0.4001 0.4631   -0.609213
 O 0.1528 0.4509 0.3779   -0.623936
 O 0.5601 0.1947 0.4651   -0.636588
 O 0.4354 0.26207 0.37753   -0.599129
