{'_ref': 'TBD', '_srcid': 'CAKYAQ_clean', 'submitters': [{'name': 'Dalar Nazarian Jeff Camp and David Sholl', 'email': 'dalar@gatech.edu jcamp6@gatech.edu'}], '_method': 'VASP DFT with PBE;DDEC'}
data_Na2Sn2Te3H14(C4O3)2
_symmetry_space_group_name_H-M   'P 1'
_cell_length_a   11.70899985
_cell_length_b   11.79599993
_cell_length_c   12.19000000
_cell_angle_alpha   76.13000039
_cell_angle_beta   88.96000173
_cell_angle_gamma   73.80000169
_symmetry_Int_Tables_number   1
_chemical_formula_structural   Na2Sn2Te3H14(C4O3)2
_chemical_formula_sum   'Na4 Sn4 Te6 H28 C16 O12'
_cell_volume   1567.53378669
_cell_formula_units_Z   2
loop_
 _symmetry_equiv_pos_site_id
 _symmetry_equiv_pos_as_xyz
  1  'x, y, z'
loop_
 _atom_site_label
 _atom_site_fract_x
 _atom_site_fract_y
 _atom_site_fract_z
 _atom_site_charge
 Na 0.5973 0.0919 0.7698   0.906715
 Na 0.5835 0.0796 0.0703   0.913507
 Na 0.4027 0.9081 0.2302   0.906717
 Na 0.4165 0.9204 0.9297   0.913509
 Sn 0.10538 0.41585 0.91053   0.570755
 Sn 0.91301 0.44607 0.61811   0.617334
 Sn 0.89462 0.58415 0.08947   0.570754
 Sn 0.08699 0.55393 0.38189   0.617332
 Te 0.93088 0.64306 0.86285   -0.26039
 Te 0.02325 0.27097 0.80477   -0.223355
 Te 0.96857 0.37054 0.42414   -0.287534
 Te 0.06912 0.35694 0.13715   -0.26039
 Te 0.97675 0.72903 0.19523   -0.223355
 Te 0.03143 0.62946 0.57586   -0.287529
 H 0.3159 0.4636 0.896   0.128374
 H 0.2514 0.5175 0.7764   0.11322
 H 0.4169 0.3413 0.7815   0.130896
 H 0.2988 0.3277 0.738   0.103547
 H 0.6879 0.5649 0.5729   0.132674
 H 0.7347 0.6153 0.6644   0.098448
 H 0.5989 0.5003 0.737   0.117579
 H 0.7196 0.4535 0.8065   0.097924
 H 0.5773 0.7487 0.7642   0.0467
 H 0.5454 0.8744 0.6747   0.048489
 H 0.6788 0.805 0.713   0.057529
 H 0.8381 0.1107 0.8949   0.084814
 H 0.8845 0.0071 0.0049   0.043291
 H 0.8896 0.9754 0.8868   0.068596
 H 0.6841 0.5364 0.104   0.128369
 H 0.7486 0.4825 0.2236   0.113219
 H 0.5831 0.6587 0.2185   0.130895
 H 0.7012 0.6723 0.262   0.103545
 H 0.3121 0.4351 0.4271   0.132668
 H 0.2653 0.3847 0.3356   0.098448
 H 0.4011 0.4997 0.263   0.117578
 H 0.2804 0.5465 0.1935   0.09792
 H 0.4227 0.2513 0.2358   0.046699
 H 0.4546 0.1256 0.3253   0.04849
 H 0.3212 0.195 0.287   0.057529
 H 0.1619 0.8893 0.1051   0.084814
 H 0.1155 0.9929 0.9951   0.043288
 H 0.1104 0.0246 0.1132   0.068594
 C 0.2696 0.4481 0.8401   -0.357945
 C 0.3395 0.3338 0.803   -0.272355
 C 0.3538 0.2189 0.8959   0.688253
 C 0.7352 0.5423 0.6424   -0.37209
 C 0.6823 0.4613 0.7346   -0.257994
 C 0.6976 0.3364 0.7165   0.719924
 C 0.5987 0.8231 0.7372   0.045926
 C 0.8447 0.0274 0.9317   0.016554
 C 0.7304 0.5519 0.1599   -0.357943
 C 0.6605 0.6662 0.197   -0.272354
 C 0.6462 0.7811 0.1041   0.688253
 C 0.2648 0.4577 0.3576   -0.372088
 C 0.3177 0.5387 0.2654   -0.257993
 C 0.3024 0.6636 0.2835   0.719924
 C 0.4013 0.1769 0.2628   0.045926
 C 0.1553 0.9726 0.0683   0.016555
 O 0.4385 0.1242 0.8939   -0.82904
 O 0.277 0.2199 0.9716   -0.437739
 O 0.7759 0.2997 0.6482   -0.618645
 O 0.6372 0.2727 0.7707   -0.730634
 O 0.5906 0.8833 0.8247   -0.625898
 O 0.7315 0.0112 0.944   -0.477425
 O 0.5615 0.8758 0.1061   -0.82904
 O 0.723 0.7801 0.0284   -0.437736
 O 0.2241 0.7003 0.3518   -0.618645
 O 0.3628 0.7273 0.2293   -0.730634
 O 0.4094 0.1167 0.1753   -0.625896
 O 0.2685 0.9888 0.056   -0.477425
