{'_ref': 'TBD', '_srcid': 'CAKYAQ_clean', 'submitters': [{'name': 'Dalar Nazarian Jeff Camp and David Sholl', 'email': 'dalar@gatech.edu jcamp6@gatech.edu'}], '_method': 'VASP DFT with PBE;DDEC'}
data_ZnH5C10N3O4
_symmetry_space_group_name_H-M   'P 1'
_cell_length_a   12.91400045
_cell_length_b   12.91400042
_cell_length_c   14.76500000
_cell_angle_alpha   91.52239937
_cell_angle_beta   91.52239936
_cell_angle_gamma   90.35760194
_symmetry_Int_Tables_number   1
_chemical_formula_structural   ZnH5C10N3O4
_chemical_formula_sum   'Zn6 H30 C60 N18 O24'
_cell_volume   2460.58230381
_cell_formula_units_Z   6
loop_
 _symmetry_equiv_pos_site_id
 _symmetry_equiv_pos_as_xyz
  1  'x, y, z'
loop_
 _atom_site_label
 _atom_site_fract_x
 _atom_site_fract_y
 _atom_site_fract_z
 _atom_site_charge
 Zn 0.06584 0.58884 0.77449   0.852477
 Zn 0.41116 0.93416 0.72551   0.852477
 Zn 0.93416 0.41116 0.22551   0.852477
 Zn 0.58884 0.06584 0.27449   0.852477
 Zn 0.61826 0.38174 0.75   0.812338
 Zn 0.38174 0.61826 0.25   0.812338
 H 0.842 0.556 0.509   0.415388
 H 0.7679 0.4763 0.0929   0.078554
 H 0.7353 0.4961 0.9438   0.137615
 H 0.0042 0.361 0.8903   0.139088
 H 0.031 0.3426 0.0432   0.096646
 H 0.4529 0.4687 0.625   0.087596
 H 0.3207 0.5863 0.6246   0.142057
 H 0.444 0.158 0.991   0.415388
 H 0.5237 0.2321 0.4071   0.078554
 H 0.5039 0.2647 0.5562   0.137615
 H 0.639 0.9958 0.6097   0.139088
 H 0.6574 0.969 0.4568   0.096646
 H 0.5313 0.5471 0.875   0.087596
 H 0.4137 0.6793 0.8754   0.142057
 H 0.158 0.444 0.491   0.415388
 H 0.2321 0.5237 0.9071   0.078554
 H 0.2647 0.5039 0.0562   0.137615
 H 0.9958 0.639 0.1097   0.139088
 H 0.969 0.6574 0.9568   0.096646
 H 0.5471 0.5313 0.375   0.087596
 H 0.6793 0.4137 0.3754   0.142057
 H 0.556 0.842 0.009   0.415388
 H 0.4763 0.7679 0.5929   0.078554
 H 0.4961 0.7353 0.4438   0.137615
 H 0.361 0.0042 0.3903   0.139088
 H 0.3426 0.031 0.5432   0.096646
 H 0.4687 0.4529 0.125   0.087597
 H 0.5863 0.3207 0.1246   0.142057
 H 0.037 0.963 0.75   0.346322
 H 0.963 0.037 0.25   0.346322
 C 0.8526 0.4556 0.8023   0.374332
 C 0.8868 0.5108 0.6705   -0.011022
 C 0.79 0.4706 0.6662   0.013665
 C 0.9479 0.5637 0.6024   0.651978
 C 0.7124 0.458 0.5911   0.628429
 C 0.8169 0.4543 0.0517   0.157141
 C 0.7972 0.4658 0.9625   -0.144087
 C 0.8665 0.4337 0.8985   0.056996
 C 0.9556 0.386 0.9306   -0.178544
 C 0.9717 0.3759 0.0225   0.171698
 C 0.1241 0.7999 0.7556   -0.006521
 C 0.0128 0.8068 0.7656   0.626502
 C 0.4429 0.5093 0.6769   0.173023
 C 0.3648 0.5814 0.6752   -0.183218
 C 0.5444 0.1474 0.6977   0.374332
 C 0.4892 0.1132 0.8295   -0.011022
 C 0.5294 0.21 0.8338   0.013665
 C 0.4363 0.0521 0.8976   0.651978
 C 0.542 0.2876 0.9089   0.62843
 C 0.5457 0.1831 0.4483   0.157141
 C 0.5342 0.2028 0.5375   -0.144087
 C 0.5663 0.1335 0.6015   0.056996
 C 0.614 0.0444 0.5694   -0.178544
 C 0.6241 0.0283 0.4775   0.171698
 C 0.2001 0.8759 0.7444   -0.006518
 C 0.1932 0.9872 0.7344   0.626502
 C 0.4907 0.5571 0.8231   0.173023
 C 0.4186 0.6352 0.8248   -0.183218
 C 0.1474 0.5444 0.1977   0.374332
 C 0.1132 0.4892 0.3295   -0.011022
 C 0.21 0.5294 0.3338   0.013665
 C 0.0521 0.4363 0.3976   0.651978
 C 0.2876 0.542 0.4089   0.628429
 C 0.1831 0.5457 0.9483   0.157141
 C 0.2028 0.5342 0.0375   -0.144087
 C 0.1335 0.5663 0.1015   0.056996
 C 0.0444 0.614 0.0694   -0.178544
 C 0.0283 0.6241 0.9775   0.171698
 C 0.8759 0.2001 0.2444   -0.00652
 C 0.9872 0.1932 0.2344   0.626502
 C 0.5571 0.4907 0.3231   0.173023
 C 0.6352 0.4186 0.3248   -0.183218
 C 0.4556 0.8526 0.3023   0.374332
 C 0.5108 0.8868 0.1705   -0.011022
 C 0.4706 0.79 0.1662   0.013665
 C 0.5637 0.9479 0.1024   0.651978
 C 0.458 0.7124 0.0911   0.62843
 C 0.4543 0.8169 0.5517   0.157141
 C 0.4658 0.7972 0.4625   -0.144087
 C 0.4337 0.8665 0.3985   0.056996
 C 0.386 0.9556 0.4306   -0.178544
 C 0.3759 0.9717 0.5225   0.171698
 C 0.7999 0.1241 0.2556   -0.006518
 C 0.8068 0.0128 0.2656   0.626501
 C 0.5093 0.4429 0.1769   0.173023
 C 0.5814 0.3648 0.1752   -0.183218
 C 0.2726 0.7274 0.75   0.373059
 C 0.3533 0.6467 0.75   0.026596
 C 0.7274 0.2726 0.25   0.373059
 C 0.6467 0.3533 0.25   0.026596
 N 0.9286 0.502 0.7563   -0.42611
 N 0.766 0.4356 0.7511   -0.414337
 N 0.9049 0.4123 0.0829   -0.362952
 N 0.1717 0.7075 0.7568   -0.402667
 N 0.498 0.0714 0.7437   -0.42611
 N 0.5644 0.234 0.7489   -0.414337
 N 0.5877 0.0951 0.4171   -0.362952
 N 0.2925 0.8283 0.7432   -0.402667
 N 0.0714 0.498 0.2437   -0.42611
 N 0.234 0.5644 0.2489   -0.414337
 N 0.0951 0.5877 0.9171   -0.362952
 N 0.8283 0.2925 0.2432   -0.402667
 N 0.502 0.9286 0.2563   -0.42611
 N 0.4356 0.766 0.2511   -0.414337
 N 0.4123 0.9049 0.5829   -0.362952
 N 0.7075 0.1717 0.2568   -0.402667
 N 0.5058 0.4942 0.75   -0.328691
 N 0.4942 0.5058 0.25   -0.328691
 O 0.0367 0.5949 0.6241   -0.519351
 O 0.9073 0.5761 0.5231   -0.500938
 O 0.6314 0.4086 0.6084   -0.595077
 O 0.7316 0.4956 0.5164   -0.587333
 O 0.964 0.726 0.7802   -0.563701
 O 0.9692 0.896 0.7605   -0.522141
 O 0.4051 0.9633 0.8759   -0.519351
 O 0.4239 0.0927 0.9769   -0.500938
 O 0.5914 0.3686 0.8916   -0.595077
 O 0.5044 0.2684 0.9836   -0.587333
 O 0.274 0.036 0.7198   -0.563701
 O 0.104 0.0308 0.7395   -0.522141
 O 0.9633 0.4051 0.3759   -0.519351
 O 0.0927 0.4239 0.4769   -0.500939
 O 0.3686 0.5914 0.3916   -0.595077
 O 0.2684 0.5044 0.4836   -0.587333
 O 0.036 0.274 0.2198   -0.563701
 O 0.0308 0.104 0.2395   -0.522141
 O 0.5949 0.0367 0.1241   -0.519351
 O 0.5761 0.9073 0.0231   -0.500939
 O 0.4086 0.6314 0.1084   -0.595077
 O 0.4956 0.7316 0.0164   -0.587333
 O 0.726 0.964 0.2802   -0.563701
 O 0.896 0.9692 0.2605   -0.522141
