{'_ref': 'TBD', '_srcid': 'CAKYAQ_clean', 'submitters': [{'name': 'Dalar Nazarian Jeff Camp and David Sholl', 'email': 'dalar@gatech.edu jcamp6@gatech.edu'}], '_method': 'VASP DFT with PBE;DDEC'}
data_LaH7C15O7
_symmetry_space_group_name_H-M   'P 1'
_cell_length_a   9.36000031
_cell_length_b   9.93599960
_cell_length_c   11.38400000
_cell_angle_alpha   93.18200113
_cell_angle_beta   97.61700265
_cell_angle_gamma   110.27100110
_symmetry_Int_Tables_number   1
_chemical_formula_structural   LaH7C15O7
_chemical_formula_sum   'La2 H14 C30 O14'
_cell_volume   978.511926071
_cell_formula_units_Z   2
loop_
 _symmetry_equiv_pos_site_id
 _symmetry_equiv_pos_as_xyz
  1  'x, y, z'
loop_
 _atom_site_label
 _atom_site_fract_x
 _atom_site_fract_y
 _atom_site_fract_z
 _atom_site_charge
 La 0.71561 0.95199 0.01691   2.13482
 La 0.28439 0.04801 0.98309   2.134819
 H 0.6867 0.5059 0.9656   0.117474
 H 0.8096 0.2162 0.7793   0.131978
 H 0.0858 0.6355 0.8352   0.13458
 H 0.8295 0.4009 0.5711   0.135211
 H 0.741 0.2774 0.3815   0.098683
 H 0.0702 0.1071 0.4257   0.092117
 H 0.1604 0.2284 0.6151   0.150201
 H 0.3133 0.4941 0.0344   0.117473
 H 0.1904 0.7838 0.2207   0.131978
 H 0.9142 0.3645 0.1648   0.13458
 H 0.1705 0.5991 0.4289   0.135211
 H 0.259 0.7226 0.6185   0.098683
 H 0.9298 0.8929 0.5743   0.092117
 H 0.8396 0.7716 0.3849   0.150201
 C 0.9282 0.7419 0.9704   0.763275
 C 0.892 0.5928 0.911   -0.132308
 C 0.7564 0.4847 0.9237   -0.036347
 C 0.7238 0.3441 0.8738   -0.092325
 C 0.5783 0.2265 0.8923   0.720663
 C 0.8272 0.3105 0.8095   -0.159471
 C 0.958 0.4255 0.793   0.256732
 C 0.9945 0.563 0.8444   -0.138855
 C 0.0043 0.324 0.6114   0.295031
 C 0.8771 0.3409 0.5419   -0.268153
 C 0.8242 0.2664 0.4291   0.023511
 C 0.8933 0.1762 0.3865   -0.196392
 C 0.8292 0.0892 0.2678   0.683877
 C 0.0207 0.1648 0.4557   0.010314
 C 0.0756 0.238 0.5687   -0.229105
 C 0.0718 0.2581 0.0296   0.763275
 C 0.108 0.4072 0.089   -0.132308
 C 0.2436 0.5153 0.0763   -0.036347
 C 0.2762 0.6559 0.1262   -0.092325
 C 0.4217 0.7735 0.1077   0.720663
 C 0.1728 0.6895 0.1905   -0.159471
 C 0.042 0.5745 0.207   0.256733
 C 0.0055 0.437 0.1556   -0.138853
 C 0.9957 0.676 0.3886   0.295032
 C 0.1229 0.6591 0.4581   -0.268152
 C 0.1758 0.7336 0.5709   0.023511
 C 0.1067 0.8238 0.6135   -0.196392
 C 0.1708 0.9108 0.7322   0.683877
 C 0.9793 0.8352 0.5443   0.010315
 C 0.9244 0.762 0.4313   -0.229105
 O 0.058 0.8361 0.9702   -0.7471
 O 0.8222 0.7641 0.0187   -0.712779
 O 0.4555 0.2544 0.8816   -0.611059
 O 0.5832 0.1054 0.9218   -0.804606
 O 0.0623 0.3978 0.7248   -0.265077
 O 0.7136 0.1061 0.2043   -0.702648
 O 0.8862 0.0016 0.2289   -0.652243
 O 0.942 0.1639 0.0298   -0.7471
 O 0.1778 0.2359 0.9813   -0.712779
 O 0.5445 0.7456 0.1184   -0.61106
 O 0.4168 0.8946 0.0782   -0.804606
 O 0.9377 0.6022 0.2752   -0.265077
 O 0.2864 0.8939 0.7957   -0.702649
 O 0.1138 0.9984 0.7711   -0.652243
