{'_ref': 'TBD', '_srcid': 'CAKYAQ_clean', 'submitters': [{'name': 'Dalar Nazarian Jeff Camp and David Sholl', 'email': 'dalar@gatech.edu jcamp6@gatech.edu'}], '_method': 'VASP DFT with PBE;DDEC'}
data_AlH5C8O5
_symmetry_space_group_name_H-M   'P 1'
_cell_length_a   6.58440000
_cell_length_b   12.26200000
_cell_length_c   17.01900000
_cell_angle_alpha   90.00000000
_cell_angle_beta   90.00000000
_cell_angle_gamma   90.00000000
_symmetry_Int_Tables_number   1
_chemical_formula_structural   AlH5C8O5
_chemical_formula_sum   'Al4 H20 C32 O20'
_cell_volume   1374.07853794
_cell_formula_units_Z   4
loop_
 _symmetry_equiv_pos_site_id
 _symmetry_equiv_pos_as_xyz
  1  'x, y, z'
loop_
 _atom_site_label
 _atom_site_fract_x
 _atom_site_fract_y
 _atom_site_fract_z
 _atom_site_charge
 Al 0.0 0.0 0.0   1.781715
 Al 0.0 0.5 0.5   1.781715
 Al 0.5 0.0 0.0   1.781714
 Al 0.5 0.5 0.5   1.781714
 H 0.054 0.68 0.2966   0.103989
 H 0.946 0.18 0.2034   0.103989
 H 0.554 0.32 0.7034   0.103989
 H 0.446 0.82 0.7966   0.103989
 H 0.946 0.32 0.7034   0.103988
 H 0.054 0.82 0.7966   0.103988
 H 0.446 0.68 0.2966   0.103988
 H 0.554 0.18 0.2034   0.103988
 H 0.0541 0.7825 0.1823   0.10718
 H 0.9459 0.2825 0.3177   0.10718
 H 0.5541 0.2175 0.8177   0.10718
 H 0.4459 0.7175 0.6823   0.10718
 H 0.9459 0.2175 0.8177   0.107181
 H 0.0541 0.7175 0.6823   0.107181
 H 0.4459 0.7825 0.1823   0.107181
 H 0.5541 0.2825 0.3177   0.107181
 H 0.75 0.1284 0.017   0.506045
 H 0.25 0.6284 0.483   0.506045
 H 0.25 0.8716 0.983   0.506045
 H 0.75 0.3716 0.517   0.506045
 C 0.9317 0.7013 0.27391   -0.05241
 C 0.0683 0.2013 0.22609   -0.05241
 C 0.4317 0.2987 0.72609   -0.05241
 C 0.5683 0.7987 0.77391   -0.05241
 C 0.0683 0.2987 0.72609   -0.05241
 C 0.9317 0.7987 0.77391   -0.052411
 C 0.5683 0.7013 0.27391   -0.05241
 C 0.4317 0.2013 0.22609   -0.052411
 C 0.9318 0.762 0.20527   -0.055423
 C 0.0682 0.262 0.29473   -0.055423
 C 0.4318 0.238 0.79473   -0.055423
 C 0.5682 0.738 0.70527   -0.055423
 C 0.0682 0.238 0.79473   -0.055423
 C 0.9318 0.738 0.70527   -0.055423
 C 0.5682 0.762 0.20527   -0.055423
 C 0.4318 0.262 0.29473   -0.055423
 C 0.75 0.6099 0.38409   0.74405
 C 0.25 0.1099 0.11591   0.74405
 C 0.25 0.3901 0.61591   0.74405
 C 0.75 0.8901 0.88409   0.74405
 C 0.75 0.6723 0.30865   -0.142269
 C 0.25 0.1723 0.19135   -0.142269
 C 0.25 0.3277 0.69135   -0.142269
 C 0.75 0.8277 0.80865   -0.142269
 C 0.75 0.8629 0.09934   0.741836
 C 0.25 0.3629 0.40066   0.741836
 C 0.25 0.1371 0.90066   0.741836
 C 0.75 0.6371 0.59934   0.741836
 C 0.75 0.7923 0.17087   -0.135414
 C 0.25 0.2923 0.32913   -0.135414
 C 0.25 0.2077 0.82913   -0.135414
 C 0.75 0.7077 0.67087   -0.135414
 O 0.9201 0.89083 0.0723   -0.645691
 O 0.0799 0.39083 0.4277   -0.645691
 O 0.4201 0.10917 0.9277   -0.645691
 O 0.5799 0.60917 0.5723   -0.645691
 O 0.0799 0.10917 0.9277   -0.645691
 O 0.9201 0.60917 0.5723   -0.645691
 O 0.5799 0.89083 0.0723   -0.645691
 O 0.4201 0.39083 0.4277   -0.645691
 O 0.9202 0.58606 0.41325   -0.645222
 O 0.0798 0.08606 0.08675   -0.645222
 O 0.4202 0.41394 0.58675   -0.645222
 O 0.5798 0.91394 0.91325   -0.645222
 O 0.0798 0.41394 0.58675   -0.645222
 O 0.9202 0.91394 0.91325   -0.645222
 O 0.5798 0.58606 0.41325   -0.645222
 O 0.4202 0.08606 0.08675   -0.645222
 O 0.75 0.06418 0.00511   -1.120808
 O 0.25 0.56418 0.49489   -1.120808
 O 0.25 0.93582 0.99489   -1.120808
 O 0.75 0.43582 0.50511   -1.120808
