{'_ref': 'TBD', '_srcid': 'CAKYAQ_clean', 'submitters': [{'name': 'Dalar Nazarian Jeff Camp and David Sholl', 'email': 'dalar@gatech.edu jcamp6@gatech.edu'}], '_method': 'VASP DFT with PBE;DDEC'}
data_NdH3(C3O2)3
_symmetry_space_group_name_H-M   'P 1'
_cell_length_a   10.45200000
_cell_length_b   10.45200000
_cell_length_c   13.84860000
_cell_angle_alpha   90.00000000
_cell_angle_beta   90.00000000
_cell_angle_gamma   90.00000000
_symmetry_Int_Tables_number   1
_chemical_formula_structural   NdH3(C3O2)3
_chemical_formula_sum   'Nd4 H12 C36 O24'
_cell_volume   1512.88066837
_cell_formula_units_Z   4
loop_
 _symmetry_equiv_pos_site_id
 _symmetry_equiv_pos_as_xyz
  1  'x, y, z'
loop_
 _atom_site_label
 _atom_site_fract_x
 _atom_site_fract_y
 _atom_site_fract_z
 _atom_site_charge
 Nd 0.8781 0.1219 0.125   2.331009
 Nd 0.1219 0.8781 0.625   2.331009
 Nd 0.8781 0.8781 0.375   2.331009
 Nd 0.1219 0.1219 0.875   2.331009
 H 0.9373 0.4629 0.3641   0.114015
 H 0.0627 0.5371 0.8641   0.114015
 H 0.5371 0.9373 0.6141   0.114015
 H 0.4629 0.0627 0.1141   0.114015
 H 0.0627 0.4629 0.6359   0.114015
 H 0.9373 0.5371 0.1359   0.114015
 H 0.4629 0.9373 0.3859   0.114015
 H 0.5371 0.0627 0.8859   0.114015
 H 0.0 0.1325 0.5   0.057007
 H 0.0 0.8675 0.0   0.057007
 H 0.8675 0.0 0.75   0.057007
 H 0.1325 0.0 0.25   0.057007
 C 0.9299 0.2125 0.3291   0.807258
 C 0.9662 0.283 0.4167   -0.201592
 C 0.9637 0.4177 0.4184   0.047881
 C 0.0701 0.7875 0.8291   0.807258
 C 0.0338 0.717 0.9167   -0.201592
 C 0.0363 0.5823 0.9184   0.047881
 C 0.7875 0.9299 0.5791   0.807258
 C 0.717 0.9662 0.6667   -0.201592
 C 0.5823 0.9637 0.6684   0.04788
 C 0.2125 0.0701 0.0791   0.807258
 C 0.283 0.0338 0.1667   -0.201592
 C 0.4177 0.0363 0.1684   0.04788
 C 0.0701 0.2125 0.6709   0.807258
 C 0.0338 0.283 0.5833   -0.201592
 C 0.0363 0.4177 0.5816   0.04788
 C 0.9299 0.7875 0.1709   0.807258
 C 0.9662 0.717 0.0833   -0.201592
 C 0.9637 0.5823 0.0816   0.04788
 C 0.2125 0.9299 0.4209   0.807258
 C 0.283 0.9662 0.3333   -0.201592
 C 0.4177 0.9637 0.3316   0.04788
 C 0.7875 0.0701 0.9209   0.807258
 C 0.717 0.0338 0.8333   -0.201592
 C 0.5823 0.0363 0.8316   0.04788
 C 0.0 0.2215 0.5   0.051698
 C 0.0 0.4822 0.5   -0.17666
 C 0.0 0.6283 0.5   0.813011
 C 0.0 0.7785 0.0   0.051698
 C 0.0 0.5178 0.0   -0.17666
 C 0.0 0.3717 0.0   0.813011
 C 0.7785 0.0 0.75   0.051698
 C 0.5178 0.0 0.75   -0.17666
 C 0.3717 0.0 0.75   0.813011
 C 0.2215 0.0 0.25   0.051698
 C 0.4822 0.0 0.25   -0.17666
 C 0.6283 0.0 0.25   0.813011
 O 0.9167 0.0964 0.3306   -0.852688
 O 0.9182 0.2746 0.2522   -0.706831
 O 0.9181 0.6791 0.448   -0.746076
 O 0.0833 0.9036 0.8306   -0.852688
 O 0.0818 0.7254 0.7522   -0.706831
 O 0.0819 0.3209 0.948   -0.746076
 O 0.9036 0.9167 0.5806   -0.852688
 O 0.7254 0.9182 0.5022   -0.706831
 O 0.3209 0.9181 0.698   -0.746076
 O 0.0964 0.0833 0.0806   -0.852688
 O 0.2746 0.0818 0.0022   -0.706831
 O 0.6791 0.0819 0.198   -0.746076
 O 0.0833 0.0964 0.6694   -0.852688
 O 0.0818 0.2746 0.7478   -0.706831
 O 0.0819 0.6791 0.552   -0.746076
 O 0.9167 0.9036 0.1694   -0.852688
 O 0.9182 0.7254 0.2478   -0.706831
 O 0.9181 0.3209 0.052   -0.746076
 O 0.0964 0.9167 0.4194   -0.852688
 O 0.2746 0.9182 0.4978   -0.706831
 O 0.6791 0.9181 0.302   -0.746076
 O 0.9036 0.0833 0.9194   -0.852688
 O 0.7254 0.0818 0.9978   -0.706831
 O 0.3209 0.0819 0.802   -0.746076
