{'_ref': 'TBD', '_srcid': 'CAKYAQ_clean', 'submitters': [{'name': 'Dalar Nazarian Jeff Camp and David Sholl', 'email': 'dalar@gatech.edu jcamp6@gatech.edu'}], '_method': 'VASP DFT with PBE;DDEC'}
data_YbH3(C3O2)3
_symmetry_space_group_name_H-M   'P 1'
_cell_length_a   10.24100000
_cell_length_b   10.24100000
_cell_length_c   14.40260000
_cell_angle_alpha   90.00000000
_cell_angle_beta   90.00000000
_cell_angle_gamma   90.00000000
_symmetry_Int_Tables_number   1
_chemical_formula_structural   YbH3(C3O2)3
_chemical_formula_sum   'Yb4 H12 C36 O24'
_cell_volume   1510.51704941
_cell_formula_units_Z   4
loop_
 _symmetry_equiv_pos_site_id
 _symmetry_equiv_pos_as_xyz
  1  'x, y, z'
loop_
 _atom_site_label
 _atom_site_fract_x
 _atom_site_fract_y
 _atom_site_fract_z
 _atom_site_charge
 Yb 0.85287 0.85287 0.125   1.533838
 Yb 0.14713 0.14713 0.625   1.533838
 Yb 0.14713 0.85287 0.875   1.533839
 Yb 0.85287 0.14713 0.375   1.533839
 H 0.4435 0.9267 0.1202   0.110858
 H 0.5565 0.0733 0.6202   0.110858
 H 0.0733 0.4435 0.8702   0.110858
 H 0.9267 0.5565 0.3702   0.110858
 H 0.5565 0.9267 0.8798   0.110858
 H 0.4435 0.0733 0.3798   0.110858
 H 0.9267 0.4435 0.1298   0.110858
 H 0.0733 0.5565 0.6298   0.110858
 H 0.1051 0.0 0.25   0.079089
 H 0.8949 0.0 0.75   0.079089
 H 0.0 0.1051 0.0   0.079089
 H 0.0 0.8949 0.5   0.079089
 C 0.3981 0.9567 0.1719   0.03245
 C 0.2617 0.9586 0.1718   -0.167463
 C 0.1842 0.9151 0.0877   0.72268
 C 0.6019 0.0433 0.6719   0.03245
 C 0.7383 0.0414 0.6718   -0.167463
 C 0.8158 0.0849 0.5877   0.72268
 C 0.0433 0.3981 0.9219   0.03245
 C 0.0414 0.2617 0.9218   -0.167463
 C 0.0849 0.1842 0.8377   0.72268
 C 0.9567 0.6019 0.4219   0.03245
 C 0.9586 0.7383 0.4218   -0.167463
 C 0.9151 0.8158 0.3377   0.72268
 C 0.6019 0.9567 0.8281   0.03245
 C 0.7383 0.9586 0.8282   -0.167463
 C 0.8158 0.9151 0.9123   0.72268
 C 0.3981 0.0433 0.3281   0.03245
 C 0.2617 0.0414 0.3282   -0.167463
 C 0.1842 0.0849 0.4123   0.72268
 C 0.9567 0.3981 0.0781   0.03245
 C 0.9586 0.2617 0.0782   -0.167463
 C 0.9151 0.1842 0.1623   0.72268
 C 0.0433 0.6019 0.5781   0.03245
 C 0.0414 0.7383 0.5782   -0.167463
 C 0.0849 0.8158 0.6623   0.72268
 C 0.6136 0.0 0.25   0.749564
 C 0.4658 0.0 0.25   -0.169443
 C 0.1959 0.0 0.25   0.038183
 C 0.3864 0.0 0.75   0.749564
 C 0.5342 0.0 0.75   -0.169443
 C 0.8041 0.0 0.75   0.038183
 C 0.0 0.6136 0.0   0.749564
 C 0.0 0.4658 0.0   -0.169443
 C 0.0 0.1959 0.0   0.038183
 C 0.0 0.3864 0.5   0.749564
 C 0.0 0.5342 0.5   -0.169443
 C 0.0 0.8041 0.5   0.038183
 O 0.6677 0.9278 0.192   -0.608667
 O 0.0681 0.8887 0.0987   -0.590292
 O 0.2416 0.9078 0.0112   -0.615183
 O 0.3323 0.0722 0.692   -0.608667
 O 0.9319 0.1113 0.5987   -0.590292
 O 0.7584 0.0922 0.5112   -0.615183
 O 0.0722 0.6677 0.942   -0.608667
 O 0.1113 0.0681 0.8487   -0.590292
 O 0.0922 0.2416 0.7612   -0.615183
 O 0.9278 0.3323 0.442   -0.608667
 O 0.8887 0.9319 0.3487   -0.590292
 O 0.9078 0.7584 0.2612   -0.615183
 O 0.3323 0.9278 0.808   -0.608667
 O 0.9319 0.8887 0.9013   -0.590292
 O 0.7584 0.9078 0.9888   -0.615183
 O 0.6677 0.0722 0.308   -0.608667
 O 0.0681 0.1113 0.4013   -0.590292
 O 0.2416 0.0922 0.4888   -0.615183
 O 0.9278 0.6677 0.058   -0.608667
 O 0.8887 0.0681 0.1513   -0.590292
 O 0.9078 0.2416 0.2388   -0.615183
 O 0.0722 0.3323 0.558   -0.608667
 O 0.1113 0.9319 0.6513   -0.590292
 O 0.0922 0.7584 0.7388   -0.615183
