{'_ref': 'TBD', '_srcid': 'CAKYAQ_clean', 'submitters': [{'name': 'Dalar Nazarian Jeff Camp and David Sholl', 'email': 'dalar@gatech.edu jcamp6@gatech.edu'}], '_method': 'VASP DFT with PBE;DDEC'}
data_FeH4C8O5
_symmetry_space_group_name_H-M   'P 1'
_cell_length_a   6.93509986
_cell_length_b   11.29179991
_cell_length_c   11.29180000
_cell_angle_alpha   79.17770088
_cell_angle_beta   72.11639807
_cell_angle_gamma   72.11639867
_symmetry_Int_Tables_number   1
_chemical_formula_structural   FeH4C8O5
_chemical_formula_sum   'Fe2 H8 C16 O10'
_cell_volume   796.596282904
_cell_formula_units_Z   2
loop_
 _symmetry_equiv_pos_site_id
 _symmetry_equiv_pos_as_xyz
  1  'x, y, z'
loop_
 _atom_site_label
 _atom_site_fract_x
 _atom_site_fract_y
 _atom_site_fract_z
 _atom_site_charge
 Fe 0.5 0.0 0.5   1.260573
 Fe 0.0 0.0 0.5   1.26058
 H 0.2598 0.9998 0.89   0.119804
 H 0.2402 0.61 0.5002   0.119804
 H 0.3504 0.39 0.4998   0.119453
 H 0.1496 0.0002 0.11   0.119453
 H 0.7402 0.0002 0.11   0.119807
 H 0.7598 0.39 0.4998   0.119807
 H 0.6496 0.61 0.5002   0.119457
 H 0.8504 0.9998 0.89   0.119457
 C 0.3594 0.9998 0.9356   -0.06441
 C 0.1406 0.5644 0.5002   -0.06441
 C 0.2052 0.4356 0.4998   -0.063224
 C 0.2948 0.0002 0.0644   -0.063224
 C 0.6406 0.0002 0.0644   -0.064413
 C 0.8594 0.4356 0.4998   -0.064414
 C 0.7948 0.5644 0.5002   -0.063225
 C 0.7052 0.9998 0.9356   -0.063226
 C 0.5646 0.9997 0.8711   -0.095021
 C 0.6331 0.9994 0.7344   0.680317
 C 0.9354 0.6289 0.5003   -0.095021
 C 0.8669 0.7656 0.5006   0.680323
 C 0.0646 0.3711 0.4997   -0.09502
 C 0.1331 0.2344 0.4994   0.680317
 C 0.4354 0.000300000000003 0.1289   -0.095021
 C 0.3669 0.000599999999999 0.2656   0.680323
 O 0.5041 0.9993 0.6753   -0.516364
 O 0.9959 0.8247 0.5007   -0.516365
 O 0.3213 0.1753 0.4993   -0.51705
 O 0.1787 0.000700000000002 0.3247   -0.517051
 O 0.4959 0.000700000000002 0.3247   -0.516363
 O 0.0041 0.1753 0.4993   -0.516363
 O 0.6787 0.8247 0.5007   -0.517048
 O 0.8213 0.9993 0.6753   -0.517048
 O 0.75 0.0619 0.4381   -0.587598
 O 0.25 0.9381 0.5619   -0.587598
