{'_ref': 'TBD', '_srcid': 'CAKYAQ_clean', 'submitters': [{'name': 'Dalar Nazarian Jeff Camp and David Sholl', 'email': 'dalar@gatech.edu jcamp6@gatech.edu'}], '_method': 'VASP DFT with PBE;DDEC'}
data_Zn4H12C24O13
_symmetry_space_group_name_H-M   'P 1'
_cell_length_a   18.28299960
_cell_length_b   18.28299987
_cell_length_c   18.28300000
_cell_angle_alpha   59.99999976
_cell_angle_beta   59.99999928
_cell_angle_gamma   60.00000105
_symmetry_Int_Tables_number   1
_chemical_formula_structural   Zn4H12C24O13
_chemical_formula_sum   'Zn8 H24 C48 O26'
_cell_volume   4321.4288575
_cell_formula_units_Z   2
loop_
 _symmetry_equiv_pos_site_id
 _symmetry_equiv_pos_as_xyz
  1  'x, y, z'
loop_
 _atom_site_label
 _atom_site_fract_x
 _atom_site_fract_y
 _atom_site_fract_z
 _atom_site_charge
 Zn 0.2067 0.3799 0.2067   1.145743
 Zn 0.3799 0.2067 0.2067   1.145743
 Zn 0.2067 0.2067 0.2067   1.145743
 Zn 0.2067 0.2067 0.3799   1.145744
 Zn 0.6201 0.7933 0.7933   1.145743
 Zn 0.7933 0.6201 0.7933   1.145743
 Zn 0.7933 0.7933 0.7933   1.145743
 Zn 0.7933 0.7933 0.6201   1.145744
 H 0.0494 0.5638 0.0494   0.117535
 H 0.5638 0.0494 0.3374   0.117535
 H 0.0494 0.3374 0.0494   0.117536
 H 0.3374 0.0494 0.5638   0.117535
 H 0.0494 0.0494 0.3374   0.117535
 H 0.5638 0.3374 0.0494   0.117535
 H 0.0494 0.0494 0.5638   0.117535
 H 0.3374 0.5638 0.0494   0.117535
 H 0.0494 0.3374 0.5638   0.117535
 H 0.5638 0.0494 0.0494   0.117535
 H 0.0494 0.5638 0.3374   0.117535
 H 0.3374 0.0494 0.0494   0.117535
 H 0.4362 0.9506 0.9506   0.117535
 H 0.9506 0.4362 0.6626   0.117535
 H 0.6626 0.9506 0.9506   0.117535
 H 0.9506 0.6626 0.4362   0.117535
 H 0.9506 0.9506 0.6626   0.117535
 H 0.6626 0.4362 0.9506   0.117535
 H 0.9506 0.9506 0.4362   0.117535
 H 0.4362 0.6626 0.9506   0.117535
 H 0.6626 0.9506 0.4362   0.117534
 H 0.9506 0.4362 0.9506   0.117534
 H 0.4362 0.9506 0.6626   0.117534
 H 0.9506 0.6626 0.9506   0.117534
 C 0.027 0.5382 0.027   -0.070794
 C 0.5382 0.027 0.4078   -0.070794
 C 0.027 0.4078 0.027   -0.070794
 C 0.4078 0.027 0.5382   -0.070794
 C 0.027 0.027 0.4078   -0.070794
 C 0.5382 0.4078 0.027   -0.070794
 C 0.027 0.027 0.5382   -0.070794
 C 0.4078 0.5382 0.027   -0.070794
 C 0.027 0.4078 0.5382   -0.070794
 C 0.5382 0.027 0.027   -0.070794
 C 0.027 0.5382 0.4078   -0.070794
 C 0.4078 0.027 0.027   -0.070794
 C 0.4618 0.973 0.973   -0.070797
 C 0.973 0.4618 0.5922   -0.070797
 C 0.5922 0.973 0.973   -0.070797
 C 0.973 0.5922 0.4618   -0.070797
 C 0.973 0.973 0.5922   -0.070797
 C 0.5922 0.4618 0.973   -0.070797
 C 0.973 0.973 0.4618   -0.070797
 C 0.4618 0.5922 0.973   -0.070797
 C 0.5922 0.973 0.4618   -0.070796
 C 0.973 0.4618 0.973   -0.070796
 C 0.4618 0.973 0.5922   -0.070796
 C 0.973 0.5922 0.973   -0.070797
 C 0.1107 0.3893 0.1107   0.721493
 C 0.0542 0.4458 0.0542   -0.102626
 C 0.3893 0.1107 0.3893   0.721493
 C 0.4458 0.0542 0.4458   -0.102626
 C 0.1107 0.1107 0.3893   0.721493
 C 0.0542 0.0542 0.4458   -0.102626
 C 0.3893 0.3893 0.1107   0.721493
 C 0.4458 0.4458 0.0542   -0.102626
 C 0.1107 0.3893 0.3893   0.721493
 C 0.0542 0.4458 0.4458   -0.102626
 C 0.3893 0.1107 0.1107   0.721493
 C 0.4458 0.0542 0.0542   -0.102626
 C 0.6107 0.8893 0.8893   0.721493
 C 0.5542 0.9458 0.9458   -0.102625
 C 0.8893 0.6107 0.6107   0.721492
 C 0.9458 0.5542 0.5542   -0.102625
 C 0.8893 0.8893 0.6107   0.721493
 C 0.9458 0.9458 0.5542   -0.102625
 C 0.6107 0.6107 0.8893   0.721493
 C 0.5542 0.5542 0.9458   -0.102625
 C 0.6107 0.8893 0.6107   0.721493
 C 0.5542 0.9458 0.5542   -0.102625
 C 0.8893 0.6107 0.8893   0.721493
 C 0.9458 0.5542 0.9458   -0.102626
 O 0.25 0.25 0.25   -1.295114
 O 0.75 0.75 0.75   -1.295114
 O 0.1343 0.4267 0.1343   -0.630161
 O 0.4267 0.1343 0.3047   -0.630161
 O 0.1343 0.3047 0.1343   -0.630161
 O 0.3047 0.1343 0.4267   -0.630161
 O 0.1343 0.1343 0.3047   -0.630161
 O 0.4267 0.3047 0.1343   -0.630161
 O 0.1343 0.1343 0.4267   -0.630161
 O 0.3047 0.4267 0.1343   -0.630161
 O 0.1343 0.3047 0.4267   -0.630161
 O 0.4267 0.1343 0.1343   -0.630161
 O 0.1343 0.4267 0.3047   -0.630161
 O 0.3047 0.1343 0.1343   -0.630161
 O 0.5733 0.8657 0.8657   -0.630161
 O 0.8657 0.5733 0.6953   -0.630161
 O 0.6953 0.8657 0.8657   -0.630161
 O 0.8657 0.6953 0.5733   -0.630161
 O 0.8657 0.8657 0.6953   -0.630161
 O 0.6953 0.5733 0.8657   -0.630161
 O 0.8657 0.8657 0.5733   -0.630161
 O 0.5733 0.6953 0.8657   -0.630161
 O 0.6953 0.8657 0.5733   -0.630161
 O 0.8657 0.5733 0.8657   -0.630161
 O 0.5733 0.8657 0.6953   -0.630161
 O 0.8657 0.6953 0.8657   -0.630161
