{'_ref': 'TBD', '_srcid': 'CAKYAQ_clean', 'submitters': [{'name': 'Dalar Nazarian Jeff Camp and David Sholl', 'email': 'dalar@gatech.edu jcamp6@gatech.edu'}], '_method': 'VASP DFT with PBE;DDEC'}
data_Zn4H12C24O13
_symmetry_space_group_name_H-M   'P 1'
_cell_length_a   18.30539963
_cell_length_b   18.30540045
_cell_length_c   18.30540000
_cell_angle_alpha   60.00000082
_cell_angle_beta   59.99999933
_cell_angle_gamma   60.00000000
_symmetry_Int_Tables_number   1
_chemical_formula_structural   Zn4H12C24O13
_chemical_formula_sum   'Zn8 H24 C48 O26'
_cell_volume   4337.33208145
_cell_formula_units_Z   2
loop_
 _symmetry_equiv_pos_site_id
 _symmetry_equiv_pos_as_xyz
  1  'x, y, z'
loop_
 _atom_site_label
 _atom_site_fract_x
 _atom_site_fract_y
 _atom_site_fract_z
 _atom_site_charge
 Zn 0.2057 0.3829 0.2057   1.053268
 Zn 0.3829 0.2057 0.2057   1.053268
 Zn 0.2057 0.2057 0.2057   1.053268
 Zn 0.2057 0.2057 0.3829   1.053268
 Zn 0.6171 0.7943 0.7943   1.053268
 Zn 0.7943 0.6171 0.7943   1.053268
 Zn 0.7943 0.7943 0.7943   1.053268
 Zn 0.7943 0.7943 0.6171   1.053268
 H 0.043 0.562 0.043   0.094997
 H 0.562 0.043 0.352   0.094997
 H 0.043 0.352 0.043   0.094998
 H 0.352 0.043 0.562   0.094998
 H 0.043 0.043 0.352   0.094998
 H 0.562 0.352 0.043   0.094997
 H 0.043 0.043 0.562   0.094997
 H 0.352 0.562 0.043   0.094998
 H 0.043 0.352 0.562   0.094997
 H 0.562 0.043 0.043   0.094997
 H 0.043 0.562 0.352   0.094997
 H 0.352 0.043 0.043   0.094998
 H 0.438 0.957 0.957   0.094998
 H 0.957 0.438 0.648   0.094998
 H 0.648 0.957 0.957   0.094998
 H 0.957 0.648 0.438   0.094998
 H 0.957 0.957 0.648   0.094998
 H 0.648 0.438 0.957   0.094998
 H 0.957 0.957 0.438   0.094998
 H 0.438 0.648 0.957   0.094998
 H 0.648 0.957 0.438   0.094998
 H 0.957 0.438 0.957   0.094998
 H 0.438 0.957 0.648   0.094998
 H 0.957 0.648 0.957   0.094998
 C 0.0282 0.5392 0.0282   -0.028272
 C 0.5392 0.0282 0.4044   -0.028272
 C 0.0282 0.4044 0.0282   -0.028273
 C 0.4044 0.0282 0.5392   -0.028273
 C 0.0282 0.0282 0.4044   -0.028273
 C 0.5392 0.4044 0.0282   -0.028273
 C 0.0282 0.0282 0.5392   -0.028272
 C 0.4044 0.5392 0.0282   -0.028273
 C 0.0282 0.4044 0.5392   -0.028273
 C 0.5392 0.0282 0.0282   -0.028272
 C 0.0282 0.5392 0.4044   -0.028273
 C 0.4044 0.0282 0.0282   -0.028273
 C 0.4608 0.9718 0.9718   -0.028273
 C 0.9718 0.4608 0.5956   -0.028273
 C 0.5956 0.9718 0.9718   -0.028273
 C 0.9718 0.5956 0.4608   -0.028273
 C 0.9718 0.9718 0.5956   -0.028273
 C 0.5956 0.4608 0.9718   -0.028273
 C 0.9718 0.9718 0.4608   -0.028273
 C 0.4608 0.5956 0.9718   -0.028273
 C 0.5956 0.9718 0.4608   -0.028273
 C 0.9718 0.4608 0.9718   -0.028273
 C 0.4608 0.9718 0.5956   -0.028273
 C 0.9718 0.5956 0.9718   -0.028273
 C 0.1146 0.3854 0.1146   0.682987
 C 0.0541 0.4459 0.0541   -0.17541
 C 0.3854 0.1146 0.3854   0.682986
 C 0.4459 0.0541 0.4459   -0.17541
 C 0.1146 0.1146 0.3854   0.682987
 C 0.0541 0.0541 0.4459   -0.17541
 C 0.3854 0.3854 0.1146   0.682986
 C 0.4459 0.4459 0.0541   -0.17541
 C 0.1146 0.3854 0.3854   0.682986
 C 0.0541 0.4459 0.4459   -0.17541
 C 0.3854 0.1146 0.1146   0.682986
 C 0.4459 0.0541 0.0541   -0.17541
 C 0.6146 0.8854 0.8854   0.682986
 C 0.5541 0.9459 0.9459   -0.17541
 C 0.8854 0.6146 0.6146   0.682986
 C 0.9459 0.5541 0.5541   -0.17541
 C 0.8854 0.8854 0.6146   0.682986
 C 0.9459 0.9459 0.5541   -0.17541
 C 0.6146 0.6146 0.8854   0.682986
 C 0.5541 0.5541 0.9459   -0.17541
 C 0.6146 0.8854 0.6146   0.682986
 C 0.5541 0.9459 0.5541   -0.17541
 C 0.8854 0.6146 0.8854   0.682986
 C 0.9459 0.5541 0.9459   -0.17541
 O 0.25 0.25 0.25   -1.235019
 O 0.75 0.75 0.75   -1.235019
 O 0.1336 0.4292 0.1336   -0.568684
 O 0.4292 0.1336 0.3036   -0.568684
 O 0.1336 0.3036 0.1336   -0.568684
 O 0.3036 0.1336 0.4292   -0.568684
 O 0.1336 0.1336 0.3036   -0.568684
 O 0.4292 0.3036 0.1336   -0.568684
 O 0.1336 0.1336 0.4292   -0.568684
 O 0.3036 0.4292 0.1336   -0.568684
 O 0.1336 0.3036 0.4292   -0.568684
 O 0.4292 0.1336 0.1336   -0.568684
 O 0.1336 0.4292 0.3036   -0.568684
 O 0.3036 0.1336 0.1336   -0.568684
 O 0.5708 0.8664 0.8664   -0.568684
 O 0.8664 0.5708 0.6964   -0.568684
 O 0.6964 0.8664 0.8664   -0.568684
 O 0.8664 0.6964 0.5708   -0.568684
 O 0.8664 0.8664 0.6964   -0.568684
 O 0.6964 0.5708 0.8664   -0.568684
 O 0.8664 0.8664 0.5708   -0.568684
 O 0.5708 0.6964 0.8664   -0.568684
 O 0.6964 0.8664 0.5708   -0.568684
 O 0.8664 0.5708 0.8664   -0.568684
 O 0.5708 0.8664 0.6964   -0.568684
 O 0.8664 0.6964 0.8664   -0.568684
