{'_ref': 'TBD', '_srcid': 'CAKYAQ_clean', 'submitters': [{'name': 'Dalar Nazarian Jeff Camp and David Sholl', 'email': 'dalar@gatech.edu jcamp6@gatech.edu'}], '_method': 'VASP DFT with PBE;DDEC'}
data_Zn2H8C11O7
_symmetry_space_group_name_H-M   'P 1'
_cell_length_a   10.33400000
_cell_length_b   11.67200000
_cell_length_c   20.34100000
_cell_angle_alpha   90.00000000
_cell_angle_beta   90.00000000
_cell_angle_gamma   90.00000000
_symmetry_Int_Tables_number   1
_chemical_formula_structural   Zn2H8C11O7
_chemical_formula_sum   'Zn8 H32 C44 O28'
_cell_volume   2453.49985077
_cell_formula_units_Z   4
loop_
 _symmetry_equiv_pos_site_id
 _symmetry_equiv_pos_as_xyz
  1  'x, y, z'
loop_
 _atom_site_label
 _atom_site_fract_x
 _atom_site_fract_y
 _atom_site_fract_z
 _atom_site_charge
 Zn 0.15269 0.67487 0.01147   1.076772
 Zn 0.46562 0.58053 0.00717   1.085649
 Zn 0.34731 0.32513 0.51147   1.076772
 Zn 0.03438 0.41947 0.50717   1.085649
 Zn 0.84731 0.17487 0.48854   1.076748
 Zn 0.53438 0.08053 0.49283   1.085644
 Zn 0.65269 0.82513 0.98854   1.076748
 Zn 0.96562 0.91947 0.99283   1.085644
 H 0.0641 0.5607 0.8219   0.114311
 H 0.44 0.4719 0.808   0.111439
 H 0.0348 0.5146 0.7114   0.108836
 H 0.4119 0.432 0.6976   0.111401
 H 0.2441 0.9723 0.9872   0.064987
 H 0.1567 0.9467 0.8816   0.122886
 H 0.3082 0.9467 0.8782   0.129156
 H 0.2319 0.8308 0.8744   0.122301
 H 0.4359 0.4393 0.3219   0.114311
 H 0.06 0.5281 0.308   0.111439
 H 0.4652 0.4854 0.2114   0.108836
 H 0.0881 0.568 0.1976   0.111401
 H 0.2559 0.0277 0.4872   0.064987
 H 0.3433 0.0533 0.3816   0.122886
 H 0.1918 0.0533 0.3782   0.129156
 H 0.2681 0.1692 0.3744   0.122301
 H 0.9359 0.0607 0.6781   0.114309
 H 0.56 0.9719 0.692   0.111438
 H 0.9652 0.0146 0.7886   0.108838
 H 0.5881 0.932 0.8024   0.111404
 H 0.7559 0.4723 0.5128   0.064992
 H 0.8433 0.4467 0.6184   0.122888
 H 0.6918 0.4467 0.6218   0.129158
 H 0.7681 0.3308 0.6256   0.122298
 H 0.5641 0.9393 0.1781   0.114309
 H 0.94 0.0281 0.192   0.111438
 H 0.5348 0.9854 0.2886   0.108838
 H 0.9119 0.068 0.3024   0.111404
 H 0.7441 0.5277 0.0128   0.064992
 H 0.6567 0.5533 0.1184   0.122888
 H 0.8082 0.5533 0.1218   0.129158
 H 0.7319 0.6692 0.1256   0.122298
 C 0.2763 0.5564 0.89613   0.709799
 C 0.2561 0.5242 0.82549   -0.133155
 C 0.1337 0.5352 0.79688   -0.058082
 C 0.3595 0.4827 0.7884   -0.058596
 C 0.1161 0.5079 0.7306   -0.06381
 C 0.3424 0.4576 0.72264   -0.058054
 C 0.221 0.4707 0.69364   -0.130418
 C 0.2052 0.4459 0.62083   0.71964
 C 0.3625 0.8312 0.98743   0.661172
 C 0.24 0.8951 0.96835   0.167515
 C 0.2336 0.9058 0.89372   -0.374163
 C 0.2237 0.4436 0.39613   0.709799
 C 0.2439 0.4758 0.32549   -0.133155
 C 0.3663 0.4648 0.29688   -0.058082
 C 0.1405 0.5173 0.2884   -0.058596
 C 0.3839 0.4921 0.2306   -0.06381
 C 0.1576 0.5424 0.22264   -0.058054
 C 0.279 0.5293 0.19364   -0.130418
 C 0.2948 0.5541 0.12083   0.71964
 C 0.1375 0.1688 0.48743   0.661172
 C 0.26 0.1049 0.46835   0.167515
 C 0.2664 0.0942 0.39372   -0.374163
 C 0.7237 0.0564 0.60387   0.709798
 C 0.7439 0.0242 0.67451   -0.133169
 C 0.8663 0.0352 0.70312   -0.05808
 C 0.6405 0.9827 0.7116   -0.058592
 C 0.8839 0.0079 0.7694   -0.063814
 C 0.6576 0.9576 0.77736   -0.058056
 C 0.779 0.9707 0.80636   -0.130404
 C 0.7948 0.9459 0.87917   0.719637
 C 0.6375 0.3312 0.51257   0.661177
 C 0.76 0.3951 0.53165   0.167509
 C 0.7664 0.4058 0.60628   -0.374166
 C 0.7763 0.9436 0.10387   0.709798
 C 0.7561 0.9758 0.17451   -0.133169
 C 0.6337 0.9648 0.20312   -0.05808
 C 0.8595 0.0173 0.2116   -0.058592
 C 0.6161 0.9921 0.2694   -0.063814
 C 0.8424 0.0424 0.27736   -0.058056
 C 0.721 0.0293 0.30636   -0.130404
 C 0.7052 0.0541 0.37917   0.719637
 C 0.8625 0.6688 0.01257   0.661177
 C 0.74 0.6049 0.03165   0.167509
 C 0.7336 0.5942 0.10628   -0.374166
 O 0.1766 0.5829 0.92899   -0.617353
 O 0.3909 0.5538 0.91703   -0.630633
 O 0.0948 0.4601 0.59666   -0.625984
 O 0.3056 0.4162 0.59097   -0.605126
 O 0.3504 0.73124 0.00984   -0.639845
 O 0.4687 0.8803 0.97586   -0.576473
 O 0.1293 0.83866 0.99421   -0.734159
 O 0.3234 0.4171 0.42899   -0.617353
 O 0.1091 0.4462 0.41703   -0.630633
 O 0.4052 0.5399 0.09666   -0.625984
 O 0.1944 0.5838 0.09097   -0.605126
 O 0.1496 0.26876 0.50984   -0.639845
 O 0.0313 0.1197 0.47586   -0.576473
 O 0.3707 0.16134 0.49421   -0.734159
 O 0.8234 0.0829 0.57101   -0.61734
 O 0.6091 0.0538 0.58297   -0.630626
 O 0.9052 0.9601 0.90334   -0.625993
 O 0.6944 0.9162 0.90903   -0.605134
 O 0.6496 0.23124 0.49016   -0.63983
 O 0.5313 0.3803 0.52414   -0.576491
 O 0.8707 0.33866 0.50579   -0.734154
 O 0.6766 0.9171 0.07101   -0.61734
 O 0.8909 0.9462 0.08297   -0.630626
 O 0.5948 0.0399 0.40334   -0.625993
 O 0.8056 0.0838 0.40903   -0.605134
 O 0.8504 0.76876 0.99016   -0.63983
 O 0.9687 0.6197 0.02414   -0.576491
 O 0.6293 0.66134 0.00579   -0.734154
