{'_ref': 'TBD', '_srcid': 'CAKYAQ_clean', 'submitters': [{'name': 'Dalar Nazarian Jeff Camp and David Sholl', 'email': 'dalar@gatech.edu jcamp6@gatech.edu'}], '_method': 'VASP DFT with PBE;DDEC'}
data_CdH7C12(NO2)3
_symmetry_space_group_name_H-M   'P 1'
_cell_length_a   7.44710000
_cell_length_b   14.23600000
_cell_length_c   20.99300000
_cell_angle_alpha   90.00000000
_cell_angle_beta   90.00000000
_cell_angle_gamma   90.00000000
_symmetry_Int_Tables_number   1
_chemical_formula_structural   CdH7C12(NO2)3
_chemical_formula_sum   'Cd4 H28 C48 N12 O24'
_cell_volume   2225.61310919
_cell_formula_units_Z   4
loop_
 _symmetry_equiv_pos_site_id
 _symmetry_equiv_pos_as_xyz
  1  'x, y, z'
loop_
 _atom_site_label
 _atom_site_fract_x
 _atom_site_fract_y
 _atom_site_fract_z
 _atom_site_charge
 Cd 0.5 0.60171 0.43656   0.974929
 Cd 0.5 0.39829 0.56344   0.974929
 Cd 0.5 0.10171 0.06344   0.974929
 Cd 0.5 0.89829 0.93656   0.974929
 H 0.1541 0.4817 0.3919   0.109674
 H 0.1546 0.712 0.4884   0.116922
 H 0.1541 0.5183 0.6081   0.109674
 H 0.1546 0.288 0.5116   0.116922
 H 0.8459 0.9817 0.1081   0.109674
 H 0.8454 0.212 0.0116   0.116922
 H 0.8459 0.0183 0.8919   0.109674
 H 0.8454 0.788 0.9884   0.116922
 H 0.8459 0.5183 0.6081   0.109675
 H 0.8454 0.288 0.5116   0.116923
 H 0.8459 0.4817 0.3919   0.109675
 H 0.8454 0.712 0.4884   0.116923
 H 0.1541 0.0183 0.8919   0.109675
 H 0.1546 0.788 0.9884   0.116923
 H 0.1541 0.9817 0.1081   0.109675
 H 0.1546 0.212 0.0116   0.116923
 H 0.5 0.6753 0.1047   0.122107
 H 0.5 0.9251 0.1823   0.099184
 H 0.5 0.8621 0.2826   0.08829
 H 0.5 0.3247 0.8953   0.122106
 H 0.5 0.0749 0.8177   0.099184
 H 0.5 0.1379 0.7174   0.08829
 H 0.5 0.1753 0.3953   0.122107
 H 0.5 0.4251 0.3177   0.099184
 H 0.5 0.3621 0.2174   0.08829
 H 0.5 0.8247 0.6047   0.122106
 H 0.5 0.5749 0.6823   0.099184
 H 0.5 0.6379 0.7826   0.08829
 C 0.0939 0.5304 0.4123   0.088368
 C 0.0943 0.6633 0.468   0.087367
 C 0.0939 0.4696 0.5877   0.088368
 C 0.0943 0.3367 0.532   0.087367
 C 0.9061 0.0304 0.0877   0.088368
 C 0.9057 0.1633 0.032   0.087367
 C 0.9061 0.9696 0.9123   0.088368
 C 0.9057 0.8367 0.968   0.087367
 C 0.9061 0.4696 0.5877   0.088368
 C 0.9057 0.3367 0.532   0.087369
 C 0.9061 0.5304 0.4123   0.088368
 C 0.9057 0.6633 0.468   0.087369
 C 0.0939 0.9696 0.9123   0.088368
 C 0.0943 0.8367 0.968   0.087369
 C 0.0939 0.0304 0.0877   0.088368
 C 0.0943 0.1633 0.032   0.087369
 C 0.5 0.7255 0.2555   -0.138746
 C 0.5 0.6729 0.2017   0.067597
 C 0.5 0.7132 0.1408   -0.145976
 C 0.5 0.8098 0.1351   -0.09308
 C 0.5 0.86 0.1865   -0.075678
 C 0.5 0.8226 0.2473   -0.010311
 C 0.5 0.6845 0.3205   0.687341
 C 0.5 0.8497 0.0683   0.656836
 C 0.5 0.2745 0.7445   -0.138746
 C 0.5 0.3271 0.7983   0.067597
 C 0.5 0.2868 0.8592   -0.145976
 C 0.5 0.1902 0.8649   -0.09308
 C 0.5 0.14 0.8135   -0.075678
 C 0.5 0.1774 0.7527   -0.010311
 C 0.5 0.3155 0.6795   0.687341
 C 0.5 0.1503 0.9317   0.656836
 C 0.5 0.2255 0.2445   -0.138746
 C 0.5 0.1729 0.2983   0.067597
 C 0.5 0.2132 0.3592   -0.145976
 C 0.5 0.3098 0.3649   -0.09308
 C 0.5 0.36 0.3135   -0.075678
 C 0.5 0.3226 0.2527   -0.010311
 C 0.5 0.1845 0.1795   0.687341
 C 0.5 0.3497 0.4317   0.656836
 C 0.5 0.7745 0.7555   -0.138746
 C 0.5 0.8271 0.7017   0.067597
 C 0.5 0.7868 0.6408   -0.145976
 C 0.5 0.6902 0.6351   -0.09308
 C 0.5 0.64 0.6865   -0.075678
 C 0.5 0.6774 0.7473   -0.010311
 C 0.5 0.8155 0.8205   0.687341
 C 0.5 0.6503 0.5683   0.656836
 N 0.1885 0.5967 0.4401   -0.246163
 N 0.1885 0.4033 0.5599   -0.246163
 N 0.8115 0.0967 0.0599   -0.246163
 N 0.8115 0.9033 0.9401   -0.246163
 N 0.8115 0.4033 0.5599   -0.246163
 N 0.8115 0.5967 0.4401   -0.246163
 N 0.1885 0.9033 0.9401   -0.246163
 N 0.1885 0.0967 0.0599   -0.246163
 N 0.5 0.5676 0.1932   0.550368
 N 0.5 0.4324 0.8068   0.550368
 N 0.5 0.0676 0.3068   0.550368
 N 0.5 0.9324 0.6932   0.550368
 O 0.658 0.5408 0.1995   -0.301642
 O 0.658 0.4592 0.8005   -0.301642
 O 0.342 0.0408 0.3005   -0.301642
 O 0.342 0.9592 0.6995   -0.301642
 O 0.342 0.4592 0.8005   -0.301641
 O 0.342 0.5408 0.1995   -0.301641
 O 0.658 0.9592 0.6995   -0.301641
 O 0.658 0.0408 0.3005   -0.301641
 O 0.5 0.5986 0.3257   -0.632338
 O 0.5 0.7337 0.3672   -0.606246
 O 0.5 0.9373 0.0596   -0.671024
 O 0.5 0.7969 0.021   -0.582309
 O 0.5 0.4014 0.6743   -0.632338
 O 0.5 0.2663 0.6328   -0.606246
 O 0.5 0.0627 0.9404   -0.671024
 O 0.5 0.2031 0.979   -0.582309
 O 0.5 0.0986 0.1743   -0.632338
 O 0.5 0.2337 0.1328   -0.606247
 O 0.5 0.4373 0.4404   -0.671024
 O 0.5 0.2969 0.479   -0.58231
 O 0.5 0.9014 0.8257   -0.632338
 O 0.5 0.7663 0.8672   -0.606247
 O 0.5 0.5627 0.5596   -0.671024
 O 0.5 0.7031 0.521   -0.58231
