{'_ref': 'TBD', '_srcid': 'CAKYAQ_clean', 'submitters': [{'name': 'Dalar Nazarian Jeff Camp and David Sholl', 'email': 'dalar@gatech.edu jcamp6@gatech.edu'}], '_method': 'VASP DFT with PBE;DDEC'}
data_CdH7C12(NO2)3
_symmetry_space_group_name_H-M   'P 1'
_cell_length_a   7.44660000
_cell_length_b   14.38210000
_cell_length_c   20.91400000
_cell_angle_alpha   90.00000000
_cell_angle_beta   90.00000000
_cell_angle_gamma   90.00000000
_symmetry_Int_Tables_number   1
_chemical_formula_structural   CdH7C12(NO2)3
_chemical_formula_sum   'Cd4 H28 C48 N12 O24'
_cell_volume   2239.84225692
_cell_formula_units_Z   4
loop_
 _symmetry_equiv_pos_site_id
 _symmetry_equiv_pos_as_xyz
  1  'x, y, z'
loop_
 _atom_site_label
 _atom_site_fract_x
 _atom_site_fract_y
 _atom_site_fract_z
 _atom_site_charge
 Cd 0.49001 0.11007 0.07558   1.090303
 Cd 0.48697 0.89034 0.92446   1.090456
 Cd 0.49269 0.60996 0.42482   1.08939
 Cd 0.49848 0.38937 0.57575   1.091927
 H 0.82325 0.23731 0.01931   0.132243
 H 0.8227 0.97878 0.11533   0.123861
 H 0.82035 0.76149 0.969   0.133459
 H 0.82054 0.03316 0.89196   0.116838
 H 0.16004 0.73796 0.47969   0.131422
 H 0.15721 0.47736 0.38638   0.109829
 H 0.16518 0.26068 0.52125   0.135199
 H 0.16517 0.52148 0.61434   0.118923
 H 0.15394 0.76173 0.96902   0.135303
 H 0.15201 0.03399 0.89305   0.110175
 H 0.1571 0.23727 0.01979   0.135072
 H 0.1545 0.97819 0.11508   0.110835
 H 0.83122 0.261 0.52124   0.131717
 H 0.83355 0.52246 0.61338   0.112536
 H 0.8261 0.73816 0.48009   0.13569
 H 0.82551 0.47823 0.38586   0.122369
 H 0.59749 0.20067 0.40441   0.134898
 H 0.39348 0.44579 0.31274   0.119878
 H 0.4022 0.36802 0.20931   0.138568
 H 0.38033 0.79646 0.59617   0.133341
 H 0.60115 0.55522 0.68761   0.120213
 H 0.59008 0.63342 0.79106   0.132878
 H 0.58959 0.70012 0.09527   0.136059
 H 0.39286 0.946 0.18794   0.119297
 H 0.4047 0.86825 0.29133   0.138092
 H 0.60558 0.29653 0.90424   0.133425
 H 0.38082 0.05575 0.81346   0.121593
 H 0.39262 0.13355 0.70979   0.133501
 C 0.89384 0.17867 0.03971   0.050064
 C 0.8934 0.03564 0.09275   0.064344
 C 0.89108 0.82289 0.95294   0.049304
 C 0.89071 0.97324 0.91057   0.059174
 C 0.08885 0.6791 0.45985   0.050233
 C 0.08766 0.53512 0.40809   0.059139
 C 0.09449 0.31981 0.54092   0.050792
 C 0.09471 0.4641 0.59232   0.058152
 C 0.08292 0.82306 0.95301   0.050967
 C 0.08246 0.97356 0.91094   0.067138
 C 0.086 0.17869 0.04005   0.048776
 C 0.08492 0.03553 0.09288   0.061106
 C 0.90231 0.32003 0.54088   0.051952
 C 0.90322 0.4645 0.59199   0.066673
 C 0.89667 0.6792 0.46011   0.050357
 C 0.89616 0.53539 0.40809   0.064712
 C 0.50421 0.2372 0.24515   -0.081696
 C 0.56008 0.1908 0.30203   0.044484
 C 0.55297 0.23717 0.36197   -0.098834
 C 0.49671 0.33038 0.36749   -0.096876
 C 0.44335 0.37565 0.31091   -0.046481
 C 0.44735 0.33027 0.25113   -0.066651
 C 0.49762 0.18976 0.18037   0.629504
 C 0.49521 0.37917 0.43181   0.648957
 C 0.47875 0.76209 0.75527   -0.078516
 C 0.41847 0.80724 0.69851   0.041581
 C 0.4282 0.76099 0.63857   -0.096182
 C 0.49065 0.66888 0.63301   -0.098844
 C 0.5474 0.62459 0.68953   -0.046319
 C 0.5416 0.67007 0.74928   -0.066606
 C 0.48344 0.80993 0.81992   0.630471
 C 0.49435 0.62013 0.56872   0.649389
 C 0.50342 0.73703 0.25504   -0.08237
 C 0.55628 0.69042 0.19787   0.044894
 C 0.54734 0.73679 0.13793   -0.098044
 C 0.49218 0.83022 0.13265   -0.096298
 C 0.44181 0.87567 0.18952   -0.04681
 C 0.44761 0.83031 0.2493   -0.066614
 C 0.49862 0.68962 0.31991   0.630116
 C 0.48891 0.87914 0.06834   0.651067
 C 0.50594 0.26194 0.74528   -0.077717
 C 0.56706 0.3071 0.80192   0.042525
 C 0.55702 0.2611 0.86193   -0.096679
 C 0.49341 0.16923 0.86768   -0.100394
 C 0.4357 0.12491 0.81131   -0.045767
 C 0.44184 0.17017 0.75147   -0.065607
 C 0.50169 0.30955 0.68054   0.629031
 C 0.48948 0.12078 0.93205   0.644213
 N 0.79732 0.1073 0.06642   -0.234831
 N 0.79456 0.89777 0.9314   -0.234678
 N 0.18468 0.60726 0.43342   -0.239081
 N 0.19092 0.39168 0.56703   -0.23556
 N 0.17912 0.89818 0.9317   -0.237187
 N 0.1819 0.10733 0.06704   -0.239624
 N 0.80635 0.39219 0.56682   -0.238235
 N 0.8001 0.6075 0.43387   -0.232668
 N 0.63141 0.09812 0.29994   0.536422
 N 0.33885 0.89808 0.70081   0.537799
 N 0.62635 0.59746 0.19959   0.534932
 N 0.64781 0.39767 0.79941   0.536714
 O 0.49732 0.10236 0.17337   -0.618184
 O 0.49007 0.23305 0.12745   -0.607339
 O 0.76032 0.07798 0.26028   -0.354095
 O 0.36713 0.95675 0.65453   -0.357053
 O 0.58455 0.53882 0.15461   -0.360387
 O 0.62076 0.45653 0.84566   -0.3569
 O 0.48744 0.89742 0.82654   -0.620154
 O 0.48531 0.76696 0.87305   -0.609414
 O 0.21223 0.91567 0.74196   -0.35482
 O 0.5923 0.03932 0.34513   -0.360656
 O 0.4983 0.39702 0.6737   -0.621762
 O 0.49958 0.26634 0.62752   -0.606107
 O 0.77419 0.41475 0.75807   -0.355836
 O 0.49829 0.60222 0.32697   -0.618085
 O 0.49256 0.73294 0.37285   -0.608653
 O 0.75666 0.57685 0.23855   -0.352748
 O 0.49406 0.46804 0.4362   -0.640621
 O 0.49824 0.33188 0.48405   -0.622593
 O 0.49628 0.53127 0.56432   -0.640041
 O 0.49215 0.66746 0.5165   -0.621498
 O 0.48896 0.96804 0.06407   -0.641589
 O 0.48859 0.83198 0.01599   -0.622791
 O 0.48811 0.03197 0.93674   -0.637186
 O 0.49118 0.16825 0.98418   -0.620591
