{'_ref': 'TBD', '_srcid': 'CAKYAQ_clean', 'submitters': [{'name': 'Dalar Nazarian Jeff Camp and David Sholl', 'email': 'dalar@gatech.edu jcamp6@gatech.edu'}], '_method': 'VASP DFT with PBE;DDEC'}
data_CdH7C12(NO2)3
_symmetry_space_group_name_H-M   'P 1'
_cell_length_a   7.40580000
_cell_length_b   14.23320019
_cell_length_c   20.77570000
_cell_angle_alpha   90.00000000
_cell_angle_beta   90.00000000
_cell_angle_gamma   99.13199858
_symmetry_Int_Tables_number   1
_chemical_formula_structural   CdH7C12(NO2)3
_chemical_formula_sum   'Cd4 H28 C48 N12 O24'
_cell_volume   2162.17319683
_cell_formula_units_Z   4
loop_
 _symmetry_equiv_pos_site_id
 _symmetry_equiv_pos_as_xyz
  1  'x, y, z'
loop_
 _atom_site_label
 _atom_site_fract_x
 _atom_site_fract_y
 _atom_site_fract_z
 _atom_site_charge
 Cd 0.46179 0.39866 0.56419   0.955598
 Cd 0.53821 0.10134 0.06419   0.955598
 Cd 0.53821 0.60134 0.43581   0.955598
 Cd 0.46179 0.89866 0.93581   0.955598
 H 0.5188 0.33 0.9007   0.131051
 H 0.4906 0.0707 0.8166   0.11586
 H 0.4625 0.142 0.7157   0.09971
 H 0.8379 0.5236 0.6077   0.123529
 H 0.155 0.5273 0.6071   0.104112
 H 0.0885 0.2859 0.5095   0.120488
 H 0.7728 0.2841 0.5103   0.120194
 H 0.4812 0.17 0.4007   0.13105
 H 0.5094 0.4293 0.3166   0.11586
 H 0.5375 0.358 0.2157   0.09971
 H 0.1621 0.9764 0.1077   0.123529
 H 0.845 0.9727 0.1071   0.104112
 H 0.9115 0.2141 0.0095   0.120487
 H 0.2272 0.2159 0.0103   0.120194
 H 0.4812 0.67 0.0993   0.13105
 H 0.5094 0.9293 0.1834   0.11586
 H 0.5375 0.858 0.2843   0.09971
 H 0.1621 0.4764 0.3923   0.123529
 H 0.845 0.4727 0.3929   0.104112
 H 0.9115 0.7141 0.4905   0.120488
 H 0.2272 0.7159 0.4897   0.120194
 H 0.5188 0.83 0.5993   0.131049
 H 0.4906 0.5707 0.6834   0.11586
 H 0.4625 0.642 0.7843   0.09971
 H 0.8379 0.0236 0.8923   0.123529
 H 0.155 0.0273 0.8929   0.104112
 H 0.0885 0.7859 0.9905   0.120487
 H 0.7728 0.7841 0.9897   0.120194
 C 0.4651 0.276 0.748   -0.114407
 C 0.481 0.3293 0.8039   0.037909
 C 0.5056 0.2909 0.8635   -0.100885
 C 0.5107 0.1936 0.8683   -0.124926
 C 0.4909 0.1373 0.8136   -0.062544
 C 0.4714 0.1801 0.7534   -0.017302
 C 0.4562 0.32 0.6818   0.651628
 C 0.5327 0.1529 0.9338   0.638084
 C 0.8899 0.474 0.5879   0.085826
 C 0.0785 0.475 0.5878   0.094825
 C 0.0399 0.3352 0.5311   0.08902
 C 0.8519 0.3341 0.531   0.091802
 C 0.5349 0.224 0.248   -0.114407
 C 0.519 0.1707 0.3039   0.037908
 C 0.4944 0.2091 0.3635   -0.100884
 C 0.4893 0.3064 0.3683   -0.124926
 C 0.5091 0.3627 0.3136   -0.062544
 C 0.5286 0.3199 0.2534   -0.017302
 C 0.5438 0.18 0.1818   0.651628
 C 0.4673 0.3471 0.4338   0.638084
 C 0.1101 0.026 0.0879   0.085826
 C 0.9215 0.025 0.0878   0.094825
 C 0.9601 0.1648 0.0311   0.08902
 C 0.1481 0.1659 0.031   0.091803
 C 0.5349 0.724 0.252   -0.114407
 C 0.519 0.6707 0.1961   0.037908
 C 0.4944 0.7091 0.1365   -0.100885
 C 0.4893 0.8064 0.1317   -0.124926
 C 0.5091 0.8627 0.1864   -0.062543
 C 0.5286 0.8199 0.2466   -0.017302
 C 0.5438 0.68 0.3182   0.651628
 C 0.4673 0.8471 0.0662   0.638084
 C 0.1101 0.526 0.4121   0.085826
 C 0.9215 0.525 0.4122   0.094825
 C 0.9601 0.6648 0.4689   0.08902
 C 0.1481 0.6659 0.469   0.091803
 C 0.4651 0.776 0.752   -0.114407
 C 0.481 0.8293 0.6961   0.037908
 C 0.5056 0.7909 0.6365   -0.100884
 C 0.5107 0.6936 0.6317   -0.124926
 C 0.4909 0.6373 0.6864   -0.062543
 C 0.4714 0.6801 0.7466   -0.017302
 C 0.4562 0.82 0.8182   0.651628
 C 0.5327 0.6529 0.5662   0.638084
 C 0.8899 0.974 0.9121   0.085826
 C 0.0785 0.975 0.9122   0.094825
 C 0.0399 0.8352 0.9689   0.089021
 C 0.8519 0.8341 0.969   0.091803
 N 0.4448 0.4287 0.8054   0.583985
 N 0.7863 0.402 0.5596   -0.259194
 N 0.1563 0.4051 0.5614   -0.253567
 N 0.5552 0.0713 0.3054   0.583985
 N 0.2137 0.098 0.0596   -0.259194
 N 0.8437 0.0949 0.0614   -0.253567
 N 0.5552 0.5713 0.1946   0.583985
 N 0.2137 0.598 0.4404   -0.259194
 N 0.8437 0.5949 0.4386   -0.253567
 N 0.4448 0.9287 0.6946   0.583985
 N 0.7863 0.902 0.9404   -0.259194
 N 0.1563 0.9051 0.9386   -0.253567
 O 0.4983 0.4076 0.6762   -0.614394
 O 0.4059 0.2673 0.6361   -0.582212
 O 0.5147 0.0633 0.9411   -0.653542
 O 0.5643 0.2091 0.9809   -0.56978
 O 0.5737 0.4853 0.8245   -0.328317
 O 0.294 0.4468 0.7852   -0.36255
 O 0.5017 0.0924 0.1762   -0.614394
 O 0.5941 0.2327 0.1361   -0.582212
 O 0.4853 0.4367 0.4411   -0.653542
 O 0.4357 0.2909 0.4809   -0.56978
 O 0.4263 0.0147 0.3245   -0.328317
 O 0.706 0.0532 0.2852   -0.36255
 O 0.5017 0.5924 0.3238   -0.614394
 O 0.5941 0.7327 0.3639   -0.582212
 O 0.4853 0.9367 0.0589   -0.653542
 O 0.4357 0.7909 0.0191   -0.56978
 O 0.4263 0.5147 0.1755   -0.328318
 O 0.706 0.5532 0.2148   -0.36255
 O 0.4983 0.9076 0.8238   -0.614394
 O 0.4059 0.7673 0.8639   -0.582213
 O 0.5147 0.5633 0.5589   -0.653542
 O 0.5643 0.7091 0.5191   -0.56978
 O 0.5737 0.9853 0.6755   -0.328318
 O 0.294 0.9468 0.7148   -0.36255
