{'_ref': 'TBD', '_srcid': 'CAKYAQ_clean', 'submitters': [{'name': 'Dalar Nazarian Jeff Camp and David Sholl', 'email': 'dalar@gatech.edu jcamp6@gatech.edu'}], '_method': 'VASP DFT with PBE;DDEC'}
data_CdH7C12(NO2)3
_symmetry_space_group_name_H-M   'P 1'
_cell_length_a   7.43780000
_cell_length_b   14.32569987
_cell_length_c   20.91080000
_cell_angle_alpha   90.00000000
_cell_angle_beta   90.00000000
_cell_angle_gamma   92.65000014
_symmetry_Int_Tables_number   1
_chemical_formula_structural   CdH7C12(NO2)3
_chemical_formula_sum   'Cd4 H28 C48 N12 O24'
_cell_volume   2225.69838485
_cell_formula_units_Z   4
loop_
 _symmetry_equiv_pos_site_id
 _symmetry_equiv_pos_as_xyz
  1  'x, y, z'
loop_
 _atom_site_label
 _atom_site_fract_x
 _atom_site_fract_y
 _atom_site_fract_z
 _atom_site_charge
 Cd 0.4884 0.398 0.5636   0.963159
 Cd 0.5116 0.102 0.0636   0.963159
 Cd 0.5116 0.602 0.4364   0.963159
 Cd 0.4884 0.898 0.9364   0.963159
 H 0.5064 0.3217 0.898   0.125208
 H 0.4834 0.0674 0.8143   0.107613
 H 0.4914 0.1382 0.7148   0.086432
 H 0.8455 0.5166 0.6109   0.111467
 H 0.1546 0.5172 0.6124   0.113179
 H 0.1343 0.2931 0.5057   0.115888
 H 0.8249 0.2899 0.5072   0.118443
 H 0.4936 0.1783 0.398   0.125207
 H 0.5166 0.4326 0.3143   0.107613
 H 0.5086 0.3618 0.2148   0.086432
 H 0.1545 0.9834 0.1109   0.111467
 H 0.8454 0.9828 0.1124   0.113179
 H 0.8657 0.2069 0.0057   0.115888
 H 0.1751 0.2101 0.0072   0.118442
 H 0.4936 0.6783 0.102   0.125207
 H 0.5166 0.9326 0.1857   0.107613
 H 0.5086 0.8618 0.2852   0.086432
 H 0.1545 0.4834 0.3891   0.111467
 H 0.8454 0.4828 0.3876   0.113179
 H 0.8657 0.7069 0.4943   0.115888
 H 0.1751 0.7101 0.4928   0.118443
 H 0.5064 0.8217 0.602   0.125206
 H 0.4834 0.5674 0.6857   0.107613
 H 0.4914 0.6382 0.7852   0.086432
 H 0.8455 0.0166 0.8891   0.111467
 H 0.1546 0.0172 0.8876   0.113179
 H 0.1343 0.7931 0.9943   0.115888
 H 0.8249 0.7899 0.9928   0.118442
 C 0.4898 0.2723 0.7454   -0.13435
 C 0.4951 0.3259 0.8003   0.052277
 C 0.5021 0.284 0.8606   -0.131434
 C 0.503 0.1891 0.8658   -0.106262
 C 0.4911 0.1336 0.8109   -0.09301
 C 0.4908 0.176 0.7521   -0.011213
 C 0.4832 0.3167 0.6804   0.67613
 C 0.5085 0.1463 0.9312   0.644692
 C 0.904 0.4686 0.589   0.086172
 C 0.0889 0.4695 0.5897   0.088246
 C 0.0759 0.3402 0.5287   0.088147
 C 0.8907 0.3386 0.529   0.091045
 C 0.5102 0.2277 0.2454   -0.13435
 C 0.5049 0.1741 0.3003   0.052276
 C 0.4979 0.216 0.3606   -0.131434
 C 0.497 0.3109 0.3658   -0.106262
 C 0.5089 0.3664 0.3109   -0.09301
 C 0.5092 0.324 0.2521   -0.011213
 C 0.5168 0.1833 0.1804   0.67613
 C 0.4915 0.3537 0.4312   0.644692
 C 0.096 0.0314 0.089   0.086172
 C 0.9111 0.0305 0.0897   0.088246
 C 0.9241 0.1598 0.0287   0.088147
 C 0.1093 0.1614 0.029   0.091045
 C 0.5102 0.7277 0.2546   -0.13435
 C 0.5049 0.6741 0.1997   0.052276
 C 0.4979 0.716 0.1394   -0.131434
 C 0.497 0.8109 0.1342   -0.106262
 C 0.5089 0.8664 0.1891   -0.09301
 C 0.5092 0.824 0.2479   -0.011213
 C 0.5168 0.6833 0.3196   0.67613
 C 0.4915 0.8537 0.0688   0.644692
 C 0.096 0.5314 0.411   0.086172
 C 0.9111 0.5305 0.4103   0.088246
 C 0.9241 0.6598 0.4713   0.088147
 C 0.1093 0.6614 0.471   0.091045
 C 0.4898 0.7723 0.7546   -0.13435
 C 0.4951 0.8259 0.6997   0.052276
 C 0.5021 0.784 0.6394   -0.131434
 C 0.503 0.6891 0.6342   -0.106262
 C 0.4911 0.6336 0.6891   -0.09301
 C 0.4908 0.676 0.7479   -0.011213
 C 0.4832 0.8167 0.8196   0.67613
 C 0.5085 0.6463 0.5688   0.644692
 C 0.904 0.9686 0.911   0.086172
 C 0.0889 0.9695 0.9103   0.088246
 C 0.0759 0.8402 0.9713   0.088147
 C 0.8907 0.8386 0.971   0.091045
 N 0.488 0.4355 0.806   0.563098
 N 0.8037 0.4032 0.5588   -0.249082
 N 0.1762 0.4051 0.5592   -0.251614
 N 0.512 0.0645 0.306   0.563098
 N 0.1963 0.0968 0.0588   -0.249082
 N 0.8238 0.0949 0.0592   -0.251614
 N 0.512 0.5645 0.194   0.563098
 N 0.1963 0.5968 0.4412   -0.249082
 N 0.8238 0.5949 0.4408   -0.251614
 N 0.488 0.9355 0.694   0.563098
 N 0.8037 0.9032 0.9412   -0.249082
 N 0.1762 0.9051 0.9408   -0.251614
 O 0.4977 0.4012 0.6748   -0.617677
 O 0.4717 0.2659 0.6333   -0.610407
 O 0.5038 0.0598 0.9384   -0.648229
 O 0.5188 0.2018 0.9788   -0.586626
 O 0.645 0.4637 0.8026   -0.296562
 O 0.333 0.4553 0.7967   -0.294727
 O 0.5023 0.0988 0.1748   -0.617677
 O 0.5283 0.2341 0.1333   -0.610407
 O 0.4962 0.4402 0.4384   -0.648229
 O 0.4812 0.2982 0.4788   -0.586626
 O 0.355 0.0363 0.3026   -0.296562
 O 0.667 0.0447 0.2967   -0.294727
 O 0.5023 0.5988 0.3252   -0.617677
 O 0.5283 0.7341 0.3667   -0.610407
 O 0.4962 0.9402 0.0616   -0.648229
 O 0.4812 0.7982 0.0212   -0.586626
 O 0.355 0.5363 0.1974   -0.296562
 O 0.667 0.5447 0.2033   -0.294727
 O 0.4977 0.9012 0.8252   -0.617677
 O 0.4717 0.7659 0.8667   -0.610407
 O 0.5038 0.5598 0.5616   -0.648229
 O 0.5188 0.7018 0.5212   -0.586626
 O 0.645 0.9637 0.6974   -0.296562
 O 0.333 0.9553 0.7033   -0.294727
