{'_ref': 'TBD', '_srcid': 'CAKYAQ_clean', 'submitters': [{'name': 'Dalar Nazarian Jeff Camp and David Sholl', 'email': 'dalar@gatech.edu jcamp6@gatech.edu'}], '_method': 'VASP DFT with PBE;DDEC'}
data_HoH12(C7O2)3
_symmetry_space_group_name_H-M   'P 1'
_cell_length_a   15.22990009
_cell_length_b   15.22989990
_cell_length_c   18.51410000
_cell_angle_alpha   76.08200141
_cell_angle_beta   76.08200158
_cell_angle_gamma   68.20430024
_symmetry_Int_Tables_number   1
_chemical_formula_structural   HoH12(C7O2)3
_chemical_formula_sum   'Ho4 H48 C84 O24'
_cell_volume   3815.41953374
_cell_formula_units_Z   4
loop_
 _symmetry_equiv_pos_site_id
 _symmetry_equiv_pos_as_xyz
  1  'x, y, z'
loop_
 _atom_site_label
 _atom_site_fract_x
 _atom_site_fract_y
 _atom_site_fract_z
 _atom_site_charge
 Ho 0.96184 0.04366 0.10434   2.256941
 Ho 0.95634 0.03816 0.39566   2.256943
 Ho 0.03816 0.95634 0.89566   2.256941
 Ho 0.04366 0.96184 0.60434   2.256943
 H 0.9869 0.2855 0.7868   0.105333
 H 0.9792 0.4396 0.7563   0.098003
 H 0.9595 0.4493 0.9717   0.091901
 H 0.9669 0.2945 0.0035   0.078269
 H 0.6531 0.0767 0.0934   0.0945
 H 0.5067 0.0677 0.091   0.100035
 H 0.6169 0.9589 0.9024   0.095669
 H 0.7628 0.967 0.9039   0.110462
 H 0.8951 0.7625 0.9067   0.097443
 H 0.884 0.612 0.9353   0.112013
 H 0.0484 0.5564 0.7357   0.104458
 H 0.051 0.7076 0.7063   0.090515
 H 0.7145 0.0131 0.7132   0.105334
 H 0.5604 0.0208 0.7437   0.098003
 H 0.5507 0.0405 0.5283   0.091901
 H 0.7055 0.0331 0.4965   0.078269
 H 0.9233 0.3469 0.4066   0.0945
 H 0.9323 0.4933 0.409   0.100035
 H 0.0411 0.3831 0.5976   0.095669
 H 0.033 0.2372 0.5961   0.110463
 H 0.2375 0.1049 0.5933   0.097443
 H 0.388 0.116 0.5647   0.112014
 H 0.4436 0.9516 0.7643   0.104458
 H 0.2924 0.949 0.7937   0.090515
 H 0.0131 0.7145 0.2132   0.105333
 H 0.0208 0.5604 0.2437   0.098003
 H 0.0405 0.5507 0.0283   0.0919
 H 0.0331 0.7055 0.9965   0.078269
 H 0.3469 0.9233 0.9066   0.094502
 H 0.4933 0.9323 0.909   0.100035
 H 0.3831 0.0411 0.0976   0.095669
 H 0.2372 0.033 0.0961   0.110462
 H 0.1049 0.2375 0.0933   0.097443
 H 0.116 0.388 0.0647   0.112014
 H 0.9516 0.4436 0.2643   0.104459
 H 0.949 0.2924 0.2937   0.090516
 H 0.2855 0.9869 0.2868   0.105334
 H 0.4396 0.9792 0.2563   0.098003
 H 0.4493 0.9595 0.4717   0.0919
 H 0.2945 0.9669 0.5035   0.078269
 H 0.0767 0.6531 0.5934   0.094502
 H 0.0677 0.5067 0.591   0.100035
 H 0.9589 0.6169 0.4024   0.095669
 H 0.967 0.7628 0.4039   0.110463
 H 0.7625 0.8951 0.4067   0.097443
 H 0.612 0.884 0.4353   0.112014
 H 0.5564 0.0484 0.2357   0.104459
 H 0.7076 0.051 0.2063   0.090516
 C 0.9923 0.1663 0.9196   0.815796
 C 0.9825 0.2691 0.9003   -0.170733
 C 0.9829 0.3181 0.8246   -0.019473
 C 0.9778 0.4106 0.8066   -0.139805
 C 0.9702 0.4648 0.8594   0.05802
 C 0.9661 0.4161 0.9335   -0.141518
 C 0.9712 0.3226 0.9529   -0.004901
 C 0.8191 0.0317 0.9991   0.809828
 C 0.7245 0.0235 0.9979   -0.157549
 C 0.6461 0.0523 0.0544   -0.031342
 C 0.5585 0.0453 0.0538   -0.141415
 C 0.5469 0.0057 0.999   0.050264
 C 0.6243 0.9811 0.9425   -0.135009
 C 0.7118 0.9874 0.9423   -0.021123
 C 0.9841 0.8503 0.7858   0.833811
 C 0.9758 0.7522 0.8046   -0.196515
 C 0.9259 0.7209 0.872   -0.01584
 C 0.9202 0.6298 0.8898   -0.143715
 C 0.9679 0.5639 0.8407   0.055508
 C 0.017 0.5976 0.7707   -0.148716
 C 0.0195 0.6877 0.7534   -0.000611
 C 0.8337 0.0077 0.5804   0.815796
 C 0.7309 0.0175 0.5997   -0.170733
 C 0.6819 0.0171 0.6754   -0.019473
 C 0.5894 0.0222 0.6934   -0.139804
 C 0.5352 0.0298 0.6406   0.05802
 C 0.5839 0.0339 0.5665   -0.141518
 C 0.6774 0.0288 0.5471   -0.004901
 C 0.9683 0.1809 0.5009   0.809828
 C 0.9765 0.2755 0.5021   -0.157549
 C 0.9477 0.3539 0.4456   -0.031342
 C 0.9547 0.4415 0.4462   -0.141415
 C 0.9943 0.4531 0.501   0.050264
 C 0.0189 0.3757 0.5575   -0.135009
 C 0.0126 0.2882 0.5577   -0.021123
 C 0.1497 0.0159 0.7142   0.833811
 C 0.2478 0.0242 0.6954   -0.196515
 C 0.2791 0.0741 0.628   -0.01584
 C 0.3702 0.0798 0.6102   -0.143715
 C 0.4361 0.0321 0.6593   0.055508
 C 0.4024 0.983 0.7293   -0.148716
 C 0.3123 0.9805 0.7466   -0.000611
 C 0.0077 0.8337 0.0804   0.815796
 C 0.0175 0.7309 0.0997   -0.170733
 C 0.0171 0.6819 0.1754   -0.019473
 C 0.0222 0.5894 0.1934   -0.139804
 C 0.0298 0.5352 0.1406   0.05802
 C 0.0339 0.5839 0.0665   -0.141518
 C 0.0288 0.6774 0.0471   -0.004901
 C 0.1809 0.9683 0.000900000000001   0.809828
 C 0.2755 0.9765 0.0021   -0.157548
 C 0.3539 0.9477 0.9456   -0.031343
 C 0.4415 0.9547 0.9462   -0.141414
 C 0.4531 0.9943 0.000999999999998   0.050262
 C 0.3757 0.0189 0.0575   -0.135009
 C 0.2882 0.0126 0.0577   -0.021123
 C 0.0159 0.1497 0.2142   0.833811
 C 0.0242 0.2478 0.1954   -0.196515
 C 0.0741 0.2791 0.128   -0.01584
 C 0.0798 0.3702 0.1102   -0.143715
 C 0.0321 0.4361 0.1593   0.055508
 C 0.983 0.4024 0.2293   -0.148716
 C 0.9805 0.3123 0.2466   -0.000612
 C 0.1663 0.9923 0.4196   0.815796
 C 0.2691 0.9825 0.4003   -0.170733
 C 0.3181 0.9829 0.3246   -0.019473
 C 0.4106 0.9778 0.3066   -0.139804
 C 0.4648 0.9702 0.3594   0.05802
 C 0.4161 0.9661 0.4335   -0.141518
 C 0.3226 0.9712 0.4529   -0.004901
 C 0.0317 0.8191 0.4991   0.809828
 C 0.0235 0.7245 0.4979   -0.157548
 C 0.0523 0.6461 0.5544   -0.031343
 C 0.0453 0.5585 0.5538   -0.141414
 C 0.0057 0.5469 0.499   0.050262
 C 0.9811 0.6243 0.4425   -0.135008
 C 0.9874 0.7118 0.4423   -0.021123
 C 0.8503 0.9841 0.2858   0.833811
 C 0.7522 0.9758 0.3046   -0.196515
 C 0.7209 0.9259 0.372   -0.01584
 C 0.6298 0.9202 0.3898   -0.143715
 C 0.5639 0.9679 0.3407   0.055508
 C 0.5976 0.017 0.2707   -0.148716
 C 0.6877 0.0195 0.2534   -0.000611
 O 0.9868 0.129 0.9873   -0.853226
 O 0.96076 0.89656 0.839   -0.775804
 O 0.8326 0.044 0.0603   -0.785933
 O 0.0195 0.8759 0.7209   -0.770463
 O 0.9895 0.8801 0.1334   -0.692608
 O 0.8777 0.0245 0.9405   -0.712476
 O 0.871 0.0132 0.5127   -0.853227
 O 0.10344 0.03924 0.661   -0.775804
 O 0.956 0.1674 0.4397   -0.785933
 O 0.1241 0.9805 0.7791   -0.770463
 O 0.1199 0.0105 0.3666   -0.692608
 O 0.9755 0.1223 0.5595   -0.712476
 O 0.0132 0.871 0.0127   -0.853226
 O 0.03924 0.10344 0.161   -0.775804
 O 0.1674 0.956 0.9397   -0.785933
 O 0.9805 0.1241 0.2791   -0.770463
 O 0.0105 0.1199 0.8666   -0.692608
 O 0.1223 0.9755 0.0595   -0.712476
 O 0.129 0.9868 0.4873   -0.853227
 O 0.89656 0.96076 0.339   -0.775804
 O 0.044 0.8326 0.5603   -0.785933
 O 0.8759 0.0195 0.2209   -0.770463
 O 0.8801 0.9895 0.6334   -0.692608
 O 0.0245 0.8777 0.4405   -0.712476
