{'_ref': 'TBD', '_srcid': 'CAKYAQ_clean', 'submitters': [{'name': 'Dalar Nazarian Jeff Camp and David Sholl', 'email': 'dalar@gatech.edu jcamp6@gatech.edu'}], '_method': 'VASP DFT with PBE;DDEC'}
data_ZnH10C12(NO)4
_symmetry_space_group_name_H-M   'P 1'
_cell_length_a   8.42410000
_cell_length_b   14.38850000
_cell_length_c   15.47450000
_cell_angle_alpha   90.00000000
_cell_angle_beta   90.00000000
_cell_angle_gamma   90.00000000
_symmetry_Int_Tables_number   1
_chemical_formula_structural   ZnH10C12(NO)4
_chemical_formula_sum   'Zn4 H40 C48 N16 O16'
_cell_volume   1875.66666502
_cell_formula_units_Z   4
loop_
 _symmetry_equiv_pos_site_id
 _symmetry_equiv_pos_as_xyz
  1  'x, y, z'
loop_
 _atom_site_label
 _atom_site_fract_x
 _atom_site_fract_y
 _atom_site_fract_z
 _atom_site_charge
 Zn 0.21275 0.24968 0.18986   0.891435
 Zn 0.21275 0.75032 0.81014   0.891435
 Zn 0.78725 0.25032 0.68986   0.891435
 Zn 0.78725 0.74968 0.31014   0.891435
 H 0.5986 0.0734 0.2448   0.141995
 H 0.5986 0.9266 0.7552   0.141995
 H 0.4014 0.4266 0.7448   0.141995
 H 0.4014 0.5734 0.2552   0.141995
 H 0.2545 0.8837 0.2659   0.125992
 H 0.2545 0.1163 0.7341   0.125992
 H 0.7455 0.6163 0.7659   0.125992
 H 0.7455 0.3837 0.2341   0.125992
 H 0.4449 0.7716 0.288   0.084287
 H 0.4449 0.2284 0.712   0.084287
 H 0.5551 0.7284 0.788   0.084287
 H 0.5551 0.2716 0.212   0.084287
 H 0.9594 0.1613 0.9092   0.146471
 H 0.9594 0.8387 0.0908   0.146471
 H 0.0406 0.3387 0.4092   0.146471
 H 0.0406 0.6613 0.5908   0.146471
 H 0.2609 0.3752 0.8984   0.127444
 H 0.2609 0.6248 0.1016   0.127444
 H 0.7391 0.1248 0.3984   0.127444
 H 0.7391 0.8752 0.6016   0.127444
 H 0.2908 0.3641 0.0428   0.069056
 H 0.2908 0.6359 0.9572   0.069056
 H 0.7092 0.1359 0.5428   0.069056
 H 0.7092 0.8641 0.4572   0.069056
 H 0.9018 0.9201 0.277   0.339854
 H 0.9018 0.0799 0.723   0.339854
 H 0.0982 0.5799 0.777   0.339854
 H 0.0982 0.4201 0.223   0.339854
 H 0.8626 0.0192 0.2589   0.350984
 H 0.8626 0.9808 0.7411   0.350984
 H 0.1374 0.4808 0.7589   0.350984
 H 0.1374 0.5192 0.2411   0.350984
 H 0.000700000000002 0.1294 0.1259   0.319358
 H 0.000700000000002 0.8706 0.8741   0.319358
 H 0.9993 0.3706 0.6259   0.319358
 H 0.9993 0.6294 0.3741   0.319358
 H 0.9194 0.0934 0.0473   0.35947
 H 0.9194 0.9066 0.9527   0.359471
 H 0.0806 0.4066 0.5473   0.35947
 H 0.0806 0.5934 0.4527   0.359471
 C 0.6803 0.9425 0.269   0.506197
 C 0.6803 0.0575 0.731   0.506197
 C 0.3197 0.5575 0.769   0.506197
 C 0.3197 0.4425 0.231   0.506197
 C 0.5657 0.0126 0.2542   -0.27572
 C 0.5657 0.9874 0.7458   -0.27572
 C 0.4343 0.4874 0.7542   -0.27572
 C 0.4343 0.5126 0.2458   -0.27572
 C 0.4081 0.9922 0.2535   0.022579
 C 0.4081 0.0078 0.7465   0.022579
 C 0.5919 0.5078 0.7535   0.022579
 C 0.5919 0.4922 0.2465   0.022579
 C 0.3614 0.8998 0.2666   -0.226538
 C 0.3614 0.1002 0.7334   -0.226538
 C 0.6386 0.6002 0.7666   -0.226538
 C 0.6386 0.3998 0.2334   -0.226538
 C 0.4761 0.8331 0.2805   0.164313
 C 0.4761 0.1669 0.7195   0.164313
 C 0.5239 0.6669 0.7805   0.164313
 C 0.5239 0.3331 0.2195   0.164313
 C 0.2897 0.0662 0.2351   0.645178
 C 0.2897 0.9338 0.7649   0.645178
 C 0.7103 0.4338 0.7351   0.645178
 C 0.7103 0.5662 0.2649   0.645178
 C 0.0551 0.1959 0.0241   0.517018
 C 0.0551 0.8041 0.9759   0.517018
 C 0.9449 0.3041 0.5241   0.517018
 C 0.9449 0.6959 0.4759   0.517018
 C 0.0299 0.2019 0.936   -0.283837
 C 0.0299 0.7981 0.064   -0.283837
 C 0.9701 0.2981 0.436   -0.283837
 C 0.9701 0.7019 0.564   -0.283837
 C 0.1083 0.2674 0.8882   0.034274
 C 0.1083 0.7326 0.1118   0.034274
 C 0.8917 0.2326 0.3882   0.034274
 C 0.8917 0.7674 0.6118   0.034274
 C 0.2077 0.3293 0.9293   -0.230115
 C 0.2077 0.6707 0.0707   -0.230116
 C 0.7923 0.1707 0.4293   -0.230115
 C 0.7923 0.8293 0.5707   -0.230116
 C 0.2254 0.3213 0.0151   0.193367
 C 0.2254 0.6787 0.9849   0.193367
 C 0.7746 0.1787 0.5151   0.193367
 C 0.7746 0.8213 0.4849   0.193367
 C 0.0772 0.2755 0.7916   0.653767
 C 0.0772 0.7245 0.2084   0.653767
 C 0.9228 0.2245 0.2916   0.653767
 C 0.9228 0.7755 0.7084   0.653767
 N 0.6342 0.8544 0.2836   -0.475768
 N 0.6342 0.1456 0.7164   -0.475768
 N 0.3658 0.6456 0.7836   -0.475768
 N 0.3658 0.3544 0.2164   -0.475768
 N 0.8324 0.963 0.2682   -0.678601
 N 0.8324 0.037 0.7318   -0.678601
 N 0.1676 0.537 0.7682   -0.678601
 N 0.1676 0.463 0.2318   -0.678601
 N 0.1565 0.257 0.0631   -0.47029
 N 0.1565 0.743 0.9369   -0.47029
 N 0.8435 0.243 0.5631   -0.47029
 N 0.8435 0.757 0.4369   -0.47029
 N 0.9834 0.1322 0.0712   -0.677743
 N 0.9834 0.8678 0.9288   -0.677743
 N 0.0166 0.3678 0.5712   -0.677743
 N 0.0166 0.6322 0.4288   -0.677743
 O 0.1448 0.0471 0.2435   -0.597357
 O 0.1448 0.9529 0.7565   -0.597357
 O 0.8552 0.4529 0.7435   -0.597357
 O 0.8552 0.5471 0.2565   -0.597357
 O 0.3435 0.1428 0.2134   -0.587243
 O 0.3435 0.8572 0.7866   -0.587243
 O 0.6565 0.3572 0.7134   -0.587243
 O 0.6565 0.6428 0.2866   -0.587243
 O 0.9615 0.2226 0.7659   -0.656778
 O 0.9615 0.7774 0.2341   -0.656778
 O 0.0385 0.2774 0.2659   -0.656778
 O 0.0385 0.7226 0.7341   -0.656778
 O 0.1527 0.3279 0.7475   -0.533047
 O 0.1527 0.6721 0.2525   -0.533047
 O 0.8473 0.1721 0.2475   -0.533047
 O 0.8473 0.8279 0.7525   -0.533047
