{'_ref': 'TBD', '_srcid': 'CAKYAQ_clean', 'submitters': [{'name': 'Dalar Nazarian Jeff Camp and David Sholl', 'email': 'dalar@gatech.edu jcamp6@gatech.edu'}], '_method': 'VASP DFT with PBE;DDEC'}
data_ZnHC4N11
_symmetry_space_group_name_H-M   'P 1'
_cell_length_a   14.62060043
_cell_length_b   14.62060007
_cell_length_c   14.62060000
_cell_angle_alpha   109.38000005
_cell_angle_beta   109.37999956
_cell_angle_gamma   109.37999883
_symmetry_Int_Tables_number   1
_chemical_formula_structural   ZnHC4N11
_chemical_formula_sum   'Zn6 H6 C24 N66'
_cell_volume   2413.96997108
_cell_formula_units_Z   6
loop_
 _symmetry_equiv_pos_site_id
 _symmetry_equiv_pos_as_xyz
  1  'x, y, z'
loop_
 _atom_site_label
 _atom_site_fract_x
 _atom_site_fract_y
 _atom_site_fract_z
 _atom_site_charge
 Zn 0.19922 0.44964 0.69352   0.742807
 Zn 0.69352 0.19922 0.44964   0.742807
 Zn 0.44964 0.69352 0.19922   0.742807
 Zn 0.80078 0.55036 0.30648   0.742807
 Zn 0.30648 0.80078 0.55036   0.742807
 Zn 0.55036 0.30648 0.80078   0.742807
 H 0.6928 0.6943 0.06   0.305567
 H 0.06 0.6928 0.6943   0.305567
 H 0.6943 0.06 0.6928   0.305567
 H 0.3072 0.3057 0.94   0.305567
 H 0.94 0.3072 0.3057   0.305567
 H 0.3057 0.94 0.3072   0.305567
 C 0.44952 0.58276 0.94952   0.061831
 C 0.47143 0.51628 0.87589   0.055129
 C 0.34609 0.57077 0.94794   0.294464
 C 0.39848 0.41187 0.77005   0.29766
 C 0.94952 0.44952 0.58276   0.061831
 C 0.87589 0.47143 0.51628   0.055129
 C 0.94794 0.34609 0.57077   0.294464
 C 0.77005 0.39848 0.41187   0.29766
 C 0.58276 0.94952 0.44952   0.061831
 C 0.51628 0.87589 0.47143   0.055129
 C 0.57077 0.94794 0.34609   0.294464
 C 0.41187 0.77005 0.39848   0.29766
 C 0.55048 0.41724 0.05048   0.061831
 C 0.52857 0.48372 0.12411   0.055129
 C 0.65391 0.42923 0.05206   0.294464
 C 0.60152 0.58813 0.22995   0.29766
 C 0.05048 0.55048 0.41724   0.061831
 C 0.12411 0.52857 0.48372   0.055129
 C 0.05206 0.65391 0.42923   0.294464
 C 0.22995 0.60152 0.58813   0.29766
 C 0.41724 0.05048 0.55048   0.061831
 C 0.48372 0.12411 0.52857   0.055129
 C 0.42923 0.05206 0.65391   0.294464
 C 0.58813 0.22995 0.60152   0.29766
 N 0.54651 0.66707 0.03822   -0.291368
 N 0.6223 0.6499 0.0153   0.145242
 N 0.58229 0.56107 0.92034   -0.290775
 N 0.4272 0.33521 0.73459   -0.260293
 N 0.3405 0.2538 0.6318   -0.072604
 N 0.2627 0.2797 0.6069   -0.078048
 N 0.29633 0.37894 0.69303   -0.254256
 N 0.33755 0.60937 0.03878   -0.233579
 N 0.22973 0.58146 0.00321   -0.07902
 N 0.17501 0.52836 0.89533   -0.070851
 N 0.24704 0.51978 0.85738   -0.271906
 N 0.03822 0.54651 0.66707   -0.291369
 N 0.0153 0.6223 0.6499   0.145242
 N 0.92034 0.58229 0.56107   -0.290775
 N 0.73459 0.4272 0.33521   -0.260293
 N 0.6318 0.3405 0.2538   -0.072604
 N 0.6069 0.2627 0.2797   -0.078048
 N 0.69303 0.29633 0.37894   -0.254256
 N 0.03878 0.33755 0.60937   -0.233579
 N 0.00321 0.22973 0.58146   -0.079019
 N 0.89533 0.17501 0.52836   -0.070851
 N 0.85738 0.24704 0.51978   -0.271906
 N 0.66707 0.03822 0.54651   -0.291369
 N 0.6499 0.0153 0.6223   0.145242
 N 0.56107 0.92034 0.58229   -0.290775
 N 0.33521 0.73459 0.4272   -0.260293
 N 0.2538 0.6318 0.3405   -0.072604
 N 0.2797 0.6069 0.2627   -0.078047
 N 0.37894 0.69303 0.29633   -0.254256
 N 0.60937 0.03878 0.33755   -0.233579
 N 0.58146 0.00321 0.22973   -0.079019
 N 0.52836 0.89533 0.17501   -0.070852
 N 0.51978 0.85738 0.24704   -0.271906
 N 0.45349 0.33293 0.96178   -0.291369
 N 0.3777 0.3501 0.9847   0.145242
 N 0.41771 0.43893 0.07966   -0.290775
 N 0.5728 0.66479 0.26541   -0.260293
 N 0.6595 0.7462 0.3682   -0.072604
 N 0.7373 0.7203 0.3931   -0.078047
 N 0.70367 0.62106 0.30697   -0.254256
 N 0.66245 0.39063 0.96122   -0.233579
 N 0.77027 0.41854 0.99679   -0.079019
 N 0.82499 0.47164 0.10467   -0.070851
 N 0.75296 0.48022 0.14262   -0.271906
 N 0.96178 0.45349 0.33293   -0.291369
 N 0.9847 0.3777 0.3501   0.145242
 N 0.07966 0.41771 0.43893   -0.290775
 N 0.26541 0.5728 0.66479   -0.260293
 N 0.3682 0.6595 0.7462   -0.072604
 N 0.3931 0.7373 0.7203   -0.078047
 N 0.30697 0.70367 0.62106   -0.254256
 N 0.96122 0.66245 0.39063   -0.233579
 N 0.99679 0.77027 0.41854   -0.079018
 N 0.10467 0.82499 0.47164   -0.070851
 N 0.14262 0.75296 0.48022   -0.271906
 N 0.33293 0.96178 0.45349   -0.291369
 N 0.3501 0.9847 0.3777   0.145242
 N 0.43893 0.07966 0.41771   -0.290775
 N 0.66479 0.26541 0.5728   -0.260292
 N 0.7462 0.3682 0.6595   -0.072605
 N 0.7203 0.3931 0.7373   -0.078047
 N 0.62106 0.30697 0.70367   -0.254256
 N 0.39063 0.96122 0.66245   -0.233579
 N 0.41854 0.99679 0.77027   -0.079018
 N 0.47164 0.10467 0.82499   -0.070852
 N 0.48022 0.14262 0.75296   -0.271906
