{'_ref': 'TBD', '_srcid': 'CAKYAQ_clean', 'submitters': [{'name': 'Dalar Nazarian Jeff Camp and David Sholl', 'email': 'dalar@gatech.edu jcamp6@gatech.edu'}], '_method': 'VASP DFT with PBE;DDEC'}
data_Cu4H24WC36S4(BrN9)2
_symmetry_space_group_name_H-M   'P 1'
_cell_length_a   13.69700000
_cell_length_b   20.64819962
_cell_length_c   20.64820000
_cell_angle_alpha   102.28079930
_cell_angle_beta   90.00000000
_cell_angle_gamma   90.00000000
_symmetry_Int_Tables_number   1
_chemical_formula_structural   Cu4H24WC36S4(BrN9)2
_chemical_formula_sum   'Cu16 H96 W4 C144 S16 Br8 N72'
_cell_volume   5706.06051416
_cell_formula_units_Z   4
loop_
 _symmetry_equiv_pos_site_id
 _symmetry_equiv_pos_as_xyz
  1  'x, y, z'
loop_
 _atom_site_label
 _atom_site_fract_x
 _atom_site_fract_y
 _atom_site_fract_z
 _atom_site_charge
 Cu 0.16932 0.72589 0.61555   0.307216
 Cu 0.17601 0.61899 0.74673   0.307966
 Cu 0.16932 0.77411 0.88445   0.307216
 Cu 0.17601 0.88101 0.75327   0.307966
 Cu 0.33068 0.38445 0.27411   0.307216
 Cu 0.32399 0.25327 0.38101   0.307966
 Cu 0.33068 0.11555 0.22589   0.307216
 Cu 0.32399 0.24673 0.11899   0.307966
 Cu 0.83068 0.27411 0.38445   0.307216
 Cu 0.82399 0.38101 0.25327   0.307966
 Cu 0.83068 0.22589 0.11555   0.307216
 Cu 0.82399 0.11899 0.24673   0.307966
 Cu 0.66932 0.61555 0.72589   0.307216
 Cu 0.67601 0.74673 0.61899   0.307966
 Cu 0.66932 0.88445 0.77411   0.307216
 Cu 0.67601 0.75327 0.88101   0.307966
 H 0.8296 0.0568 0.3632   0.062345
 H 0.7354 0.9973 0.4193   0.100026
 H 0.5147 0.0121 0.2965   0.104578
 H 0.6179 0.07 0.242   0.070922
 H 0.4709 0.8512 0.5758   0.109
 H 0.3719 0.7882 0.6278   0.070222
 H 0.1756 0.7757 0.4901   0.06808
 H 0.2669 0.8392 0.435   0.117796
 H 0.0886 0.4766 0.7354   0.073645
 H 0.9512 0.4215 0.6901   0.125864
 H 0.9095 0.5622 0.5902   0.119595
 H 0.037 0.619 0.6448   0.043668
 H 0.8296 0.4432 0.1368   0.062345
 H 0.7354 0.5027 0.0807   0.100026
 H 0.5147 0.4879 0.2035   0.104578
 H 0.6179 0.43 0.258   0.070922
 H 0.4709 0.6488 0.9242   0.109
 H 0.3719 0.7118 0.8722   0.070222
 H 0.1756 0.7243 0.0099   0.06808
 H 0.2669 0.6608 0.065   0.117796
 H 0.0886 0.0234 0.7646   0.073645
 H 0.9512 0.0785 0.8099   0.125864
 H 0.9095 0.9378 0.9098   0.119595
 H 0.037 0.881 0.8552   0.043668
 H 0.6704 0.6368 0.9432   0.062345
 H 0.7646 0.5807 0.0027   0.100026
 H 0.9853 0.7035 0.9879   0.104578
 H 0.8821 0.758 0.93   0.070922
 H 0.0291 0.4242 0.1488   0.109
 H 0.1281 0.3722 0.2118   0.070222
 H 0.3244 0.5099 0.2243   0.06808
 H 0.2331 0.565 0.1608   0.117797
 H 0.4114 0.2646 0.5234   0.073645
 H 0.5488 0.3099 0.5785   0.125864
 H 0.5905 0.4098 0.4378   0.119594
 H 0.463 0.3552 0.381   0.043668
 H 0.6704 0.8632 0.5568   0.062345
 H 0.7646 0.9193 0.4973   0.100026
 H 0.9853 0.7965 0.5121   0.104578
 H 0.8821 0.742 0.57   0.070922
 H 0.0291 0.0758 0.3512   0.109
 H 0.1281 0.1278 0.2882   0.070222
 H 0.3244 0.9901 0.2757   0.06808
 H 0.2331 0.935 0.3392   0.117798
 H 0.4114 0.2354 0.9766   0.073645
 H 0.5488 0.1901 0.9215   0.125864
 H 0.5905 0.0902 0.0622   0.119594
 H 0.463 0.1448 0.119   0.043668
 H 0.1704 0.9432 0.6368   0.062345
 H 0.2646 0.0027 0.5807   0.100026
 H 0.4853 0.9879 0.7035   0.104578
 H 0.3821 0.93 0.758   0.070922
 H 0.5291 0.1488 0.4242   0.109
 H 0.6281 0.2118 0.3722   0.070222
 H 0.8244 0.2243 0.5099   0.06808
 H 0.7331 0.1608 0.565   0.117796
 H 0.9114 0.5234 0.2646   0.073645
 H 0.0488 0.5785 0.3099   0.125865
 H 0.0905 0.4378 0.4098   0.119595
 H 0.963 0.381 0.3552   0.043668
 H 0.1704 0.5568 0.8632   0.062345
 H 0.2646 0.4973 0.9193   0.100026
 H 0.4853 0.5121 0.7965   0.104578
 H 0.3821 0.57 0.742   0.070922
 H 0.5291 0.3512 0.0758   0.109
 H 0.6281 0.2882 0.1278   0.070222
 H 0.8244 0.2757 0.9901   0.06808
 H 0.7331 0.3392 0.935   0.117796
 H 0.9114 0.9766 0.2354   0.073645
 H 0.0488 0.9215 0.1901   0.125865
 H 0.0905 0.0622 0.0902   0.119595
 H 0.963 0.119 0.1448   0.043668
 H 0.3296 0.3632 0.0568   0.062345
 H 0.2354 0.4193 0.9973   0.100026
 H 0.0147 0.2965 0.0121   0.104578
 H 0.1179 0.242 0.07   0.070922
 H 0.9709 0.5758 0.8512   0.109
 H 0.8719 0.6278 0.7882   0.070222
 H 0.6756 0.4901 0.7757   0.06808
 H 0.7669 0.435 0.8392   0.117798
 H 0.5886 0.7354 0.4766   0.073644
 H 0.4512 0.6901 0.4215   0.125864
 H 0.4095 0.5902 0.5622   0.119594
 H 0.537 0.6448 0.619   0.043668
 H 0.3296 0.1368 0.4432   0.062345
 H 0.2354 0.0807 0.5027   0.100026
 H 0.0147 0.2035 0.4879   0.104578
 H 0.1179 0.258 0.43   0.070922
 H 0.9709 0.9242 0.6488   0.109
 H 0.8719 0.8722 0.7118   0.070222
 H 0.6756 0.0099 0.7243   0.06808
 H 0.7669 0.065 0.6608   0.117798
 H 0.5886 0.7646 0.0234   0.073644
 H 0.4512 0.8099 0.0785   0.125864
 H 0.4095 0.9098 0.9378   0.119594
 H 0.537 0.8552 0.881   0.043668
 W 0.17096 0.75 0.75   0.498304
 W 0.32904 0.25 0.25   0.498304
 W 0.82904 0.25 0.25   0.498304
 W 0.67096 0.75 0.75   0.498304
 C 0.7657 0.04721 0.34919   0.139647
 C 0.7095 0.01206 0.38334   -0.1449
 C 0.6121 0.99776 0.36424   -0.001629
 C 0.5787 0.02011 0.31089   -0.118828
 C 0.6414 0.055 0.2784   0.151558
 C 0.5488 0.95987 0.40113   0.335345
 C 0.4412 0.89436 0.46444   0.338449
 C 0.3794 0.85285 0.49955   0.001094
 C 0.4106 0.83668 0.55772   -0.173763
 C 0.351 0.79882 0.58858   0.146127
 C 0.2356 0.79163 0.50777   0.163085
 C 0.2899 0.8295 0.4743   -0.129297
 C 0.0509 0.4952 0.7066   0.142346
 C 0.9693 0.461 0.6788   -0.16509
 C 0.9157 0.48638 0.63462   0.041586
 C 0.9438 0.5445 0.6211   -0.130565
 C 0.0218 0.5775 0.6525   0.169149
 C 0.826 0.4519 0.6035   0.333621
 C 0.7657 0.45279 0.15081   0.139647
 C 0.7095 0.48794 0.11666   -0.1449
 C 0.6121 0.50224 0.13576   -0.001629
 C 0.5787 0.47989 0.18911   -0.118828
 C 0.6414 0.445 0.2216   0.151558
 C 0.5488 0.54013 0.09887   0.335345
 C 0.4412 0.60564 0.03556   0.338449
 C 0.3794 0.64715 0.000450000000001   0.001094
 C 0.4106 0.66332 0.94228   -0.173763
 C 0.351 0.70118 0.91142   0.146127
 C 0.2356 0.70837 0.99223   0.163085
 C 0.2899 0.6705 0.0257   -0.129297
 C 0.0509 0.0048 0.7934   0.142346
 C 0.9693 0.039 0.8212   -0.16509
 C 0.9157 0.01362 0.86538   0.041586
 C 0.9438 0.9555 0.8789   -0.130565
 C 0.0218 0.9225 0.8475   0.169149
 C 0.826 0.0481 0.8965   0.333621
 C 0.7343 0.65081 0.95279   0.139646
 C 0.7905 0.61666 0.98794   -0.144901
 C 0.8879 0.63576 0.00224   -0.001629
 C 0.9213 0.68911 0.97989   -0.118828
 C 0.8586 0.7216 0.945   0.151558
 C 0.9512 0.59887 0.04013   0.335344
 C 0.0588 0.53556 0.10564   0.338449
 C 0.1206 0.50045 0.14715   0.001094
 C 0.0894 0.44228 0.16332   -0.173763
 C 0.149 0.41142 0.20118   0.146127
 C 0.2644 0.49223 0.20837   0.163086
 C 0.2101 0.5257 0.1705   -0.129297
 C 0.4491 0.2934 0.5048   0.142347
 C 0.5307 0.3212 0.539   -0.16509
 C 0.5843 0.36538 0.51362   0.041586
 C 0.5562 0.3789 0.4555   -0.130565
 C 0.4782 0.3475 0.4225   0.16915
 C 0.674 0.3965 0.5481   0.333614
 C 0.7343 0.84919 0.54721   0.139646
 C 0.7905 0.88334 0.51206   -0.144901
 C 0.8879 0.86424 0.49776   -0.001629
 C 0.9213 0.81089 0.52011   -0.118828
 C 0.8586 0.7784 0.555   0.151558
 C 0.9512 0.90113 0.45987   0.335344
 C 0.0588 0.96444 0.39436   0.338449
 C 0.1206 0.99955 0.35285   0.001094
 C 0.0894 0.05772 0.33668   -0.173763
 C 0.149 0.08858 0.29882   0.146127
 C 0.2644 0.00777 0.29163   0.163086
 C 0.2101 0.9743 0.3295   -0.129297
 C 0.4491 0.2066 0.9952   0.142347
 C 0.5307 0.1788 0.961   -0.16509
 C 0.5843 0.13462 0.98638   0.041586
 C 0.5562 0.1211 0.0445   -0.130565
 C 0.4782 0.1525 0.0775   0.16915
 C 0.674 0.1035 0.9519   0.333614
 C 0.2343 0.95279 0.65081   0.139647
 C 0.2905 0.98794 0.61666   -0.1449
 C 0.3879 0.00224 0.63576   -0.001629
 C 0.4213 0.97989 0.68911   -0.118828
 C 0.3586 0.945 0.7216   0.151559
 C 0.4512 0.04013 0.59887   0.335345
 C 0.5588 0.10564 0.53556   0.338449
 C 0.6206 0.14715 0.50045   0.001094
 C 0.5894 0.16332 0.44228   -0.173763
 C 0.649 0.20118 0.41142   0.146127
 C 0.7644 0.20837 0.49223   0.163085
 C 0.7101 0.1705 0.5257   -0.129297
 C 0.9491 0.5048 0.2934   0.142346
 C 0.0307 0.539 0.3212   -0.16509
 C 0.0843 0.51362 0.36538   0.041586
 C 0.0562 0.4555 0.3789   -0.130565
 C 0.9782 0.4225 0.3475   0.169149
 C 0.174 0.5481 0.3965   0.333621
 C 0.2343 0.54721 0.84919   0.139647
 C 0.2905 0.51206 0.88334   -0.1449
 C 0.3879 0.49776 0.86424   -0.001629
 C 0.4213 0.52011 0.81089   -0.118828
 C 0.3586 0.555 0.7784   0.151559
 C 0.4512 0.45987 0.90113   0.335345
 C 0.5588 0.39436 0.96444   0.338449
 C 0.6206 0.35285 0.99955   0.001094
 C 0.5894 0.33668 0.05772   -0.173763
 C 0.649 0.29882 0.08858   0.146127
 C 0.7644 0.29163 0.00777   0.163085
 C 0.7101 0.3295 0.9743   -0.129297
 C 0.9491 0.9952 0.2066   0.142346
 C 0.0307 0.961 0.1788   -0.16509
 C 0.0843 0.98638 0.13462   0.041586
 C 0.0562 0.0445 0.1211   -0.130565
 C 0.9782 0.0775 0.1525   0.169149
 C 0.174 0.9519 0.1035   0.333621
 C 0.2657 0.34919 0.04721   0.139646
 C 0.2095 0.38334 0.01206   -0.144901
 C 0.1121 0.36424 0.99776   -0.001629
 C 0.0787 0.31089 0.02011   -0.118828
 C 0.1414 0.2784 0.055   0.151559
 C 0.0488 0.40113 0.95987   0.335344
 C 0.9412 0.46444 0.89436   0.338449
 C 0.8794 0.49955 0.85285   0.001094
 C 0.9106 0.55772 0.83668   -0.173763
 C 0.851 0.58858 0.79882   0.146127
 C 0.7356 0.50777 0.79163   0.163086
 C 0.7899 0.4743 0.8295   -0.129297
 C 0.5509 0.7066 0.4952   0.142347
 C 0.4693 0.6788 0.461   -0.16509
 C 0.4157 0.63462 0.48638   0.041586
 C 0.4438 0.6211 0.5445   -0.130565
 C 0.5218 0.6525 0.5775   0.16915
 C 0.326 0.6035 0.4519   0.333614
 C 0.2657 0.15081 0.45279   0.139646
 C 0.2095 0.11666 0.48794   -0.144901
 C 0.1121 0.13576 0.50224   -0.001629
 C 0.0787 0.18911 0.47989   -0.118828
 C 0.1414 0.2216 0.445   0.151559
 C 0.0488 0.09887 0.54013   0.335344
 C 0.9412 0.03556 0.60564   0.338449
 C 0.8794 0.000450000000001 0.64715   0.001095
 C 0.9106 0.94228 0.66332   -0.173763
 C 0.851 0.91142 0.70118   0.146127
 C 0.7356 0.99223 0.70837   0.163086
 C 0.7899 0.0257 0.6705   -0.129297
 C 0.5509 0.7934 0.0048   0.142347
 C 0.4693 0.8212 0.039   -0.16509
 C 0.4157 0.86538 0.01362   0.041586
 C 0.4438 0.8789 0.9555   -0.130565
 C 0.5218 0.8475 0.9225   0.16915
 C 0.326 0.8965 0.0481   0.333614
 S 0.26416 0.67573 0.68281   -0.323577
 S 0.07777 0.80162 0.68834   -0.338964
 S 0.26416 0.82427 0.81719   -0.323578
 S 0.07777 0.69838 0.81166   -0.338964
 S 0.23584 0.31719 0.32427   -0.323577
 S 0.42223 0.31166 0.19838   -0.338965
 S 0.23584 0.18281 0.17573   -0.323578
 S 0.42223 0.18834 0.30162   -0.338965
 S 0.73584 0.32427 0.31719   -0.323578
 S 0.92223 0.19838 0.31166   -0.338965
 S 0.73584 0.17573 0.18281   -0.323578
 S 0.92223 0.30162 0.18834   -0.338965
 S 0.76416 0.68281 0.67573   -0.323578
 S 0.57777 0.68834 0.80162   -0.338965
 S 0.76416 0.81719 0.82427   -0.323578
 S 0.57777 0.81166 0.69838   -0.338965
 Br 0.07186 0.66509 0.52521   -0.478539
 Br 0.07186 0.83491 0.97479   -0.478539
 Br 0.42814 0.47479 0.33491   -0.478539
 Br 0.42814 0.02521 0.16509   -0.478539
 Br 0.92814 0.33491 0.47479   -0.478539
 Br 0.92814 0.16509 0.02521   -0.478539
 Br 0.57186 0.52521 0.66509   -0.478539
 Br 0.57186 0.97479 0.83491   -0.478539
 N 0.7343 0.06832 0.29692   -0.260025
 N 0.5846 0.94489 0.45571   -0.188484
 N 0.529 0.91108 0.48892   -0.193563
 N 0.4033 0.91292 0.41288   -0.187019
 N 0.4587 0.94781 0.37979   -0.172487
 N 0.264 0.77668 0.56394   -0.262806
 N 0.0782 0.55218 0.69462   -0.272061
 N 0.7905 0.40226 0.62722   -0.1918
 N 0.7895 0.4761 0.5533   -0.158712
 N 0.7343 0.43168 0.20308   -0.260025
 N 0.5846 0.55511 0.04429   -0.188484
 N 0.529 0.58892 0.01108   -0.193563
 N 0.4033 0.58708 0.08712   -0.187019
 N 0.4587 0.55219 0.12021   -0.172487
 N 0.264 0.72332 0.93606   -0.262806
 N 0.0782 0.94782 0.80538   -0.272061
 N 0.7905 0.09774 0.87278   -0.1918
 N 0.7895 0.0239 0.9467   -0.158712
 N 0.7657 0.70308 0.93168   -0.260024
 N 0.9154 0.54429 0.05511   -0.188484
 N 0.971 0.51108 0.08892   -0.193563
 N 0.0967 0.58712 0.08708   -0.187019
 N 0.0413 0.62021 0.05219   -0.172487
 N 0.236 0.43606 0.22332   -0.262806
 N 0.4218 0.30538 0.44782   -0.272061
 N 0.7095 0.37278 0.59774   -0.191775
 N 0.7105 0.4467 0.5239   -0.15868
 N 0.7657 0.79692 0.56832   -0.260024
 N 0.9154 0.95571 0.44489   -0.188484
 N 0.971 0.98892 0.41108   -0.193563
 N 0.0967 0.91288 0.41292   -0.187019
 N 0.0413 0.87979 0.44781   -0.172487
 N 0.236 0.06394 0.27668   -0.262806
 N 0.4218 0.19462 0.05218   -0.272061
 N 0.7095 0.12722 0.90226   -0.191775
 N 0.7105 0.0533 0.9761   -0.15868
 N 0.2657 0.93168 0.70308   -0.260025
 N 0.4154 0.05511 0.54429   -0.188484
 N 0.471 0.08892 0.51108   -0.193563
 N 0.5967 0.08708 0.58712   -0.187019
 N 0.5413 0.05219 0.62021   -0.172487
 N 0.736 0.22332 0.43606   -0.262806
 N 0.9218 0.44782 0.30538   -0.272061
 N 0.2095 0.59774 0.37278   -0.1918
 N 0.2105 0.5239 0.4467   -0.158712
 N 0.2657 0.56832 0.79692   -0.260025
 N 0.4154 0.44489 0.95571   -0.188484
 N 0.471 0.41108 0.98892   -0.193563
 N 0.5967 0.41292 0.91288   -0.187019
 N 0.5413 0.44781 0.87979   -0.172487
 N 0.736 0.27668 0.06394   -0.262806
 N 0.9218 0.05218 0.19462   -0.272061
 N 0.2095 0.90226 0.12722   -0.1918
 N 0.2105 0.9761 0.0533   -0.158712
 N 0.2343 0.29692 0.06832   -0.260025
 N 0.0846 0.45571 0.94489   -0.188484
 N 0.029 0.48892 0.91108   -0.193563
 N 0.9033 0.41288 0.91292   -0.187019
 N 0.9587 0.37979 0.94781   -0.172487
 N 0.764 0.56394 0.77668   -0.262806
 N 0.5782 0.69462 0.55218   -0.272061
 N 0.2905 0.62722 0.40226   -0.191775
 N 0.2895 0.5533 0.4761   -0.15868
 N 0.2343 0.20308 0.43168   -0.260025
 N 0.0846 0.04429 0.55511   -0.188484
 N 0.029 0.01108 0.58892   -0.193563
 N 0.9033 0.08712 0.58708   -0.187019
 N 0.9587 0.12021 0.55219   -0.172487
 N 0.764 0.93606 0.72332   -0.262806
 N 0.5782 0.80538 0.94782   -0.272061
 N 0.2905 0.87278 0.09774   -0.191775
 N 0.2895 0.9467 0.0239   -0.15868
