{'_ref': 'TBD', '_srcid': 'CAKYAQ_clean', 'submitters': [{'name': 'Dalar Nazarian Jeff Camp and David Sholl', 'email': 'dalar@gatech.edu jcamp6@gatech.edu'}], '_method': 'VASP DFT with PBE;DDEC'}
data_Cu4H24WC36S4(IN9)2
_symmetry_space_group_name_H-M   'P 1'
_cell_length_a   13.73900000
_cell_length_b   20.71300021
_cell_length_c   20.71300000
_cell_angle_alpha   100.14129977
_cell_angle_beta   90.00000000
_cell_angle_gamma   90.00000000
_symmetry_Int_Tables_number   1
_chemical_formula_structural   Cu4H24WC36S4(IN9)2
_chemical_formula_sum   'Cu16 H96 W4 C144 S16 I8 N72'
_cell_volume   5802.329437
_cell_formula_units_Z   4
loop_
 _symmetry_equiv_pos_site_id
 _symmetry_equiv_pos_as_xyz
  1  'x, y, z'
loop_
 _atom_site_label
 _atom_site_fract_x
 _atom_site_fract_y
 _atom_site_fract_z
 _atom_site_charge
 Cu 0.16124 0.88276 0.77336   0.267697
 Cu 0.16965 0.74648 0.87902   0.327651
 Cu 0.16124 0.61724 0.72664   0.267692
 Cu 0.16965 0.75352 0.62098   0.32766
 Cu 0.33876 0.22664 0.11724   0.267697
 Cu 0.33035 0.12098 0.25352   0.327651
 Cu 0.33876 0.27336 0.38276   0.267692
 Cu 0.33035 0.37902 0.24648   0.32766
 Cu 0.83876 0.11724 0.22664   0.267689
 Cu 0.83035 0.25352 0.12098   0.327655
 Cu 0.83876 0.38276 0.27336   0.267679
 Cu 0.83035 0.24648 0.37902   0.327655
 Cu 0.66124 0.77336 0.88276   0.267689
 Cu 0.66965 0.87902 0.74648   0.327655
 Cu 0.66124 0.72664 0.61724   0.267679
 Cu 0.66965 0.62098 0.75352   0.327655
 H 0.3697 0.8686 0.714   0.086362
 H 0.4647 0.9227 0.6439   0.109634
 H 0.2648 0.0638 0.6526   0.11832
 H 0.1689 0.0143 0.7223   0.082461
 H 0.7356 0.0734 0.4996   0.093873
 H 0.839 0.1283 0.4431   0.079379
 H 0.6249 0.2576 0.428   0.074671
 H 0.5229 0.2006 0.4844   0.096674
 H 0.015 0.8406 0.8724   0.060069
 H 0.8792 0.893 0.9328   0.122848
 H 0.9569 0.8125 0.0867   0.131372
 H 0.0908 0.759 0.0266   0.097614
 H 0.3697 0.6314 0.786   0.086362
 H 0.4647 0.5773 0.8561   0.109635
 H 0.2648 0.4362 0.8474   0.11832
 H 0.1689 0.4857 0.7777   0.082464
 H 0.7356 0.4266 0.000399999999999   0.093873
 H 0.839 0.3717 0.0569   0.079378
 H 0.6249 0.2424 0.072   0.074669
 H 0.5229 0.2994 0.0156   0.096667
 H 0.015 0.6594 0.6276   0.060071
 H 0.8792 0.607 0.5672   0.122844
 H 0.9569 0.6875 0.4133   0.131369
 H 0.0908 0.741 0.4734   0.097613
 H 0.1303 0.286 0.1314   0.086362
 H 0.0353 0.3561 0.0773   0.109634
 H 0.2352 0.3474 0.9362   0.118321
 H 0.3311 0.2777 0.9857   0.082461
 H 0.7644 0.5004 0.9266   0.093873
 H 0.661 0.5569 0.8717   0.079378
 H 0.8751 0.572 0.7424   0.074671
 H 0.9771 0.5156 0.7994   0.096674
 H 0.485 0.1276 0.1594   0.060069
 H 0.6208 0.0672 0.107   0.122848
 H 0.5431 0.9133 0.1875   0.131373
 H 0.4092 0.9734 0.241   0.097616
 H 0.1303 0.214 0.3686   0.086362
 H 0.0353 0.1439 0.4227   0.109634
 H 0.2352 0.1526 0.5638   0.118321
 H 0.3311 0.2223 0.5143   0.082464
 H 0.7644 0.9996 0.5734   0.093873
 H 0.661 0.9431 0.6283   0.079378
 H 0.8751 0.928 0.7576   0.074669
 H 0.9771 0.9844 0.7006   0.096667
 H 0.485 0.3724 0.3406   0.060071
 H 0.6208 0.4328 0.393   0.122844
 H 0.5431 0.5867 0.3125   0.13137
 H 0.4092 0.5266 0.259   0.097614
 H 0.6303 0.1314 0.286   0.086363
 H 0.5353 0.0773 0.3561   0.109634
 H 0.7352 0.9362 0.3474   0.11832
 H 0.8311 0.9857 0.2777   0.082464
 H 0.2644 0.9266 0.5004   0.093872
 H 0.161 0.8717 0.5569   0.079378
 H 0.3751 0.7424 0.572   0.074671
 H 0.4771 0.7994 0.5156   0.096674
 H 0.985 0.1594 0.1276   0.060072
 H 0.1208 0.107 0.0672   0.122845
 H 0.0431 0.1875 0.9133   0.131372
 H 0.9092 0.241 0.9734   0.097613
 H 0.6303 0.3686 0.214   0.086362
 H 0.5353 0.4227 0.1439   0.109634
 H 0.7352 0.5638 0.1526   0.118319
 H 0.8311 0.5143 0.2223   0.082464
 H 0.2644 0.5734 0.9996   0.093872
 H 0.161 0.6283 0.9431   0.079377
 H 0.3751 0.7576 0.928   0.074671
 H 0.4771 0.7006 0.9844   0.096674
 H 0.985 0.3406 0.3724   0.060072
 H 0.1208 0.393 0.4328   0.122846
 H 0.0431 0.3125 0.5867   0.131371
 H 0.9092 0.259 0.5266   0.097614
 H 0.8697 0.714 0.8686   0.086363
 H 0.9647 0.6439 0.9227   0.109634
 H 0.7648 0.6526 0.0638   0.118321
 H 0.6689 0.7223 0.0143   0.082464
 H 0.2356 0.4996 0.0734   0.093872
 H 0.339 0.4431 0.1283   0.079378
 H 0.1249 0.428 0.2576   0.074671
 H 0.0229 0.4844 0.2006   0.096674
 H 0.515 0.8724 0.8406   0.060072
 H 0.3792 0.9328 0.893   0.122845
 H 0.4569 0.0867 0.8125   0.131373
 H 0.5908 0.0266 0.759   0.097614
 H 0.8697 0.786 0.6314   0.086362
 H 0.9647 0.8561 0.5773   0.109634
 H 0.7648 0.8474 0.4362   0.118321
 H 0.6689 0.7777 0.4857   0.082464
 H 0.2356 0.000399999999999 0.4266   0.093872
 H 0.339 0.0569 0.3717   0.079377
 H 0.1249 0.072 0.2424   0.074671
 H 0.0229 0.0156 0.2994   0.096674
 H 0.515 0.6276 0.6594   0.060072
 H 0.3792 0.5672 0.607   0.122845
 H 0.4569 0.4133 0.6875   0.131372
 H 0.5908 0.4734 0.741   0.097615
 W 0.16169 0.75 0.75   0.497573
 W 0.33831 0.25 0.25   0.497573
 W 0.83831 0.25 0.25   0.497578
 W 0.66169 0.75 0.75   0.497578
 C 0.3484 0.9073 0.7017   0.123799
 C 0.4059 0.9404 0.6608   -0.155948
 C 0.3738 0.998 0.6466   0.009779
 C 0.2853 0.0255 0.6661   -0.109231
 C 0.2273 0.9951 0.7065   0.149778
 C 0.4355 0.0349 0.6097   0.327501
 C 0.5533 0.0943 0.5297   0.325964
 C 0.6184 0.1307 0.5001   0.012861
 C 0.7134 0.111 0.4856   -0.125057
 C 0.7759 0.1436 0.452   0.131748
 C 0.6476 0.2207 0.4431   0.134631
 C 0.5869 0.1864 0.4768   -0.11257
 C 0.0023 0.834 0.9148   0.143996
 C 0.9204 0.866 0.9516   -0.118689
 C 0.905 0.856 0.0122   0.035884
 C 0.9677 0.8171 0.0435   -0.142268
 C 0.0483 0.7851 0.0073   0.122426
 C 0.8222 0.8846 0.0442   0.324134
 C 0.3484 0.5927 0.7983   0.123803
 C 0.4059 0.5596 0.8392   -0.155949
 C 0.3738 0.502 0.8534   0.00978
 C 0.2853 0.4745 0.8339   -0.109229
 C 0.2273 0.5049 0.7935   0.149771
 C 0.4355 0.4651 0.8903   0.327505
 C 0.5533 0.4057 0.9703   0.325967
 C 0.6184 0.3693 0.9999   0.012862
 C 0.7134 0.389 0.0144   -0.125059
 C 0.7759 0.3564 0.048   0.13175
 C 0.6476 0.2793 0.0569   0.134636
 C 0.5869 0.3136 0.0232   -0.112566
 C 0.0023 0.666 0.5852   0.143999
 C 0.9204 0.634 0.5484   -0.118693
 C 0.905 0.644 0.4878   0.035885
 C 0.9677 0.6829 0.4565   -0.142269
 C 0.0483 0.7149 0.4927   0.122428
 C 0.8222 0.6154 0.4558   0.324134
 C 0.1516 0.2983 0.0927   0.123799
 C 0.0941 0.3392 0.0596   -0.155947
 C 0.1262 0.3534 0.002   0.009779
 C 0.2147 0.3339 0.9745   -0.109232
 C 0.2727 0.2935 0.0049   0.149778
 C 0.0645 0.3903 0.9651   0.327501
 C 0.9467 0.4703 0.9057   0.325964
 C 0.8816 0.4999 0.8693   0.012861
 C 0.7866 0.5144 0.889   -0.125058
 C 0.7241 0.548 0.8564   0.131748
 C 0.8524 0.5569 0.7793   0.134631
 C 0.9131 0.5232 0.8136   -0.11257
 C 0.4977 0.0852 0.166   0.143996
 C 0.5796 0.0484 0.134   -0.11869
 C 0.595 0.9878 0.144   0.035884
 C 0.5323 0.9565 0.1829   -0.142261
 C 0.4517 0.9927 0.2149   0.122415
 C 0.6778 0.9558 0.1154   0.324132
 C 0.1516 0.2017 0.4073   0.123803
 C 0.0941 0.1608 0.4404   -0.155948
 C 0.1262 0.1466 0.498   0.00978
 C 0.2147 0.1661 0.5255   -0.10923
 C 0.2727 0.2065 0.4951   0.149772
 C 0.0645 0.1097 0.5349   0.327504
 C 0.9467 0.0297 0.5943   0.325966
 C 0.8816 0.000100000000003 0.6307   0.012862
 C 0.7866 0.9856 0.611   -0.12506
 C 0.7241 0.952 0.6436   0.13175
 C 0.8524 0.9431 0.7207   0.134636
 C 0.9131 0.9768 0.6864   -0.112566
 C 0.4977 0.4148 0.334   0.143999
 C 0.5796 0.4516 0.366   -0.118693
 C 0.595 0.5122 0.356   0.035885
 C 0.5323 0.5435 0.3171   -0.142262
 C 0.4517 0.5073 0.2851   0.122416
 C 0.6778 0.5442 0.3846   0.324132
 C 0.6516 0.0927 0.2983   0.123802
 C 0.5941 0.0596 0.3392   -0.155948
 C 0.6262 0.002 0.3534   0.009779
 C 0.7147 0.9745 0.3339   -0.109229
 C 0.7727 0.0049 0.2935   0.149771
 C 0.5645 0.9651 0.3903   0.327503
 C 0.4467 0.9057 0.4703   0.325966
 C 0.3816 0.8693 0.4999   0.012863
 C 0.2866 0.889 0.5144   -0.125057
 C 0.2241 0.8564 0.548   0.131751
 C 0.3524 0.7793 0.5569   0.134634
 C 0.4131 0.8136 0.5232   -0.112571
 C 0.9977 0.166 0.0852   0.144001
 C 0.0796 0.134 0.0484   -0.118693
 C 0.095 0.144 0.9878   0.035884
 C 0.0323 0.1829 0.9565   -0.142268
 C 0.9517 0.2149 0.9927   0.122429
 C 0.1778 0.1154 0.9558   0.324132
 C 0.6516 0.4073 0.2017   0.123803
 C 0.5941 0.4404 0.1608   -0.155949
 C 0.6262 0.498 0.1466   0.009779
 C 0.7147 0.5255 0.1661   -0.109229
 C 0.7727 0.4951 0.2065   0.149771
 C 0.5645 0.5349 0.1097   0.327502
 C 0.4467 0.5943 0.0297   0.325966
 C 0.3816 0.6307 0.000100000000003   0.012861
 C 0.2866 0.611 0.9856   -0.125056
 C 0.2241 0.6436 0.952   0.131749
 C 0.3524 0.7207 0.9431   0.134632
 C 0.4131 0.6864 0.9768   -0.11257
 C 0.9977 0.334 0.4148   0.143999
 C 0.0796 0.366 0.4516   -0.118692
 C 0.095 0.356 0.5122   0.035885
 C 0.0323 0.3171 0.5435   -0.142268
 C 0.9517 0.2851 0.5073   0.122427
 C 0.1778 0.3846 0.5442   0.324134
 C 0.8484 0.7017 0.9073   0.123802
 C 0.9059 0.6608 0.9404   -0.155948
 C 0.8738 0.6466 0.998   0.009779
 C 0.7853 0.6661 0.0255   -0.109229
 C 0.7273 0.7065 0.9951   0.149771
 C 0.9355 0.6097 0.0349   0.327502
 C 0.0533 0.5297 0.0943   0.325965
 C 0.1184 0.5001 0.1307   0.012863
 C 0.2134 0.4856 0.111   -0.125058
 C 0.2759 0.452 0.1436   0.131751
 C 0.1476 0.4431 0.2207   0.134634
 C 0.0869 0.4768 0.1864   -0.112571
 C 0.5023 0.9148 0.834   0.144
 C 0.4204 0.9516 0.866   -0.118693
 C 0.405 0.0122 0.856   0.035884
 C 0.4677 0.0435 0.8171   -0.142261
 C 0.5483 0.0073 0.7851   0.122417
 C 0.3222 0.0442 0.8846   0.32413
 C 0.8484 0.7983 0.5927   0.123803
 C 0.9059 0.8392 0.5596   -0.155948
 C 0.8738 0.8534 0.502   0.009779
 C 0.7853 0.8339 0.4745   -0.109229
 C 0.7273 0.7935 0.5049   0.149771
 C 0.9355 0.8903 0.4651   0.327501
 C 0.0533 0.9703 0.4057   0.325966
 C 0.1184 0.9999 0.3693   0.012861
 C 0.2134 0.0144 0.389   -0.125057
 C 0.2759 0.048 0.3564   0.131749
 C 0.1476 0.0569 0.2793   0.134632
 C 0.0869 0.0232 0.3136   -0.11257
 C 0.5023 0.5852 0.666   0.143999
 C 0.4204 0.5484 0.634   -0.118693
 C 0.405 0.4878 0.644   0.035885
 C 0.4677 0.4565 0.6829   -0.142261
 C 0.5483 0.4927 0.7149   0.122416
 C 0.3222 0.4558 0.6154   0.324132
 S 0.25454 0.8124 0.82276   -0.311337
 S 0.07121 0.81445 0.69937   -0.32855
 S 0.25454 0.6876 0.67724   -0.311335
 S 0.07121 0.68555 0.80063   -0.328559
 S 0.24546 0.17724 0.1876   -0.311337
 S 0.42879 0.30063 0.18555   -0.32855
 S 0.24546 0.32276 0.3124   -0.311335
 S 0.42879 0.19937 0.31445   -0.32856
 S 0.74546 0.1876 0.17724   -0.311335
 S 0.92879 0.18555 0.30063   -0.328561
 S 0.74546 0.3124 0.32276   -0.311334
 S 0.92879 0.31445 0.19937   -0.328558
 S 0.75454 0.82276 0.8124   -0.311335
 S 0.57121 0.69937 0.81445   -0.328561
 S 0.75454 0.67724 0.6876   -0.311334
 S 0.57121 0.80063 0.68555   -0.328558
 I 0.06355 0.97608 0.84188   -0.404135
 I 0.06355 0.52392 0.65811   -0.40413
 I 0.43645 0.15812 0.02392   -0.404136
 I 0.43645 0.34189 0.47608   -0.404131
 I 0.93645 0.02392 0.15811   -0.404131
 I 0.93645 0.47608 0.34189   -0.404126
 I 0.56355 0.84189 0.97608   -0.404132
 I 0.56355 0.65811 0.52392   -0.404126
 N 0.2564 0.93577 0.72343   -0.281
 N 0.4073 0.08966 0.58954   -0.216045
 N 0.4664 0.1206 0.5478   -0.184758
 N 0.5862 0.0367 0.5487   -0.194786
 N 0.5261 0.0068 0.5906   -0.216399
 N 0.7443 0.2002 0.431   -0.276769
 N 0.0614 0.79323 0.94477   -0.291871
 N 0.7903 0.9412 0.0276   -0.174771
 N 0.7898 0.86535 0.10245   -0.195727
 N 0.2564 0.56423 0.77657   -0.281002
 N 0.4073 0.41034 0.91046   -0.216048
 N 0.4664 0.3794 0.9522   -0.184755
 N 0.5862 0.4633 0.9513   -0.194791
 N 0.5261 0.4932 0.9094   -0.216403
 N 0.7443 0.2998 0.069   -0.276772
 N 0.0614 0.70677 0.55523   -0.291878
 N 0.7903 0.5588 0.4724   -0.174769
 N 0.7898 0.63465 0.39755   -0.195728
 N 0.2436 0.27657 0.06423   -0.281
 N 0.0927 0.41046 0.91034   -0.216045
 N 0.0336 0.4522 0.8794   -0.184758
 N 0.9138 0.4513 0.9633   -0.194786
 N 0.9739 0.4094 0.9932   -0.216399
 N 0.7557 0.569 0.7998   -0.276769
 N 0.4386 0.05523 0.20677   -0.291869
 N 0.7097 0.9724 0.0588   -0.174759
 N 0.7102 0.89755 0.13465   -0.195718
 N 0.2436 0.22343 0.43577   -0.281002
 N 0.0927 0.08954 0.58966   -0.216048
 N 0.0336 0.0478 0.6206   -0.184755
 N 0.9138 0.0487 0.5367   -0.194791
 N 0.9739 0.0906 0.5068   -0.216403
 N 0.7557 0.931 0.7002   -0.276772
 N 0.4386 0.44477 0.29323   -0.291876
 N 0.7097 0.5276 0.4412   -0.174757
 N 0.7102 0.60245 0.36535   -0.195719
 N 0.7436 0.06423 0.27657   -0.281002
 N 0.5927 0.91034 0.41046   -0.216046
 N 0.5336 0.8794 0.4522   -0.184759
 N 0.4138 0.9633 0.4513   -0.194788
 N 0.4739 0.9932 0.4094   -0.2164
 N 0.2557 0.7998 0.569   -0.276774
 N 0.9386 0.20677 0.05523   -0.291875
 N 0.2097 0.0588 0.9724   -0.174771
 N 0.2102 0.13465 0.89755   -0.195725
 N 0.7436 0.43577 0.22343   -0.281001
 N 0.5927 0.58966 0.08954   -0.216046
 N 0.5336 0.6206 0.0478   -0.184759
 N 0.4138 0.5367 0.0487   -0.194788
 N 0.4739 0.5068 0.0906   -0.216399
 N 0.2557 0.7002 0.931   -0.276771
 N 0.9386 0.29323 0.44477   -0.291874
 N 0.2097 0.4412 0.5276   -0.17477
 N 0.2102 0.36535 0.60245   -0.195727
 N 0.7564 0.72343 0.93577   -0.281002
 N 0.9073 0.58954 0.08966   -0.216046
 N 0.9664 0.5478 0.1206   -0.184759
 N 0.0862 0.5487 0.0367   -0.194788
 N 0.0261 0.5906 0.0068   -0.2164
 N 0.2443 0.431 0.2002   -0.276774
 N 0.5614 0.94477 0.79323   -0.291874
 N 0.2903 0.0276 0.9412   -0.174759
 N 0.2898 0.10245 0.86535   -0.195716
 N 0.7564 0.77657 0.56423   -0.281001
 N 0.9073 0.91046 0.41034   -0.216046
 N 0.9664 0.9522 0.3794   -0.184759
 N 0.0862 0.9513 0.4633   -0.194788
 N 0.0261 0.9094 0.4932   -0.216399
 N 0.2443 0.069 0.2998   -0.276771
 N 0.5614 0.55523 0.70677   -0.291872
 N 0.2903 0.4724 0.5588   -0.174758
 N 0.2898 0.39755 0.63465   -0.195719
