{'_ref': 'TBD', '_srcid': 'CAKYAQ_clean', 'submitters': [{'name': 'Dalar Nazarian Jeff Camp and David Sholl', 'email': 'dalar@gatech.edu jcamp6@gatech.edu'}], '_method': 'VASP DFT with PBE;DDEC'}
data_Zn2H8C11O7
_symmetry_space_group_name_H-M   'P 1'
_cell_length_a   10.29900000
_cell_length_b   11.82400000
_cell_length_c   20.37200000
_cell_angle_alpha   90.00000000
_cell_angle_beta   90.00000000
_cell_angle_gamma   90.00000000
_symmetry_Int_Tables_number   1
_chemical_formula_structural   Zn2H8C11O7
_chemical_formula_sum   'Zn8 H32 C44 O28'
_cell_volume   2480.80795987
_cell_formula_units_Z   4
loop_
 _symmetry_equiv_pos_site_id
 _symmetry_equiv_pos_as_xyz
  1  'x, y, z'
loop_
 _atom_site_label
 _atom_site_fract_x
 _atom_site_fract_y
 _atom_site_fract_z
 _atom_site_charge
 Zn 0.03799 0.91988 0.00865   1.105951
 Zn 0.3512 0.82453 0.00779   1.081614
 Zn 0.46201 0.08012 0.50865   1.105951
 Zn 0.1488 0.17547 0.50779   1.081614
 Zn 0.96201 0.41988 0.49135   1.105951
 Zn 0.6488 0.32453 0.49221   1.081615
 Zn 0.53799 0.58012 0.99135   1.105951
 Zn 0.8512 0.67547 0.99221   1.081615
 H 0.2589 0.5286 0.9898   0.06705
 H 0.3446 0.5491 0.8822   0.119469
 H 0.1909 0.5506 0.8795   0.127315
 H 0.2697 0.6653 0.874   0.124395
 H 0.0463 0.0092 0.2103   0.101434
 H 0.4068 0.888 0.2091   0.105938
 H 0.4257 0.9289 0.3176   0.108207
 H 0.0682 0.0482 0.3207   0.113023
 H 0.2411 0.4714 0.4898   0.06705
 H 0.1554 0.4509 0.3822   0.119469
 H 0.3091 0.4494 0.3795   0.127315
 H 0.2303 0.3347 0.374   0.124395
 H 0.4537 0.9908 0.7103   0.101434
 H 0.0932 0.112 0.7091   0.105938
 H 0.0743 0.0711 0.8176   0.108207
 H 0.4318 0.9518 0.8207   0.113023
 H 0.7411 0.0286 0.5102   0.06705
 H 0.6554 0.0491 0.6178   0.119469
 H 0.8091 0.0506 0.6205   0.127316
 H 0.7303 0.1653 0.626   0.124395
 H 0.9537 0.5092 0.2897   0.101435
 H 0.5932 0.388 0.2909   0.105939
 H 0.5743 0.4289 0.1824   0.108208
 H 0.9318 0.5482 0.1793   0.113023
 H 0.7589 0.9714 0.0102   0.06705
 H 0.8446 0.9509 0.1178   0.119469
 H 0.6909 0.9494 0.1205   0.127316
 H 0.7697 0.8347 0.126   0.124396
 H 0.5463 0.4908 0.7897   0.101435
 H 0.9068 0.612 0.7909   0.105939
 H 0.9257 0.5711 0.6824   0.108208
 H 0.5682 0.4518 0.6793   0.113023
 C 0.1405 0.67 0.9868   0.66622
 C 0.2624 0.6043 0.9691   0.163002
 C 0.2674 0.5911 0.8943   -0.375597
 C 0.2168 0.9339 0.1225   0.73414
 C 0.2321 0.9628 0.1935   -0.129372
 C 0.1278 0.000500000000002 0.2304   -0.06253
 C 0.3406 0.9293 0.2299   -0.056138
 C 0.274 0.0503 0.3974   0.714752
 C 0.2593 0.0178 0.3259   -0.114066
 C 0.3528 0.9546 0.2942   -0.064488
 C 0.1411 0.0256 0.2962   -0.064008
 C 0.3595 0.33 0.4868   0.66622
 C 0.2376 0.3957 0.4691   0.163002
 C 0.2326 0.4089 0.3943   -0.375597
 C 0.2832 0.0661 0.6225   0.73414
 C 0.2679 0.0372 0.6935   -0.129372
 C 0.3722 0.9995 0.7304   -0.06253
 C 0.1594 0.0707 0.7299   -0.056138
 C 0.226 0.9497 0.8974   0.714752
 C 0.2407 0.9822 0.8259   -0.114066
 C 0.1472 0.0454 0.7942   -0.064488
 C 0.3589 0.9744 0.7962   -0.064008
 C 0.8595 0.17 0.5132   0.66622
 C 0.7376 0.1043 0.5309   0.163002
 C 0.7326 0.0911 0.6057   -0.375598
 C 0.7832 0.4339 0.3775   0.73414
 C 0.7679 0.4628 0.3065   -0.129372
 C 0.8722 0.5005 0.2696   -0.06253
 C 0.6594 0.4293 0.2701   -0.056138
 C 0.726 0.5503 0.1026   0.714752
 C 0.7407 0.5178 0.1741   -0.114066
 C 0.6472 0.4546 0.2058   -0.064488
 C 0.8589 0.5256 0.2038   -0.064008
 C 0.6405 0.83 0.0132   0.66622
 C 0.7624 0.8957 0.0309   0.163002
 C 0.7674 0.9089 0.1057   -0.375598
 C 0.7168 0.5661 0.8775   0.73414
 C 0.7321 0.5372 0.8065   -0.129372
 C 0.6278 0.4995 0.7696   -0.06253
 C 0.8406 0.5707 0.7701   -0.056138
 C 0.774 0.4497 0.6026   0.714752
 C 0.7593 0.4822 0.6741   -0.114066
 C 0.8528 0.5454 0.7058   -0.064488
 C 0.6411 0.4744 0.7038   -0.064008
 O 0.1532 0.7707 0.00609   -0.642302
 O 0.3746 0.662 0.99116   -0.736595
 O 0.0337 0.62 0.9808   -0.578851
 O 0.1109 0.9545 0.09592   -0.639475
 O 0.3154 0.8913 0.095   -0.613856
 O 0.3858 0.0409 0.42169   -0.641828
 O 0.1735 0.0825 0.42727   -0.613407
 O 0.3468 0.2293 0.50609   -0.642302
 O 0.1254 0.338 0.49116   -0.736595
 O 0.4663 0.38 0.4808   -0.578851
 O 0.3891 0.0455 0.59592   -0.639475
 O 0.1846 0.1087 0.595   -0.613856
 O 0.1142 0.9591 0.92169   -0.641828
 O 0.3265 0.9175 0.92727   -0.613407
 O 0.8468 0.2707 0.49391   -0.642302
 O 0.6254 0.162 0.50884   -0.736595
 O 0.9663 0.12 0.5192   -0.578851
 O 0.8891 0.4545 0.40408   -0.639475
 O 0.6846 0.3913 0.405   -0.613856
 O 0.6142 0.5409 0.07831   -0.641828
 O 0.8265 0.5825 0.07273   -0.613407
 O 0.6532 0.7293 0.99391   -0.642302
 O 0.8746 0.838 0.00884   -0.736595
 O 0.5337 0.88 0.0192   -0.578851
 O 0.6109 0.5455 0.90408   -0.639475
 O 0.8154 0.6087 0.905   -0.613856
 O 0.8858 0.4591 0.57831   -0.641828
 O 0.6735 0.4175 0.57273   -0.613407
