{'_ref': 'TBD', '_srcid': 'CAKYAQ_clean', 'submitters': [{'name': 'Dalar Nazarian Jeff Camp and David Sholl', 'email': 'dalar@gatech.edu jcamp6@gatech.edu'}], '_method': 'VASP DFT with PBE;DDEC'}
data_Cd3H62C72S2(N8O7)2
_symmetry_space_group_name_H-M   'P 1'
_cell_length_a   10.07999973
_cell_length_b   13.06299980
_cell_length_c   17.81500000
_cell_angle_alpha   79.02900111
_cell_angle_beta   86.32499730
_cell_angle_gamma   78.21099991
_symmetry_Int_Tables_number   1
_chemical_formula_structural   Cd3H62C72S2(N8O7)2
_chemical_formula_sum   'Cd3 H62 C72 S2 N16 O14'
_cell_volume   2253.5658312
_cell_formula_units_Z   1
loop_
 _symmetry_equiv_pos_site_id
 _symmetry_equiv_pos_as_xyz
  1  'x, y, z'
loop_
 _atom_site_label
 _atom_site_fract_x
 _atom_site_fract_y
 _atom_site_fract_z
 _atom_site_charge
 Cd 0.95709 0.90344 0.80099   0.94107
 Cd 0.04291 0.09656 0.19901   0.94107
 Cd 0.5 0.5 0.5   0.976542
 H 0.5932 0.1876 0.6962   0.089946
 H 0.4708 0.9177 0.7896   0.086319
 H 0.1967 0.1771 0.7048   0.087156
 H 0.2131 0.7355 0.7232   0.09678
 H 0.1862 0.5786 0.6715   0.144264
 H 0.829 0.7189 0.7434   0.08973
 H 0.8243 0.5815 0.6595   0.077312
 H 0.9642 0.5275 0.6275   0.099859
 H 0.0726 0.4508 0.796   0.109153
 H 0.0606 0.2961 0.882   0.097883
 H 0.7393 0.2618 0.7721   0.109561
 H 0.7564 0.4147 0.6845   0.105932
 H 0.8918 0.107 0.8661   0.097009
 H 0.7848 0.1763 0.913   0.113536
 H 0.1538 0.0994 0.9099   0.14245
 H 0.2377 0.07 0.0377   0.107251
 H 0.8495 0.1687 0.0485   0.103923
 H 0.4068 0.8124 0.3038   0.089946
 H 0.5292 0.0823 0.2104   0.086317
 H 0.8033 0.8229 0.2952   0.087156
 H 0.7869 0.2645 0.2768   0.09678
 H 0.8138 0.4214 0.3285   0.144264
 H 0.171 0.2811 0.2566   0.08973
 H 0.1757 0.4185 0.3405   0.077312
 H 0.0358 0.4725 0.3725   0.099859
 H 0.9274 0.5492 0.204   0.109153
 H 0.9394 0.7039 0.118   0.097883
 H 0.2607 0.7382 0.2279   0.109561
 H 0.2436 0.5853 0.3155   0.105932
 H 0.1082 0.893 0.1339   0.097009
 H 0.2152 0.8237 0.087   0.113535
 H 0.8462 0.9006 0.0901   0.14245
 H 0.7623 0.93 0.9623   0.107249
 H 0.1505 0.8313 0.9515   0.103921
 H 0.8514 0.4995 0.4802   0.090398
 H 0.0332 0.351 0.535   0.150331
 H 0.6828 0.2573 0.5595   0.095327
 H 0.0303 0.1665 0.6159   0.12501
 H 0.8894 0.1362 0.6405   0.114771
 H 0.0267 0.9552 0.629   0.083799
 H 0.9262 0.1741 0.4459   0.075723
 H 0.6314 0.7073 0.5142   0.093167
 H 0.5235 0.6974 0.7322   0.154413
 H 0.4654 0.5427 0.6869   0.114586
 H 0.7378 0.827 0.6045   0.093241
 H 0.6283 0.8612 0.6665   0.108097
 H 0.3767 0.9095 0.5914   0.097791
 H 0.7315 0.9641 0.5018   0.082779
 H 0.1486 0.5005 0.5198   0.090398
 H 0.9668 0.649 0.465   0.150332
 H 0.3172 0.7427 0.4405   0.095327
 H 0.9697 0.8335 0.3841   0.12501
 H 0.1106 0.8638 0.3595   0.114771
 H 0.9733 0.0448 0.371   0.083799
 H 0.0738 0.8259 0.5541   0.075724
 H 0.3686 0.2927 0.4858   0.093167
 H 0.4765 0.3026 0.2678   0.154413
 H 0.5346 0.4573 0.3131   0.114586
 H 0.2622 0.173 0.3955   0.093241
 H 0.3717 0.1388 0.3335   0.108097
 H 0.6233 0.0905 0.4086   0.09779
 H 0.2685 0.0359 0.4982   0.082778
 C 0.3871 0.1987 0.69581   -0.246698
 C 0.5238 0.1502 0.7108   0.024562
 C 0.5512 0.0451 0.74801   -0.171671
 C 0.6945 0.9899 0.76817   0.646768
 C 0.4489 0.9889 0.76658   0.002863
 C 0.3122 0.0354 0.75197   -0.169918
 C 0.2046 0.9755 0.77211   0.656792
 C 0.2857 0.1432 0.71556   0.029561
 C 0.1322 0.7124 0.72134   0.04993
 C 0.1183 0.626 0.69187   -0.152504
 C 0.9215 0.7036 0.7321   0.148248
 C 0.9165 0.54734 0.67321   -0.060205
 C 0.9157 0.44754 0.73178   0.029314
 C 0.0061 0.41258 0.79128   -0.101717
 C 0.9971 0.3206 0.8437   -0.122384
 C 0.896 0.265 0.8401   0.025016
 C 0.8053 0.3001 0.7774   -0.105364
 C 0.8161 0.3914 0.7247   -0.139049
 C 0.8773 0.1666 0.8929   -0.069193
 C 0.1018 0.1098 0.95379   -0.155909
 C 0.1476 0.0949 0.02437   0.025526
 C 0.9375 0.148 0.03011   0.119092
 C 0.6129 0.8013 0.30419   -0.246698
 C 0.4762 0.8498 0.2892   0.024562
 C 0.4488 0.9549 0.25199   -0.171671
 C 0.3055 0.0101 0.23183   0.646768
 C 0.5511 0.0111 0.23342   0.002863
 C 0.6878 0.9646 0.24803   -0.169918
 C 0.7954 0.0245 0.22789   0.656792
 C 0.7143 0.8568 0.28444   0.029562
 C 0.8678 0.2876 0.27866   0.04993
 C 0.8817 0.374 0.30813   -0.152504
 C 0.0785 0.2964 0.2679   0.148248
 C 0.0835 0.45266 0.32679   -0.060205
 C 0.0843 0.55246 0.26822   0.029314
 C 0.9939 0.58742 0.20872   -0.101717
 C 0.0029 0.6794 0.1563   -0.122385
 C 0.104 0.735 0.1599   0.025016
 C 0.1947 0.6999 0.2226   -0.105364
 C 0.1839 0.6086 0.2753   -0.139049
 C 0.1227 0.8334 0.1071   -0.069192
 C 0.8982 0.8902 0.04621   -0.155909
 C 0.8524 0.9051 0.97563   0.025527
 C 0.0625 0.852 0.96989   0.119092
 C 0.839 0.4318 0.50298   0.047492
 C 0.9415 0.3499 0.53316   -0.192342
 C 0.7478 0.2994 0.5462   0.140924
 C 0.9446 0.1609 0.59683   -0.085707
 C 0.9713 0.0786 0.54489   0.040339
 C 0.0155 0.9743 0.57644   -0.09182
 C 0.9562 0.1035 0.46869   -0.136917
 C 0.5964 0.6854 0.56289   0.109404
 C 0.5379 0.6819 0.68312   -0.171611
 C 0.506 0.5952 0.65733   0.035808
 C 0.6416 0.8382 0.61742   -0.060893
 C 0.5674 0.9213 0.55849   0.029954
 C 0.4277 0.9455 0.55403   -0.113504
 C 0.6373 0.9778 0.50127   -0.102891
 C 0.161 0.5682 0.49702   0.047492
 C 0.0585 0.6501 0.46684   -0.192343
 C 0.2522 0.7006 0.4538   0.140924
 C 0.0554 0.8391 0.40317   -0.085707
 C 0.0287 0.9214 0.45511   0.040339
 C 0.9845 0.0257 0.42356   -0.091821
 C 0.0438 0.8965 0.53131   -0.136918
 C 0.4036 0.3146 0.43711   0.109404
 C 0.4621 0.3181 0.31688   -0.171611
 C 0.494 0.4048 0.34267   0.035809
 C 0.3584 0.1618 0.38258   -0.060893
 C 0.4326 0.0787 0.44151   0.029949
 C 0.5723 0.0545 0.44597   -0.113489
 C 0.3627 0.0222 0.49873   -0.102876
 S 0.34497 0.33415 0.65077   1.395351
 S 0.65503 0.66585 0.34923   1.395351
 N 0.0065 0.7602 0.74817   -0.409568
 N 0.9785 0.62448 0.69898   0.056268
 N 0.9682 0.1424 0.95775   0.079318
 N 0.0448 0.1211 0.07355   -0.386814
 N 0.9935 0.2398 0.25183   -0.409568
 N 0.0215 0.37552 0.30102   0.056268
 N 0.0318 0.8576 0.04225   0.079317
 N 0.9552 0.8789 0.92645   -0.386814
 N 0.7195 0.4012 0.51075   -0.405981
 N 0.8771 0.26561 0.56004   0.079156
 N 0.5433 0.5999 0.58351   -0.358597
 N 0.5933 0.7376 0.62285   0.052552
 N 0.2805 0.5988 0.48925   -0.405981
 N 0.1229 0.73439 0.43996   0.079156
 N 0.4567 0.4001 0.41649   -0.358597
 N 0.4067 0.2624 0.37715   0.052552
 O 0.4579 0.35669 0.60061   -0.704517
 O 0.3251 0.39309 0.70982   -0.658625
 O 0.2277 0.34037 0.60888   -0.678695
 O 0.7873 0.04222 0.75257   -0.601049
 O 0.7185 0.89547 0.79658   -0.608532
 O 0.2313 0.88182 0.80544   -0.622775
 O 0.0842 0.02237 0.75746   -0.605635
 O 0.5421 0.64331 0.39939   -0.704517
 O 0.6749 0.60691 0.29018   -0.658625
 O 0.7723 0.65963 0.39112   -0.678695
 O 0.2127 0.95778 0.24743   -0.601049
 O 0.2815 0.10453 0.20342   -0.608532
 O 0.7687 0.11818 0.19456   -0.622775
 O 0.9158 0.97763 0.24254   -0.605635
