{'_ref': 'TBD', '_srcid': 'CAKYAQ_clean', 'submitters': [{'name': 'Dalar Nazarian Jeff Camp and David Sholl', 'email': 'dalar@gatech.edu jcamp6@gatech.edu'}], '_method': 'VASP DFT with PBE;DDEC'}
data_HoH3(C3O2)3
_symmetry_space_group_name_H-M   'P 1'
_cell_length_a   10.84400000
_cell_length_b   10.96100038
_cell_length_c   15.58500000
_cell_angle_alpha   90.00000000
_cell_angle_beta   90.00000000
_cell_angle_gamma   100.55699737
_symmetry_Int_Tables_number   1
_chemical_formula_structural   HoH3(C3O2)3
_chemical_formula_sum   'Ho4 H12 C36 O24'
_cell_volume   1821.09388524
_cell_formula_units_Z   4
loop_
 _symmetry_equiv_pos_site_id
 _symmetry_equiv_pos_as_xyz
  1  'x, y, z'
loop_
 _atom_site_label
 _atom_site_fract_x
 _atom_site_fract_y
 _atom_site_fract_z
 _atom_site_charge
 Ho 0.85707 0.103 0.89797   2.13264
 Ho 0.64293 0.397 0.39797   2.132639
 Ho 0.14293 0.897 0.10203   2.132638
 Ho 0.35707 0.603 0.60203   2.132637
 H 0.3988 0.0882 0.9533   0.120721
 H 0.5524 0.32 0.7661   0.117925
 H 0.1842 0.2777 0.8146   0.089064
 H 0.1012 0.4118 0.4533   0.120721
 H 0.9476 0.18 0.2661   0.117925
 H 0.3158 0.2223 0.3146   0.089064
 H 0.6012 0.9118 0.0467   0.120721
 H 0.4476 0.68 0.2339   0.117925
 H 0.8158 0.7223 0.1854   0.089064
 H 0.8988 0.5882 0.5467   0.120721
 H 0.0524 0.82 0.7339   0.117925
 H 0.6842 0.7777 0.6854   0.089064
 C 0.1607 0.1164 0.9435   0.872852
 C 0.6223 0.1655 0.8782   0.694537
 C 0.3571 0.4042 0.7094   0.660927
 C 0.2739 0.1752 0.8924   -0.217231
 C 0.3907 0.1445 0.91   0.049883
 C 0.4953 0.1991 0.8621   -0.158805
 C 0.4825 0.2833 0.7975   0.028422
 C 0.3662 0.3131 0.7795   -0.158729
 C 0.2624 0.2584 0.8269   0.043834
 C 0.3393 0.3836 0.4435   0.872852
 C 0.8777 0.3345 0.3782   0.694537
 C 0.1429 0.0958 0.2094   0.660927
 C 0.2261 0.3248 0.3924   -0.217231
 C 0.1093 0.3555 0.41   0.049883
 C 0.0047 0.3009 0.3621   -0.158805
 C 0.0175 0.2167 0.2975   0.028422
 C 0.1338 0.1869 0.2795   -0.158729
 C 0.2376 0.2416 0.3269   0.043834
 C 0.8393 0.8836 0.0565   0.872852
 C 0.3777 0.8345 0.1218   0.694537
 C 0.6429 0.5958 0.2906   0.660927
 C 0.7261 0.8248 0.1076   -0.217231
 C 0.6093 0.8555 0.09   0.049883
 C 0.5047 0.8009 0.1379   -0.158805
 C 0.5175 0.7167 0.2025   0.028422
 C 0.6338 0.6869 0.2205   -0.158729
 C 0.7376 0.7416 0.1731   0.043833
 C 0.6607 0.6164 0.5565   0.872852
 C 0.1223 0.6655 0.6218   0.694537
 C 0.8571 0.9042 0.7906   0.660927
 C 0.7739 0.6752 0.6076   -0.217231
 C 0.8907 0.6445 0.59   0.049883
 C 0.9953 0.6991 0.6379   -0.158805
 C 0.9825 0.7833 0.7025   0.028422
 C 0.8662 0.8131 0.7205   -0.158729
 C 0.7624 0.7584 0.6731   0.043833
 O 0.0635 0.1632 0.9379   -0.807088
 O 0.1707 0.0254 0.9894   -0.756409
 O 0.6363 0.0906 0.9356   -0.647818
 O 0.7115 0.2124 0.8298   -0.735702
 O 0.4511 0.4405 0.6632   -0.664335
 O 0.2568 0.4464 0.6994   -0.664685
 O 0.4365 0.3368 0.4379   -0.807088
 O 0.3293 0.4746 0.4894   -0.756409
 O 0.8637 0.4094 0.4356   -0.647818
 O 0.7885 0.2876 0.3298   -0.735702
 O 0.0489 0.0595 0.1632   -0.664335
 O 0.2432 0.0536 0.1994   -0.664685
 O 0.9365 0.8368 0.0621   -0.807088
 O 0.8293 0.9746 0.0106   -0.756409
 O 0.3637 0.9094 0.0644   -0.647818
 O 0.2885 0.7876 0.1702   -0.735702
 O 0.5489 0.5595 0.3368   -0.664335
 O 0.7432 0.5536 0.3006   -0.664685
 O 0.5635 0.6632 0.5621   -0.807088
 O 0.6707 0.5254 0.5106   -0.756409
 O 0.1363 0.5906 0.5644   -0.647818
 O 0.2115 0.7124 0.6702   -0.735702
 O 0.9511 0.9405 0.8368   -0.664335
 O 0.7568 0.9464 0.8006   -0.664685
