{'_ref': 'TBD', '_srcid': 'CAKYAQ_clean', 'submitters': [{'name': 'Dalar Nazarian Jeff Camp and David Sholl', 'email': 'dalar@gatech.edu jcamp6@gatech.edu'}], '_method': 'VASP DFT with PBE;DDEC'}
data_CoH7C13NO4
_symmetry_space_group_name_H-M   'P 1'
_cell_length_a   11.07780000
_cell_length_b   11.07779981
_cell_length_c   27.87930000
_cell_angle_alpha   90.00000000
_cell_angle_beta   90.00000000
_cell_angle_gamma   120.00000056
_symmetry_Int_Tables_number   1
_chemical_formula_structural   CoH7C13NO4
_chemical_formula_sum   'Co6 H42 C78 N6 O24'
_cell_volume   2962.91728232
_cell_formula_units_Z   6
loop_
 _symmetry_equiv_pos_site_id
 _symmetry_equiv_pos_as_xyz
  1  'x, y, z'
loop_
 _atom_site_label
 _atom_site_fract_x
 _atom_site_fract_y
 _atom_site_fract_z
 _atom_site_charge
 Co 0.92015 0.17075 0.0292   0.896833
 Co 0.2506 0.07985 0.36253   0.896665
 Co 0.82925 0.7494 0.69586   0.896869
 Co 0.7494 0.82925 0.9708   0.896821
 Co 0.17075 0.92015 0.63747   0.896652
 Co 0.07985 0.2506 0.30414   0.896856
 H 0.9357 0.4414 0.000300000000003   0.08073
 H 0.6574 0.5024 0.0723   0.113635
 H 0.7451 0.2078 0.1106   0.074731
 H 0.689 0.2454 0.1846   0.111997
 H 0.5447 0.1971 0.2503   0.099864
 H 0.3011 0.2971 0.1745   0.100476
 H 0.4447 0.3473 0.1089   0.121827
 H 0.5057 0.0643 0.33363   0.080722
 H 0.845 0.3426 0.40563   0.113645
 H 0.4627 0.2549 0.44393   0.074811
 H 0.5564 0.311 0.51793   0.111995
 H 0.6524 0.4553 0.58363   0.099963
 H 0.996 0.6989 0.50783   0.100528
 H 0.9026 0.5553 0.44223   0.121897
 H 0.5586 0.4943 0.66697   0.080813
 H 0.4976 0.155 0.73897   0.113573
 H 0.7922 0.5373 0.77727   0.074709
 H 0.7546 0.4436 0.85127   0.112026
 H 0.8029 0.3476 0.91697   0.099826
 H 0.7029 0.004 0.84117   0.10051
 H 0.6527 0.0974 0.77557   0.121893
 H 0.4943 0.5586 0.9997   0.08073
 H 0.155 0.4976 0.9277   0.113636
 H 0.5373 0.7922 0.8894   0.074732
 H 0.4436 0.7546 0.8154   0.111998
 H 0.3476 0.8029 0.7497   0.099865
 H 0.004 0.7029 0.8255   0.100478
 H 0.0974 0.6527 0.8911   0.121828
 H 0.4414 0.9357 0.66637   0.080722
 H 0.5024 0.6574 0.59437   0.113646
 H 0.2078 0.7451 0.55607   0.074812
 H 0.2454 0.689 0.48207   0.111996
 H 0.1971 0.5447 0.41637   0.099963
 H 0.2971 0.3011 0.49217   0.100529
 H 0.3473 0.4447 0.55777   0.121897
 H 0.0643 0.5057 0.33303   0.080813
 H 0.3426 0.845 0.26103   0.113574
 H 0.2549 0.4627 0.22273   0.07471
 H 0.311 0.5564 0.14873   0.112027
 H 0.4553 0.6524 0.08303   0.099826
 H 0.6989 0.996 0.15883   0.100512
 H 0.5553 0.9026 0.22443   0.121893
 C 0.8709 0.4166 0.02496   0.20273
 C 0.8009 0.4909 0.03023   -0.192056
 C 0.7057 0.4546 0.06794   0.017187
 C 0.6837 0.3479 0.09859   -0.055424
 C 0.7586 0.2794 0.08999   0.149812
 C 0.5865 0.3075 0.14004   0.062714
 C 0.6125 0.2585 0.18254   -0.145561
 C 0.5254 0.2289 0.22203   -0.010771
 C 0.411 0.2463 0.21969   -0.156314
 C 0.3804 0.2888 0.17679   -0.025782
 C 0.4666 0.319 0.13744   -0.134685
 C 0.8268 0.6049 0.99501   0.684286
 C 0.3208 0.2243 0.26363   0.706594
 C 0.5457 0.1291 0.35829   0.202734
 C 0.69 0.1991 0.36356   -0.192049
 C 0.7489 0.2943 0.40127   0.017026
 C 0.6642 0.3163 0.43192   -0.055253
 C 0.5208 0.2414 0.42332   0.149605
 C 0.721 0.4135 0.47337   0.062733
 C 0.646 0.3875 0.51587   -0.14542
 C 0.7035 0.4746 0.55536   -0.01098
 C 0.8353 0.589 0.55302   -0.156446
 C 0.9084 0.6196 0.51012   -0.02576
 C 0.8524 0.5334 0.47077   -0.134761
 C 0.7781 0.1732 0.32834   0.684289
 C 0.9035 0.6792 0.59696   0.706566
 C 0.5834 0.4543 0.69163   0.202789
 C 0.5091 0.31 0.6969   -0.192312
 C 0.5454 0.2511 0.73461   0.017479
 C 0.6521 0.3358 0.76526   -0.055664
 C 0.7206 0.4792 0.75666   0.149964
 C 0.6925 0.279 0.80671   0.062743
 C 0.7415 0.354 0.84921   -0.145533
 C 0.7711 0.2965 0.8887   -0.010773
 C 0.7537 0.1647 0.88636   -0.156399
 C 0.7112 0.0916 0.84346   -0.025673
 C 0.681 0.1476 0.80411   -0.134782
 C 0.3951 0.2219 0.66168   0.684399
 C 0.7757 0.0965 0.9303   0.706729
 C 0.4543 0.5834 0.97504   0.20273
 C 0.31 0.5091 0.96977   -0.192057
 C 0.2511 0.5454 0.93206   0.017182
 C 0.3358 0.6521 0.90141   -0.055424
 C 0.4792 0.7206 0.91001   0.149812
 C 0.279 0.6925 0.85996   0.062713
 C 0.354 0.7415 0.81746   -0.145562
 C 0.2965 0.7711 0.77797   -0.010772
 C 0.1647 0.7537 0.78031   -0.156315
 C 0.0916 0.7112 0.82321   -0.025785
 C 0.1476 0.681 0.86256   -0.134686
 C 0.2219 0.3951 0.00499   0.684284
 C 0.0965 0.7757 0.73637   0.706592
 C 0.4166 0.8709 0.64171   0.202733
 C 0.4909 0.8009 0.63644   -0.192049
 C 0.4546 0.7057 0.59873   0.017021
 C 0.3479 0.6837 0.56808   -0.055253
 C 0.2794 0.7586 0.57668   0.149605
 C 0.3075 0.5865 0.52663   0.062732
 C 0.2585 0.6125 0.48413   -0.145422
 C 0.2289 0.5254 0.44464   -0.010981
 C 0.2463 0.411 0.44698   -0.156447
 C 0.2888 0.3804 0.48988   -0.025762
 C 0.319 0.4666 0.52923   -0.134762
 C 0.6049 0.8268 0.67166   0.684288
 C 0.2243 0.3208 0.40304   0.706565
 C 0.1291 0.5457 0.30837   0.202788
 C 0.1991 0.69 0.3031   -0.192313
 C 0.2943 0.7489 0.26539   0.017475
 C 0.3163 0.6642 0.23474   -0.055665
 C 0.2414 0.5208 0.24334   0.149964
 C 0.4135 0.721 0.19329   0.062742
 C 0.3875 0.646 0.15079   -0.145536
 C 0.4746 0.7035 0.1113   -0.010774
 C 0.589 0.8353 0.11364   -0.156399
 C 0.6196 0.9084 0.15654   -0.025676
 C 0.5334 0.8524 0.19589   -0.134783
 C 0.1732 0.7781 0.33832   0.684398
 C 0.6792 0.9035 0.0697   0.706727
 N 0.849 0.3113 0.0537   -0.337785
 N 0.4623 0.151 0.38703   -0.337693
 N 0.6887 0.5377 0.72037   -0.337901
 N 0.5377 0.6887 0.9463   -0.337783
 N 0.3113 0.849 0.61297   -0.337692
 N 0.151 0.4623 0.27963   -0.3379
 O 0.9036 0.6226 0.96022   -0.598708
 O 0.7684 0.6754 0.0053   -0.606656
 O 0.3535 0.1855 0.30121   -0.561209
 O 0.224 0.2489 0.25884   -0.598534
 O 0.719 0.0964 0.29355   -0.598662
 O 0.907 0.2316 0.33863   -0.60662
 O 0.832 0.6465 0.63454   -0.561106
 O 0.0249 0.776 0.59217   -0.598516
 O 0.3774 0.281 0.62689   -0.598688
 O 0.3246 0.093 0.67197   -0.606618
 O 0.8145 0.168 0.96788   -0.561161
 O 0.7511 0.9751 0.92551   -0.598622
 O 0.281 0.3774 0.03978   -0.598708
 O 0.093 0.3246 0.9947   -0.606656
 O 0.168 0.8145 0.69879   -0.561208
 O 0.9751 0.7511 0.74116   -0.598535
 O 0.6226 0.9036 0.70645   -0.598663
 O 0.6754 0.7684 0.66137   -0.606622
 O 0.1855 0.3535 0.36546   -0.561105
 O 0.2489 0.224 0.40783   -0.598516
 O 0.0964 0.719 0.37311   -0.598688
 O 0.2316 0.907 0.32803   -0.606619
 O 0.6465 0.832 0.03212   -0.56116
 O 0.776 0.0249 0.07449   -0.598623
