{'_ref': 'TBD', '_srcid': 'CAKYAQ_clean', 'submitters': [{'name': 'Dalar Nazarian Jeff Camp and David Sholl', 'email': 'dalar@gatech.edu jcamp6@gatech.edu'}], '_method': 'VASP DFT with PBE;DDEC'}
data_Mn2H30C35O11
_symmetry_space_group_name_H-M   'P 1'
_cell_length_a   16.46740035
_cell_length_b   18.17049977
_cell_length_c   20.44560000
_cell_angle_alpha   64.16699834
_cell_angle_beta   70.66800088
_cell_angle_gamma   70.11900076
_symmetry_Int_Tables_number   1
_chemical_formula_structural   Mn2H30C35O11
_chemical_formula_sum   'Mn8 H120 C140 O44'
_cell_volume   5055.93563161
_cell_formula_units_Z   4
loop_
 _symmetry_equiv_pos_site_id
 _symmetry_equiv_pos_as_xyz
  1  'x, y, z'
loop_
 _atom_site_label
 _atom_site_fract_x
 _atom_site_fract_y
 _atom_site_fract_z
 _atom_site_charge
 Mn 0.64044 0.73887 0.57956   1.183787
 Mn 0.87869 0.66867 0.58638   1.141276
 Mn 0.09031 0.72052 0.62149   1.150868
 Mn 0.32614 0.6981 0.54953   1.129929
 Mn 0.35956 0.26113 0.42044   1.183788
 Mn 0.12131 0.33133 0.41362   1.141279
 Mn 0.90969 0.27948 0.37851   1.150868
 Mn 0.67386 0.3019 0.45047   1.129932
 H 0.8494 0.404 0.7073   0.096459
 H 0.8222 0.278 0.7922   0.126789
 H 0.6028 0.5188 0.7766   0.095584
 H 0.5754 0.3929 0.8676   0.128057
 H 0.8413 0.8042 0.7227   0.090891
 H 0.6185 0.1906 0.0616   0.118157
 H 0.5837 0.1179 0.1319   0.129885
 H 0.6856 0.1094 0.0994   0.119104
 H 0.4182 0.8133 0.401   0.082261
 H 0.5869 0.2559 0.9739   0.058199
 H 0.5536 0.2638 0.9066   0.060892
 H 0.4372 0.9035 0.2792   0.125977
 H 0.6587 0.8464 0.0934   0.112796
 H 0.5909 0.858 0.049   0.117152
 H 0.6915 0.8508 0.0108   0.126539
 H 0.8198 0.8702 0.8025   0.135308
 H 0.5812 0.8607 0.7399   0.08707
 H 0.6779 0.7493 0.3865   0.094101
 H 0.699 0.8383 0.2629   0.11886
 H 0.5747 0.1278 0.8215   0.120892
 H 0.5242 0.2019 0.8504   0.122111
 H 0.6261 0.1893 0.8163   0.129538
 H 0.5571 0.922 0.8235   0.114621
 H 0.5612 0.0186 0.8667   0.044942
 H 0.5624 0.9333 0.9355   0.052422
 H 0.6845 0.9747 0.1542   0.058298
 H 0.6972 0.8945 0.1369   0.055633
 H 0.3228 0.3024 0.8163   0.116662
 H 0.1007 0.2235 0.0248   0.120344
 H 0.0681 0.1521 0.0979   0.13185
 H 0.1696 0.1473 0.0658   0.12006
 H 0.1918 0.017 0.1153   0.048585
 H 0.2139 0.9327 0.1024   0.056218
 H 0.0686 0.2788 0.9337   0.059639
 H 0.058 0.276 0.861   0.05455
 H 0.15 0.8702 0.0825   0.118096
 H 0.0851 0.8742 0.039   0.116292
 H 0.1866 0.8638 0.0034   0.126802
 H 0.0873 0.1196 0.7955   0.120614
 H 0.0313 0.2005 0.8129   0.122285
 H 0.1342 0.1873 0.7849   0.125767
 H 0.0502 0.0174 0.858   0.050366
 H 0.0794 0.9306 0.9202   0.060145
 H 0.0572 0.9218 0.8135   0.114944
 H 0.3134 0.9223 0.749   0.127817
 H 0.0113 0.8693 0.2915   0.121916
 H 0.2427 0.9363 0.2102   0.10871
 H 0.0778 0.8528 0.7371   0.093587
 H 0.3334 0.8555 0.6709   0.091653
 H 0.0439 0.7979 0.4055   0.09035
 H 0.2754 0.8651 0.3259   0.092594
 H 0.0824 0.394 0.7915   0.108447
 H 0.1185 0.5162 0.7066   0.070915
 H 0.3597 0.4262 0.7349   0.094813
 H 0.9076 0.5757 0.8197   0.158119
 H 0.8479 0.6098 0.7621   0.165962
 H 0.9213 0.5264 0.7688   0.159458
 H 0.8353 0.8938 0.3752   0.165754
 H 0.7915 0.8361 0.3654   0.166518
 H 0.7359 0.8919 0.4131   0.156989
 H 0.1506 0.596 0.2927   0.09646
 H 0.1778 0.722 0.2078   0.126789
 H 0.3972 0.4812 0.2234   0.095583
 H 0.4246 0.6071 0.1324   0.128056
 H 0.1587 0.1958 0.2773   0.090891
 H 0.3815 0.8094 0.9384   0.118156
 H 0.4163 0.8821 0.8681   0.129885
 H 0.3144 0.8906 0.9006   0.119104
 H 0.5818 0.1867 0.599   0.082261
 H 0.4131 0.7441 0.0261   0.058199
 H 0.4464 0.7362 0.0934   0.060892
 H 0.5628 0.0965 0.7208   0.125977
 H 0.3413 0.1536 0.9066   0.112796
 H 0.4091 0.142 0.951   0.117151
 H 0.3085 0.1492 0.9892   0.126539
 H 0.1802 0.1298 0.1975   0.135308
 H 0.4188 0.1393 0.2601   0.08707
 H 0.3221 0.2507 0.6135   0.094101
 H 0.301 0.1617 0.7371   0.118859
 H 0.4253 0.8722 0.1785   0.120892
 H 0.4758 0.7981 0.1496   0.122111
 H 0.3739 0.8107 0.1837   0.129538
 H 0.4429 0.078 0.1765   0.114621
 H 0.4388 0.9814 0.1333   0.044942
 H 0.4376 0.0667 0.0645   0.052422
 H 0.3155 0.0253 0.8458   0.058298
 H 0.3028 0.1055 0.8631   0.055633
 H 0.6772 0.6976 0.1837   0.116662
 H 0.8993 0.7765 0.9752   0.120344
 H 0.9319 0.8479 0.9021   0.131851
 H 0.8304 0.8527 0.9342   0.120059
 H 0.8082 0.983 0.8847   0.048585
 H 0.7861 0.0673 0.8976   0.056218
 H 0.9314 0.7212 0.0663   0.059639
 H 0.942 0.724 0.139   0.05455
 H 0.85 0.1298 0.9175   0.118095
 H 0.9149 0.1258 0.961   0.116291
 H 0.8134 0.1362 0.9966   0.126801
 H 0.9127 0.8804 0.2045   0.120613
 H 0.9687 0.7995 0.1871   0.122285
 H 0.8658 0.8127 0.2151   0.125767
 H 0.9498 0.9826 0.142   0.050366
 H 0.9206 0.0694 0.0798   0.060145
 H 0.9428 0.0782 0.1865   0.114944
 H 0.6866 0.0777 0.251   0.127818
 H 0.9887 0.1307 0.7085   0.121916
 H 0.7573 0.0637 0.7898   0.10871
 H 0.9222 0.1472 0.2629   0.093588
 H 0.6666 0.1445 0.3291   0.091654
 H 0.9561 0.2021 0.5945   0.090351
 H 0.7246 0.1349 0.6741   0.092594
 H 0.9176 0.606 0.2085   0.108447
 H 0.8815 0.4838 0.2934   0.070915
 H 0.6403 0.5738 0.2651   0.094813
 H 0.0924 0.4243 0.1803   0.158119
 H 0.1521 0.3902 0.2379   0.165962
 H 0.0787 0.4736 0.2312   0.159458
 H 0.1647 0.1062 0.6248   0.165754
 H 0.2085 0.1639 0.6346   0.166518
 H 0.2641 0.1081 0.5869   0.15699
 C 0.5323 0.7207 0.4886   0.73584
 C 0.794 0.4016 0.7391   0.01754
 C 0.7782 0.3269 0.7897   -0.243502
 C 0.6475 0.4701 0.7809   0.036286
 C 0.6951 0.323 0.8387   0.292757
 C 0.6302 0.3947 0.8347   -0.292291
 C 0.7842 0.829 0.742   0.03002
 C 0.6285 0.1308 0.0871   -0.354904
 C 0.4749 0.8187 0.3734   0.034692
 C 0.5996 0.2342 0.9349   0.12588
 C 0.4861 0.8722 0.3004   -0.246965
 C 0.744 0.5598 0.6747   0.753128
 C 0.644 0.8717 0.0454   -0.354493
 C 0.7714 0.8679 0.7901   -0.249186
 C 0.6295 0.8621 0.7531   0.028804
 C 0.6293 0.7803 0.3648   0.029181
 C 0.6421 0.8337 0.2905   -0.280304
 C 0.7285 0.4751 0.7338   -0.221234
 C 0.5789 0.1611 0.8456   -0.355753
 C 0.7134 0.826 0.7217   -0.231072
 C 0.5707 0.8798 0.2579   0.293973
 C 0.6144 0.8997 0.8023   -0.271981
 C 0.7267 0.7858 0.6664   0.765517
 C 0.6869 0.9037 0.8202   0.295269
 C 0.5946 0.9769 0.9037   0.120836
 C 0.6247 0.0908 0.0377   0.114627
 C 0.6297 0.9663 0.0184   0.119403
 C 0.5459 0.7729 0.4065   -0.24586
 C 0.6058 0.1405 0.9675   -0.15757
 C 0.6383 0.0029 0.0623   -0.139365
 C 0.6575 0.9477 0.1378   0.112349
 C 0.6069 0.0168 0.9489   -0.142903
 C 0.5975 0.1041 0.9226   0.101689
 C 0.2792 0.3471 0.7953   -0.251719
 C 0.198 0.337 0.8143   0.314343
 C 0.1131 0.1642 0.0532   -0.352473
 C 0.1669 0.9808 0.1077   0.115649
 C 0.1147 0.1162 0.0071   0.11455
 C 0.0941 0.2512 0.8977   0.127745
 C 0.1323 0.028 0.0373   -0.147227
 C 0.1378 0.8894 0.0341   -0.358505
 C 0.1 0.1589 0.9354   -0.156917
 C 0.0866 0.1596 0.8146   -0.356731
 C 0.1248 0.9839 0.9987   0.119097
 C 0.0977 0.1144 0.895   0.106647
 C 0.1058 0.0272 0.9278   -0.140197
 C 0.0961 0.983 0.886   0.116593
 C 0.184 0.9275 0.7904   0.301822
 C 0.1241 0.9103 0.2383   0.29654
 C 0.1133 0.9074 0.7856   -0.284844
 C 0.2656 0.9078 0.7468   -0.26081
 C 0.0648 0.8683 0.2984   -0.253212
 C 0.2025 0.9085 0.2497   -0.268025
 C 0.126 0.8662 0.7397   0.044031
 C 0.2778 0.8674 0.7005   0.020363
 C 0.0842 0.8261 0.3664   0.044827
 C 0.222 0.8659 0.3191   0.028085
 C 0.208 0.8437 0.697   -0.223154
 C 0.1625 0.8236 0.3796   -0.229206
 C 0.2426 0.4855 0.7132   -0.180974
 C 0.1825 0.7831 0.4554   0.73886
 C 0.2655 0.5672 0.6573   0.708541
 C 0.14 0.3996 0.7807   -0.273781
 C 0.1616 0.4733 0.7301   0.039011
 C 0.2197 0.7966 0.6502   0.757363
 C 0.3019 0.4213 0.7457   0.019032
 C 0.972 0.6311 0.713   0.781255
 C 0.9062 0.5812 0.7712   -0.532247
 C 0.8205 0.7892 0.4666   0.78997
 C 0.7934 0.8589 0.3991   -0.532925
 C 0.4677 0.2793 0.5114   0.73584
 C 0.206 0.5984 0.2609   0.01754
 C 0.2218 0.6731 0.2103   -0.243502
 C 0.3525 0.5299 0.2191   0.036286
 C 0.3049 0.677 0.1613   0.292757
 C 0.3698 0.6053 0.1653   -0.29229
 C 0.2158 0.171 0.258   0.03002
 C 0.3715 0.8692 0.9129   -0.354903
 C 0.5251 0.1813 0.6266   0.034693
 C 0.4004 0.7658 0.0651   0.12588
 C 0.5139 0.1278 0.6996   -0.246965
 C 0.256 0.4402 0.3253   0.753128
 C 0.356 0.1283 0.9546   -0.354492
 C 0.2286 0.1321 0.2099   -0.249186
 C 0.3705 0.1379 0.2469   0.028804
 C 0.3707 0.2197 0.6352   0.029182
 C 0.3579 0.1663 0.7095   -0.280304
 C 0.2715 0.5249 0.2662   -0.221234
 C 0.4211 0.8389 0.1544   -0.355753
 C 0.2866 0.174 0.2783   -0.231072
 C 0.4293 0.1202 0.7421   0.293973
 C 0.3856 0.1003 0.1977   -0.271981
 C 0.2733 0.2142 0.3336   0.765517
 C 0.3131 0.0963 0.1798   0.295269
 C 0.4054 0.0231 0.0963   0.120835
 C 0.3753 0.9092 0.9623   0.114626
 C 0.3703 0.0337 0.9816   0.119403
 C 0.4541 0.2271 0.5935   -0.24586
 C 0.3942 0.8595 0.0325   -0.15757
 C 0.3617 0.9971 0.9377   -0.139365
 C 0.3425 0.0523 0.8622   0.112349
 C 0.3931 0.9832 0.0511   -0.142903
 C 0.4025 0.8959 0.0774   0.101689
 C 0.7208 0.6529 0.2047   -0.251718
 C 0.802 0.663 0.1857   0.314343
 C 0.8869 0.8358 0.9468   -0.352473
 C 0.8331 0.0192 0.8923   0.115649
 C 0.8853 0.8838 0.9929   0.11455
 C 0.9059 0.7488 0.1023   0.127745
 C 0.8677 0.972 0.9627   -0.147227
 C 0.8622 0.1106 0.9659   -0.358504
 C 0.9 0.8411 0.0646   -0.156917
 C 0.9134 0.8404 0.1854   -0.356731
 C 0.8752 0.0161 0.0013   0.119097
 C 0.9023 0.8856 0.105   0.106647
 C 0.8942 0.9728 0.0722   -0.140197
 C 0.9039 0.017 0.114   0.116593
 C 0.816 0.0725 0.2096   0.301822
 C 0.8759 0.0897 0.7617   0.29654
 C 0.8867 0.0926 0.2144   -0.284844
 C 0.7344 0.0922 0.2532   -0.26081
 C 0.9352 0.1317 0.7016   -0.253211
 C 0.7975 0.0915 0.7503   -0.268025
 C 0.874 0.1338 0.2603   0.044031
 C 0.7222 0.1326 0.2995   0.020363
 C 0.9158 0.1739 0.6336   0.044827
 C 0.778 0.1341 0.6809   0.028085
 C 0.792 0.1563 0.303   -0.223154
 C 0.8375 0.1764 0.6204   -0.229205
 C 0.7574 0.5145 0.2868   -0.180974
 C 0.8175 0.2169 0.5446   0.73886
 C 0.7345 0.4328 0.3427   0.708541
 C 0.86 0.6004 0.2193   -0.273781
 C 0.8384 0.5267 0.2699   0.039011
 C 0.7803 0.2034 0.3498   0.757363
 C 0.6981 0.5787 0.2543   0.019033
 C 0.028 0.3689 0.287   0.781255
 C 0.0938 0.4188 0.2288   -0.532247
 C 0.1795 0.2108 0.5334   0.78997
 C 0.2066 0.1411 0.6009   -0.532926
 O 0.5979 0.6908 0.5185   -0.641208
 O 0.4568 0.7111 0.5233   -0.619704
 O 0.8244 0.5626 0.646   -0.661312
 O 0.6649 0.7993 0.6393   -0.660264
 O 0.8028 0.7419 0.6526   -0.64796
 O 0.6788 0.6161 0.6591   -0.620792
 O 0.5738 0.935 0.1864   -0.264969
 O 0.6809 0.9413 0.8679   -0.276219
 O 0.6857 0.2437 0.887   -0.278302
 O 0.0988 0.9527 0.1713   -0.27904
 O 0.1521 0.7773 0.6534   -0.680104
 O 0.1839 0.2594 0.8626   -0.295658
 O 0.2104 0.6212 0.6206   -0.673794
 O 0.1207 0.7522 0.507   -0.645621
 O 0.2926 0.7802 0.6095   -0.614809
 O 0.3392 0.5777 0.6482   -0.586999
 O 0.1795 0.9664 0.836   -0.286449
 O 0.254 0.7811 0.4647   -0.633613
 O 0.9812 0.6445 0.6449   -0.690532
 O 0.0161 0.6583 0.7319   -0.603899
 O 0.7732 0.7367 0.5075   -0.710302
 O 0.8913 0.7809 0.4825   -0.595457
 O 0.4021 0.3092 0.4815   -0.641208
 O 0.5432 0.2889 0.4767   -0.619704
 O 0.1756 0.4374 0.354   -0.661312
 O 0.3351 0.2007 0.3607   -0.660264
 O 0.1972 0.2581 0.3474   -0.64796
 O 0.3212 0.3839 0.3409   -0.620792
 O 0.4262 0.065 0.8136   -0.264969
 O 0.3191 0.0587 0.1321   -0.276219
 O 0.3143 0.7563 0.113   -0.278302
 O 0.9012 0.0473 0.8287   -0.27904
 O 0.8479 0.2227 0.3466   -0.680104
 O 0.8161 0.7406 0.1374   -0.295658
 O 0.7896 0.3788 0.3794   -0.673794
 O 0.8793 0.2478 0.493   -0.645621
 O 0.7074 0.2198 0.3905   -0.614809
 O 0.6608 0.4223 0.3518   -0.586999
 O 0.8205 0.0336 0.164   -0.286449
 O 0.746 0.2189 0.5353   -0.633613
 O 0.0188 0.3555 0.3551   -0.690532
 O 0.9839 0.3417 0.2681   -0.603899
 O 0.2268 0.2633 0.4925   -0.710302
 O 0.1087 0.2191 0.5175   -0.595457
