{'_ref': 'TBD', '_srcid': 'CAKYAQ_clean', 'submitters': [{'name': 'Dalar Nazarian Jeff Camp and David Sholl', 'email': 'dalar@gatech.edu jcamp6@gatech.edu'}], '_method': 'VASP DFT with PBE;DDEC'}
data_Y2H9C21(NO4)3
_symmetry_space_group_name_H-M   'P 1'
_cell_length_a   7.45800000
_cell_length_b   16.23900041
_cell_length_c   16.23900000
_cell_angle_alpha   119.99999917
_cell_angle_beta   90.00000000
_cell_angle_gamma   90.00000000
_symmetry_Int_Tables_number   1
_chemical_formula_structural   Y2H9C21(NO4)3
_chemical_formula_sum   'Y4 H18 C42 N6 O24'
_cell_volume   1703.22329685
_cell_formula_units_Z   2
loop_
 _symmetry_equiv_pos_site_id
 _symmetry_equiv_pos_as_xyz
  1  'x, y, z'
loop_
 _atom_site_label
 _atom_site_fract_x
 _atom_site_fract_y
 _atom_site_fract_z
 _atom_site_charge
 Y 0.1255 0.66667 0.33334   1.941882
 Y 0.6255 0.33333 0.66666   1.941882
 Y 0.6255 0.66667 0.33334   1.941881
 Y 0.1255 0.33333 0.66666   1.941881
 H 0.6252 0.86 0.5663   0.076515
 H 0.6252 0.7063 0.14   0.076515
 H 0.6252 0.4337 0.2937   0.07652
 H 0.1252 0.14 0.4337   0.076515
 H 0.1252 0.2937 0.86   0.076515
 H 0.1252 0.5663 0.7063   0.07652
 H 0.1252 0.7063 0.5663   0.076515
 H 0.1252 0.4337 0.14   0.076515
 H 0.1252 0.86 0.2937   0.07652
 H 0.6252 0.2937 0.4337   0.076515
 H 0.6252 0.5663 0.86   0.076515
 H 0.6252 0.14 0.7063   0.07652
 H 0.0563 0.0 0.5536   0.097636
 H 0.0563 0.5536 0.0   0.097635
 H 0.0563 0.4464 0.4464   0.097636
 H 0.5563 0.0 0.4464   0.097636
 H 0.5563 0.4464 0.0   0.097635
 H 0.5563 0.5536 0.5536   0.097636
 C 0.6858 0.918 0.5842   0.271986
 C 0.8556 0.9155 0.5486   -0.278007
 C 0.9386 0.827 0.4853   0.828683
 C 0.6858 0.6662 0.082   0.271985
 C 0.8556 0.6331 0.0845   -0.278002
 C 0.9386 0.6583 0.173   0.828675
 C 0.6858 0.4158 0.3338   0.271991
 C 0.8556 0.4514 0.3669   -0.277997
 C 0.9386 0.5147 0.3417   0.828671
 C 0.1858 0.082 0.4158   0.271986
 C 0.3556 0.0845 0.4514   -0.278007
 C 0.4386 0.173 0.5147   0.828683
 C 0.1858 0.3338 0.918   0.271985
 C 0.3556 0.3669 0.9155   -0.278002
 C 0.4386 0.3417 0.827   0.828675
 C 0.1858 0.5842 0.6662   0.271991
 C 0.3556 0.5486 0.6331   -0.277997
 C 0.4386 0.4853 0.6583   0.828671
 C 0.1858 0.6662 0.5842   0.271985
 C 0.3556 0.6331 0.5486   -0.278006
 C 0.4386 0.6583 0.4853   0.828683
 C 0.1858 0.4158 0.082   0.271984
 C 0.3556 0.4514 0.0845   -0.278002
 C 0.4386 0.5147 0.173   0.828675
 C 0.1858 0.918 0.3338   0.27199
 C 0.3556 0.9155 0.3669   -0.277997
 C 0.4386 0.827 0.3417   0.828671
 C 0.6858 0.3338 0.4158   0.271985
 C 0.8556 0.3669 0.4514   -0.278006
 C 0.9386 0.3417 0.5147   0.828683
 C 0.6858 0.5842 0.918   0.271984
 C 0.8556 0.5486 0.9155   -0.278002
 C 0.9386 0.4853 0.827   0.828675
 C 0.6858 0.082 0.6662   0.27199
 C 0.8556 0.0845 0.6331   -0.277997
 C 0.9386 0.173 0.6583   0.828671
 C 0.9381 0.0 0.5755   0.140001
 C 0.9381 0.5755 0.0   0.139998
 C 0.9381 0.4245 0.4245   0.140001
 C 0.4381 0.0 0.4245   0.140001
 C 0.4381 0.4245 0.0   0.139998
 C 0.4381 0.5755 0.5755   0.140001
 N 0.606 0.0 0.6428   -0.444446
 N 0.606 0.6428 0.0   -0.444455
 N 0.606 0.3572 0.3572   -0.444446
 N 0.106 0.0 0.3572   -0.444446
 N 0.106 0.3572 0.0   -0.444455
 N 0.106 0.6428 0.6428   -0.444446
 O 0.8944 0.7446 0.4462   -0.750712
 O 0.0875 0.8252 0.4527   -0.692367
 O 0.8944 0.7016 0.2554   -0.750694
 O 0.0875 0.6275 0.1748   -0.692369
 O 0.8944 0.5538 0.2984   -0.750674
 O 0.0875 0.5473 0.3725   -0.69238
 O 0.3944 0.2554 0.5538   -0.750712
 O 0.5875 0.1748 0.5473   -0.692367
 O 0.3944 0.2984 0.7446   -0.750694
 O 0.5875 0.3725 0.8252   -0.692369
 O 0.3944 0.4462 0.7016   -0.750674
 O 0.5875 0.4527 0.6275   -0.69238
 O 0.3944 0.7016 0.4462   -0.750712
 O 0.5875 0.6275 0.4527   -0.692368
 O 0.3944 0.5538 0.2554   -0.750694
 O 0.5875 0.5473 0.1748   -0.692368
 O 0.3944 0.7446 0.2984   -0.750674
 O 0.5875 0.8252 0.3725   -0.69238
 O 0.8944 0.2984 0.5538   -0.750712
 O 0.0875 0.3725 0.5473   -0.692368
 O 0.8944 0.4462 0.7446   -0.750694
 O 0.0875 0.4527 0.8252   -0.692368
 O 0.8944 0.2554 0.7016   -0.750674
 O 0.0875 0.1748 0.6275   -0.69238
