{'_ref': 'TBD', '_srcid': 'CAKYAQ_clean', 'submitters': [{'name': 'Dalar Nazarian Jeff Camp and David Sholl', 'email': 'dalar@gatech.edu jcamp6@gatech.edu'}], '_method': 'VASP DFT with PBE;DDEC'}
data_FeH4C8O5
_symmetry_space_group_name_H-M   'P 1'
_cell_length_a   11.26379977
_cell_length_b   11.26380044
_cell_length_c   13.80700000
_cell_angle_alpha   107.51899856
_cell_angle_beta   107.51899963
_cell_angle_gamma   90.47920106
_symmetry_Int_Tables_number   1
_chemical_formula_structural   FeH4C8O5
_chemical_formula_sum   'Fe4 H16 C32 O20'
_cell_volume   1583.5420583
_cell_formula_units_Z   4
loop_
 _symmetry_equiv_pos_site_id
 _symmetry_equiv_pos_as_xyz
  1  'x, y, z'
loop_
 _atom_site_label
 _atom_site_fract_x
 _atom_site_fract_y
 _atom_site_fract_z
 _atom_site_charge
 Fe 0.99896 0.00104 0.25   1.390243
 Fe 0.00104 0.99896 0.75   1.390243
 Fe 0.0 0.0 0.0   1.252856
 Fe 0.0 0.0 0.5   1.252856
 H 0.99382 0.60854 0.42112   0.120045
 H 0.99344 0.38834 0.36613   0.119945
 H 0.99297 0.39013 0.06979   0.120191
 H 0.99335 0.61033 0.12479   0.120029
 H 0.39146 0.00618 0.07888   0.120045
 H 0.61166 0.00656 0.13387   0.119945
 H 0.60987 0.00703 0.43021   0.120191
 H 0.38967 0.00665 0.37521   0.120029
 H 0.00618 0.39146 0.57888   0.120045
 H 0.00656 0.61166 0.63387   0.119945
 H 0.00703 0.60987 0.93021   0.120191
 H 0.00665 0.38967 0.87521   0.120029
 H 0.60854 0.99382 0.92112   0.120045
 H 0.38834 0.99344 0.86613   0.119945
 H 0.39013 0.99297 0.56979   0.120191
 H 0.61033 0.99335 0.62479   0.120029
 C 0.99361 0.62829 0.27766   -0.099271
 C 0.99364 0.56328 0.34833   -0.063616
 C 0.99342 0.43434 0.31612   -0.060639
 C 0.99317 0.37039 0.21325   -0.100969
 C 0.99314 0.43538 0.14259   -0.064654
 C 0.99337 0.56433 0.17479   -0.0599
 C 0.99385 0.76517 0.31185   0.685277
 C 0.99293 0.23351 0.17907   0.687679
 C 0.37171 0.00639 0.22234   -0.09927
 C 0.43672 0.00636 0.15167   -0.063615
 C 0.56566 0.00658 0.18388   -0.060638
 C 0.62961 0.00683 0.28675   -0.100966
 C 0.56462 0.00686 0.35741   -0.064654
 C 0.43567 0.00663 0.32521   -0.059899
 C 0.23483 0.00615 0.18815   0.685278
 C 0.76649 0.00707 0.32093   0.687671
 C 0.00639 0.37171 0.72234   -0.099271
 C 0.00636 0.43672 0.65167   -0.063615
 C 0.00658 0.56566 0.68388   -0.060638
 C 0.00683 0.62961 0.78675   -0.10097
 C 0.00686 0.56462 0.85741   -0.064653
 C 0.00663 0.43567 0.82521   -0.0599
 C 0.00615 0.23483 0.68815   0.685277
 C 0.00707 0.76649 0.82093   0.687679
 C 0.62829 0.99361 0.77766   -0.099271
 C 0.56328 0.99364 0.84833   -0.063614
 C 0.43434 0.99342 0.81612   -0.060638
 C 0.37039 0.99317 0.71325   -0.100967
 C 0.43538 0.99314 0.64259   -0.064653
 C 0.56433 0.99337 0.67479   -0.059898
 C 0.76517 0.99385 0.81185   0.685278
 C 0.23351 0.99293 0.67907   0.687671
 O 0.98706 0.82306 0.4041   -0.512863
 O 0.000860000000003 0.82552 0.24913   -0.547616
 O 0.9915 0.17374 0.24347   -0.557465
 O 0.99415 0.17501 0.08513   -0.508705
 O 0.94017 0.93499 0.09235   -0.599023
 O 0.17694 0.01294 0.0959   -0.512863
 O 0.17448 0.99914 0.25087   -0.547616
 O 0.82626 0.0085 0.25653   -0.557458
 O 0.82499 0.00585 0.41487   -0.508704
 O 0.06501 0.05983 0.40765   -0.599023
 O 0.01294 0.17694 0.5959   -0.512863
 O 0.99914 0.17448 0.75087   -0.547616
 O 0.0085 0.82626 0.75653   -0.557465
 O 0.00585 0.82499 0.91487   -0.508704
 O 0.05983 0.06501 0.90765   -0.599023
 O 0.82306 0.98706 0.9041   -0.512863
 O 0.82552 0.000860000000003 0.74913   -0.547616
 O 0.17374 0.9915 0.74347   -0.557458
 O 0.17501 0.99415 0.58513   -0.508703
 O 0.93499 0.94017 0.59235   -0.599022
