{'_ref': 'TBD', '_srcid': 'CAKYAQ_clean', 'submitters': [{'name': 'Dalar Nazarian Jeff Camp and David Sholl', 'email': 'dalar@gatech.edu jcamp6@gatech.edu'}], '_method': 'VASP DFT with PBE;DDEC'}
data_FeH4C8O5
_symmetry_space_group_name_H-M   'P 1'
_cell_length_a   11.25769993
_cell_length_b   11.25769967
_cell_length_c   13.79700000
_cell_angle_alpha   107.51999906
_cell_angle_beta   107.51999865
_cell_angle_gamma   90.86570101
_symmetry_Int_Tables_number   1
_chemical_formula_structural   FeH4C8O5
_chemical_formula_sum   'Fe4 H16 C32 O20'
_cell_volume   1579.32596277
_cell_formula_units_Z   4
loop_
 _symmetry_equiv_pos_site_id
 _symmetry_equiv_pos_as_xyz
  1  'x, y, z'
loop_
 _atom_site_label
 _atom_site_fract_x
 _atom_site_fract_y
 _atom_site_fract_z
 _atom_site_charge
 Fe 0.99823 0.00177 0.25   1.222039
 Fe 0.00177 0.99823 0.75   1.222039
 Fe 0.0 0.0 0.0   1.408694
 Fe 0.0 0.0 0.5   1.408694
 H 0.00601 0.61015 0.42645   0.117381
 H 0.00477 0.39111 0.37253   0.118956
 H 0.00496 0.39072 0.07747   0.116499
 H 0.0062 0.60976 0.13139   0.116379
 H 0.38985 0.99399 0.07355   0.117381
 H 0.60889 0.99523 0.12747   0.118957
 H 0.60928 0.99504 0.42253   0.116499
 H 0.39024 0.9938 0.36861   0.116379
 H 0.99399 0.38985 0.57355   0.117377
 H 0.99523 0.60889 0.62747   0.118952
 H 0.99504 0.60928 0.92253   0.116494
 H 0.9938 0.39024 0.86861   0.116374
 H 0.61015 0.00601 0.92645   0.117377
 H 0.39111 0.00477 0.87253   0.118953
 H 0.39072 0.00496 0.57747   0.116494
 H 0.60976 0.0062 0.63139   0.116374
 C 0.00621 0.62813 0.28339   -0.098301
 C 0.00579 0.56439 0.35369   -0.056414
 C 0.00507 0.43671 0.32225   -0.065339
 C 0.00476 0.37274 0.22053   -0.096026
 C 0.00518 0.43648 0.15024   -0.058186
 C 0.0059 0.56416 0.18167   -0.060614
 C 0.00697 0.76515 0.31712   0.68911
 C 0.004 0.23572 0.1868   0.684916
 C 0.37187 0.99379 0.21661   -0.0983
 C 0.43561 0.99421 0.14631   -0.056413
 C 0.56329 0.99493 0.17775   -0.065337
 C 0.62726 0.99524 0.27947   -0.096025
 C 0.56352 0.99482 0.34976   -0.058184
 C 0.43584 0.9941 0.31833   -0.060613
 C 0.23485 0.99303 0.18288   0.68911
 C 0.76428 0.996 0.3132   0.684916
 C 0.99379 0.37187 0.71661   -0.098302
 C 0.99421 0.43561 0.64631   -0.056411
 C 0.99493 0.56329 0.67775   -0.065337
 C 0.99524 0.62726 0.77947   -0.096027
 C 0.99482 0.56352 0.84976   -0.058184
 C 0.9941 0.43584 0.81833   -0.060612
 C 0.99303 0.23485 0.68288   0.68911
 C 0.996 0.76428 0.8132   0.684916
 C 0.62813 0.00621 0.78339   -0.098301
 C 0.56439 0.00579 0.85369   -0.05641
 C 0.43671 0.00507 0.82225   -0.065336
 C 0.37274 0.00476 0.72053   -0.096027
 C 0.43648 0.00518 0.65024   -0.058182
 C 0.56416 0.0059 0.68167   -0.060612
 C 0.76515 0.00697 0.81712   0.68911
 C 0.23572 0.004 0.6868   0.684916
 O 0.00472 0.82394 0.25127   -0.510012
 O 0.00989 0.82473 0.41212   -0.562659
 O 0.01102 0.17724 0.09469   -0.560377
 O 0.99631 0.17583 0.24977   -0.494309
 O 0.93152 0.9454 0.09335   -0.59637
 O 0.17606 0.99528 0.24873   -0.510012
 O 0.17527 0.99011 0.08788   -0.562659
 O 0.82276 0.98898 0.40531   -0.560377
 O 0.82417 0.00369 0.25023   -0.494308
 O 0.0546 0.06848 0.40665   -0.596369
 O 0.99528 0.17606 0.74873   -0.510012
 O 0.99011 0.17527 0.58788   -0.562658
 O 0.98898 0.82276 0.90531   -0.560377
 O 0.00369 0.82417 0.75023   -0.494309
 O 0.06848 0.0546 0.90665   -0.596368
 O 0.82394 0.00472 0.75127   -0.510012
 O 0.82473 0.00989 0.91212   -0.562658
 O 0.17724 0.01102 0.59469   -0.560377
 O 0.17583 0.99631 0.74977   -0.494308
 O 0.9454 0.93152 0.59335   -0.596368
