{'_ref': 'TBD', '_srcid': 'CAKYAQ_clean', 'submitters': [{'name': 'Dalar Nazarian Jeff Camp and David Sholl', 'email': 'dalar@gatech.edu jcamp6@gatech.edu'}], '_method': 'VASP DFT with PBE;DDEC'}
data_NdH3(C3O2)3
_symmetry_space_group_name_H-M   'P 1'
_cell_length_a   6.12000000
_cell_length_b   9.71900000
_cell_length_c   20.13300000
_cell_angle_alpha   90.00000000
_cell_angle_beta   90.00000000
_cell_angle_gamma   90.00000000
_symmetry_Int_Tables_number   1
_chemical_formula_structural   NdH3(C3O2)3
_chemical_formula_sum   'Nd4 H12 C36 O24'
_cell_volume   1197.51647724
_cell_formula_units_Z   4
loop_
 _symmetry_equiv_pos_site_id
 _symmetry_equiv_pos_as_xyz
  1  'x, y, z'
loop_
 _atom_site_label
 _atom_site_fract_x
 _atom_site_fract_y
 _atom_site_fract_z
 _atom_site_charge
 Nd 0.7142 0.034 0.3147   2.26937
 Nd 0.7858 0.966 0.8147   2.269305
 Nd 0.2858 0.534 0.1853   2.269309
 Nd 0.2142 0.466 0.6853   2.269374
 H 0.67064 0.03157 0.5628   0.127398
 H 0.08753 0.88053 0.46151   0.107175
 H 0.93663 0.7987 0.57123   0.108118
 H 0.82936 0.96843 0.0628   0.127419
 H 0.41247 0.11947 0.96151   0.107321
 H 0.56373 0.20102 0.06974   0.107683
 H 0.32936 0.53157 0.9372   0.127419
 H 0.91247 0.38053 0.03849   0.107324
 H 0.06373 0.29898 0.93026   0.107686
 H 0.17064 0.46843 0.4372   0.127398
 H 0.58753 0.61947 0.53849   0.107178
 H 0.43663 0.7013 0.42877   0.108121
 C 0.215 0.8722 0.6277   -0.087445
 C 0.4198 0.9376 0.6262   -0.074018
 C 0.5052 0.9779 0.5652   -0.077567
 C 0.3934 0.9543 0.5067   -0.095837
 C 0.1861 0.8942 0.5091   -0.039063
 C 0.1025 0.8519 0.5691   -0.100916
 C 0.1155 0.8267 0.6927   0.793778
 C 0.5526 0.9573 0.6868   0.686792
 C 0.4959 0.9935 0.4416   0.697667
 C 0.285 0.1278 0.1277   -0.086624
 C 0.0802 0.0624 0.1262   -0.073918
 C 0.9948 0.0221 0.0652   -0.07767
 C 0.1066 0.0457 0.0067   -0.095746
 C 0.3139 0.1058 0.0091   -0.040591
 C 0.3975 0.1481 0.0691   -0.100244
 C 0.3845 0.1733 0.1927   0.793879
 C 0.9474 0.0427 0.1868   0.686919
 C 0.0041 0.0065 0.9416   0.697588
 C 0.785 0.3722 0.8723   -0.086624
 C 0.5802 0.4376 0.8738   -0.073919
 C 0.4948 0.4779 0.9348   -0.077669
 C 0.6066 0.4543 0.9933   -0.095745
 C 0.8139 0.3942 0.9909   -0.04059
 C 0.8975 0.3519 0.9309   -0.100245
 C 0.8845 0.3267 0.8073   0.793879
 C 0.4474 0.4573 0.8132   0.686919
 C 0.5041 0.4935 0.0584   0.697588
 C 0.715 0.6278 0.3723   -0.087445
 C 0.9198 0.5624 0.3738   -0.074018
 C 0.0052 0.5221 0.4348   -0.077566
 C 0.8934 0.5457 0.4933   -0.095837
 C 0.6861 0.6058 0.4909   -0.039062
 C 0.6025 0.6481 0.4309   -0.100917
 C 0.6155 0.6733 0.3073   0.793778
 C 0.0526 0.5427 0.3132   0.686791
 C 0.9959 0.5065 0.5584   0.697666
 O 0.0742 0.7009 0.7007   -0.73505
 O 0.0658 0.9215 0.7324   -0.712394
 O 0.6442 0.0699 0.6982   -0.655585
 O 0.5713 0.8554 0.726   -0.745523
 O 0.6976 0.0158 0.4398   -0.751547
 O 0.3816 0.0014 0.3899   -0.715334
 O 0.4258 0.2991 0.2007   -0.734955
 O 0.4342 0.0785 0.2324   -0.712569
 O 0.8558 0.9301 0.1982   -0.65553
 O 0.9287 0.1446 0.226   -0.745385
 O 0.8024 0.9842 0.9398   -0.751747
 O 0.1184 0.9986 0.8899   -0.715163
 O 0.9258 0.2009 0.7993   -0.734955
 O 0.9342 0.4215 0.7676   -0.712569
 O 0.3558 0.5699 0.8018   -0.655529
 O 0.4287 0.3554 0.774   -0.745384
 O 0.3024 0.5158 0.0602   -0.751748
 O 0.6184 0.5014 0.1101   -0.715163
 O 0.5742 0.7991 0.2993   -0.73505
 O 0.5658 0.5785 0.2676   -0.712394
 O 0.1442 0.4301 0.3018   -0.655585
 O 0.0713 0.6446 0.274   -0.745522
 O 0.1976 0.4842 0.5602   -0.751547
 O 0.8816 0.4986 0.6101   -0.715335
