{'_ref': 'TBD', '_srcid': 'CAKYAQ_clean', 'submitters': [{'name': 'Dalar Nazarian Jeff Camp and David Sholl', 'email': 'dalar@gatech.edu jcamp6@gatech.edu'}], '_method': 'VASP DFT with PBE;DDEC'}
data_GaH5C8O5
_symmetry_space_group_name_H-M   'P 1'
_cell_length_a   6.67159951
_cell_length_b   7.64439994
_cell_length_c   10.54678628
_cell_angle_alpha   111.24781132
_cell_angle_beta   102.92201641
_cell_angle_gamma   89.99999725
_symmetry_Int_Tables_number   1
_chemical_formula_structural   GaH5C8O5
_chemical_formula_sum   'Ga2 H10 C16 O10'
_cell_volume   486.680975329
_cell_formula_units_Z   2
loop_
 _symmetry_equiv_pos_site_id
 _symmetry_equiv_pos_as_xyz
  1  'x, y, z'
loop_
 _atom_site_label
 _atom_site_fract_x
 _atom_site_fract_y
 _atom_site_fract_z
 _atom_site_charge
 Ga 0.426 0.1122 0.224   1.692819
 Ga 0.926 0.1118 0.224   1.692452
 H 0.2043 0.2247 0.8946   0.118013
 H 0.6189 0.9953 0.5486   0.122304
 H 0.0535 0.1655 0.647   0.111992
 H 0.7707 0.0544 0.7962   0.11136
 H 0.161 0.326 0.1872   0.472759
 H 0.7043 0.6699 0.8946   0.11804
 H 0.1189 0.5533 0.5486   0.122781
 H 0.5535 0.4815 0.647   0.112255
 H 0.2707 0.7418 0.7962   0.111443
 H 0.661 0.8612 0.1872   0.472843
 C 0.5893 0.1757 0.0078   0.720627
 C 0.4981 0.1449 0.8594   -0.106298
 C 0.6171 0.0785 0.7636   -0.076655
 C 0.2936 0.1768 0.8206   -0.062141
 C 0.5301 0.043 0.6228   -0.062181
 C 0.2072 0.1417 0.6796   -0.076253
 C 0.3261 0.0751 0.584   -0.107354
 C 0.229 0.0456 0.4366   0.725543
 C 0.0893 0.8321 0.0078   0.720669
 C 0.9981 0.7145 0.8594   -0.105784
 C 0.1171 0.6851 0.7636   -0.076744
 C 0.7936 0.6438 0.8206   -0.062419
 C 0.0301 0.5798 0.6228   -0.063744
 C 0.7072 0.5379 0.6796   -0.07748
 C 0.8261 0.5089 0.584   -0.104528
 C 0.729 0.391 0.4366   0.724197
 O 0.4721 0.235 0.0916   -0.656299
 O 0.7732 0.1386 0.0466   -0.63618
 O 0.3423 0.9961 0.3504   -0.669536
 O 0.041 0.0735 0.4036   -0.610341
 O 0.1726 0.2147 0.2132   -1.011934
 O 0.9721 0.8566 0.0916   -0.656352
 O 0.2732 0.908 0.0466   -0.636118
 O 0.8423 0.3543 0.3504   -0.669536
 O 0.541 0.3301 0.4036   -0.610035
 O 0.6726 0.9985 0.2132   -1.012181
