{'_ref': 'TBD', '_srcid': 'CAKYAQ_clean', 'submitters': [{'name': 'Dalar Nazarian Jeff Camp and David Sholl', 'email': 'dalar@gatech.edu jcamp6@gatech.edu'}], '_method': 'VASP DFT with PBE;DDEC'}
data_SrH14C8(SO2)2
_symmetry_space_group_name_H-M   'P 1'
_cell_length_a   11.07110024
_cell_length_b   11.07109952
_cell_length_c   11.62234809
_cell_angle_alpha   117.99783495
_cell_angle_beta   117.99783462
_cell_angle_gamma   90.82340229
_symmetry_Int_Tables_number   1
_chemical_formula_structural   SrH14C8(SO2)2
_chemical_formula_sum   'Sr2 H28 C16 S4 O8'
_cell_volume   1059.07363291
_cell_formula_units_Z   2
loop_
 _symmetry_equiv_pos_site_id
 _symmetry_equiv_pos_as_xyz
  1  'x, y, z'
loop_
 _atom_site_label
 _atom_site_fract_x
 _atom_site_fract_y
 _atom_site_fract_z
 _atom_site_charge
 Sr 0.73354 0.26646 0.0   1.530057
 Sr 0.48354 0.51646 0.5   1.530247
 H 0.1423 0.2541 0.3936   0.050974
 H 0.9321 0.9917 0.1252   0.119873
 H 0.0899 0.0427 0.1644   0.126046
 H 0.0688 0.0072 0.2736   0.134119
 H 0.9672 0.1754 0.426   0.132475
 H 0.955 0.3184 0.4242   0.130023
 H 0.8439 0.1663 0.274   0.123338
 H 0.7459 0.8577 0.6064   0.050974
 H 0.0083 0.0679 0.8748   0.119874
 H 0.9573 0.9101 0.8356   0.126047
 H 0.9928 0.9312 0.7264   0.134121
 H 0.8246 0.0328 0.574   0.132472
 H 0.6816 0.045 0.5758   0.130017
 H 0.8337 0.1561 0.726   0.123337
 H 0.8895 0.5013 0.8936   0.050688
 H 0.8835 0.4431 0.6252   0.119475
 H 0.8717 0.3245 0.6644   0.125792
 H 0.0164 0.4548 0.7736   0.134057
 H 0.000599999999999 0.7088 0.926   0.131813
 H 0.8558 0.7192 0.9242   0.130515
 H 0.8577 0.6801 0.774   0.123216
 H 0.4987 0.1105 0.1064   0.050688
 H 0.5569 0.1165 0.3748   0.119475
 H 0.6755 0.1283 0.3356   0.125793
 H 0.5452 0.9836 0.2264   0.134059
 H 0.2912 0.9994 0.074   0.131811
 H 0.2808 0.1442 0.0758   0.130507
 H 0.3199 0.1423 0.226   0.123216
 C 0.6612 0.8992 0.7822   0.685746
 C 0.0412 0.1986 0.3042   0.3586
 C 0.0323 0.0473 0.2088   -0.42709
 C 0.9434 0.216 0.362   -0.436205
 C 0.1008 0.3388 0.2178   0.685746
 C 0.8014 0.9588 0.6958   0.358598
 C 0.9527 0.9677 0.7912   -0.427091
 C 0.784 0.0566 0.638   -0.436196
 C 0.633 0.371 0.2822   0.685468
 C 0.8556 0.513 0.8042   0.359724
 C 0.9115 0.4265 0.7088   -0.42663
 C 0.896 0.6686 0.862   -0.436195
 C 0.629 0.367 0.7178   0.685468
 C 0.487 0.1444 0.1958   0.359725
 C 0.5735 0.0885 0.2912   -0.426632
 C 0.3314 0.104 0.138   -0.436188
 S 0.60989 0.96545 0.91154   -0.689479
 S 0.03455 0.39011 0.08846   -0.689479
 S 0.69609 0.55165 0.41154   -0.689523
 S 0.44835 0.30391 0.58846   -0.689522
 O 0.6335 0.7743 0.6858   -0.639638
 O 0.7406 0.0048 0.7934   -0.433942
 O 0.2257 0.3665 0.3142   -0.639638
 O 0.9952 0.2594 0.2066   -0.433942
 O 0.6615 0.3023 0.1858   -0.639141
 O 0.5386 0.3028 0.2934   -0.434251
 O 0.6977 0.3385 0.8142   -0.639141
 O 0.6972 0.4614 0.7066   -0.434251
