{'_ref': 'TBD', '_srcid': 'CAKYAQ_clean', 'submitters': [{'name': 'Dalar Nazarian Jeff Camp and David Sholl', 'email': 'dalar@gatech.edu jcamp6@gatech.edu'}], '_method': 'VASP DFT with PBE;DDEC'}
data_MnAg2H4(C5N3)2
_symmetry_space_group_name_H-M   'P 1'
_cell_length_a   7.58310000
_cell_length_b   13.79890000
_cell_length_c   31.08640000
_cell_angle_alpha   90.00000000
_cell_angle_beta   90.00000000
_cell_angle_gamma   90.00000000
_symmetry_Int_Tables_number   1
_chemical_formula_structural   MnAg2H4(C5N3)2
_chemical_formula_sum   'Mn8 Ag16 H32 C80 N48'
_cell_volume   3252.83235738
_cell_formula_units_Z   8
loop_
 _symmetry_equiv_pos_site_id
 _symmetry_equiv_pos_as_xyz
  1  'x, y, z'
loop_
 _atom_site_label
 _atom_site_fract_x
 _atom_site_fract_y
 _atom_site_fract_z
 _atom_site_charge
 Mn 0.946 0.08702 0.25   1.199896
 Mn 0.554 0.58702 0.75   1.199896
 Mn 0.054 0.91298 0.75   1.199895
 Mn 0.446 0.41298 0.25   1.199895
 Mn 0.5 0.5 0.5   0.805242
 Mn 0.0 0.0 0.5   0.805242
 Mn 0.5 0.5 0.0   0.805242
 Mn 0.0 0.0 0.0   0.805242
 Ag 0.49585 0.05619 0.38129   0.173069
 Ag 0.23704 0.24206 0.38974   0.169387
 Ag 0.00415 0.55619 0.61871   0.173069
 Ag 0.26296 0.74206 0.61026   0.169387
 Ag 0.50415 0.94381 0.88129   0.173069
 Ag 0.76296 0.75794 0.88974   0.169387
 Ag 0.99585 0.44381 0.11871   0.173069
 Ag 0.73704 0.25794 0.11026   0.169387
 Ag 0.50415 0.94381 0.61871   0.173069
 Ag 0.76296 0.75794 0.61026   0.169386
 Ag 0.99585 0.44381 0.38129   0.173069
 Ag 0.73704 0.25794 0.38974   0.169386
 Ag 0.49585 0.05619 0.11871   0.173069
 Ag 0.23704 0.24206 0.11026   0.169386
 Ag 0.00415 0.55619 0.88129   0.173069
 Ag 0.26296 0.74206 0.88974   0.169386
 H 0.6437 0.3713 0.6541   0.145882
 H 0.6963 0.1676 0.563   0.13259
 H 0.5743 0.4799 0.601   0.083335
 H 0.6368 0.2836 0.5124   0.082928
 H 0.8563 0.8713 0.3459   0.145882
 H 0.8037 0.6676 0.437   0.13259
 H 0.9257 0.9799 0.399   0.083335
 H 0.8632 0.7836 0.4876   0.082928
 H 0.3563 0.6287 0.1541   0.145882
 H 0.3037 0.8324 0.063   0.13259
 H 0.4257 0.5201 0.101   0.083335
 H 0.3632 0.7164 0.0124   0.082928
 H 0.1437 0.1287 0.8459   0.145882
 H 0.1963 0.3324 0.937   0.13259
 H 0.0743 0.0201 0.899   0.083335
 H 0.1368 0.2164 0.9876   0.082928
 H 0.3563 0.6287 0.3459   0.145882
 H 0.3037 0.8324 0.437   0.13259
 H 0.4257 0.5201 0.399   0.083335
 H 0.3632 0.7164 0.4876   0.082928
 H 0.1437 0.1287 0.6541   0.145882
 H 0.1963 0.3324 0.563   0.13259
 H 0.0743 0.0201 0.601   0.083335
 H 0.1368 0.2164 0.5124   0.082928
 H 0.6437 0.3713 0.8459   0.145882
 H 0.6963 0.1676 0.937   0.13259
 H 0.5743 0.4799 0.899   0.083335
 H 0.6368 0.2836 0.9876   0.082928
 H 0.8563 0.8713 0.1541   0.145882
 H 0.8037 0.6676 0.063   0.13259
 H 0.9257 0.9799 0.101   0.083335
 H 0.8632 0.7836 0.0124   0.082928
 C 0.6572 0.0565 0.32827   0.065833
 C 0.3362 0.03923 0.43411   -0.016957
 C 0.6395 0.3518 0.62551   -0.165388
 C 0.7083 0.1855 0.64724   0.286514
 C 0.6726 0.2567 0.61396   0.051255
 C 0.6722 0.231 0.57135   -0.164309
 C 0.6001 0.4163 0.59338   0.162833
 C 0.1628 0.16644 0.33561   0.05545
 C 0.3194 0.3274 0.44014   -0.017424
 C 0.6352 0.30075 0.54134   0.174182
 C 0.8428 0.5565 0.67173   0.065833
 C 0.1638 0.53923 0.56589   -0.016957
 C 0.8605 0.8518 0.37449   -0.165388
 C 0.7917 0.6855 0.35276   0.286514
 C 0.8274 0.7567 0.38604   0.051255
 C 0.8278 0.731 0.42865   -0.164309
 C 0.8999 0.9163 0.40662   0.162833
 C 0.3372 0.66644 0.66439   0.05545
 C 0.1806 0.8274 0.55986   -0.017424
 C 0.8648 0.80075 0.45866   0.174182
 C 0.3428 0.9435 0.82827   0.065833
 C 0.6638 0.96077 0.93411   -0.016957
 C 0.3605 0.6482 0.12551   -0.165388
 C 0.2917 0.8145 0.14724   0.286514
 C 0.3274 0.7433 0.11396   0.051255
 C 0.3278 0.769 0.07135   -0.164309
 C 0.3999 0.5837 0.09338   0.162833
 C 0.8372 0.83356 0.83561   0.05545
 C 0.6806 0.6726 0.94014   -0.017424
 C 0.3648 0.69925 0.04134   0.174182
 C 0.1572 0.4435 0.17173   0.065833
 C 0.8362 0.46077 0.06589   -0.016957
 C 0.1395 0.1482 0.87449   -0.165388
 C 0.2083 0.3145 0.85276   0.286514
 C 0.1726 0.2433 0.88604   0.051255
 C 0.1722 0.269 0.92865   -0.164309
 C 0.1001 0.0837 0.90662   0.162833
 C 0.6628 0.33356 0.16439   0.05545
 C 0.8194 0.1726 0.05986   -0.017424
 C 0.1352 0.19925 0.95866   0.174182
 C 0.3428 0.9435 0.67173   0.065833
 C 0.6638 0.96077 0.56589   -0.016957
 C 0.3605 0.6482 0.37449   -0.165388
 C 0.2917 0.8145 0.35276   0.286515
 C 0.3274 0.7433 0.38604   0.051255
 C 0.3278 0.769 0.42865   -0.164308
 C 0.3999 0.5837 0.40662   0.162833
 C 0.8372 0.83356 0.66439   0.05545
 C 0.6806 0.6726 0.55986   -0.017424
 C 0.3648 0.69925 0.45866   0.174182
 C 0.1572 0.4435 0.32827   0.065833
 C 0.8362 0.46077 0.43411   -0.016957
 C 0.1395 0.1482 0.62551   -0.165388
 C 0.2083 0.3145 0.64724   0.286515
 C 0.1726 0.2433 0.61396   0.051255
 C 0.1722 0.269 0.57135   -0.164308
 C 0.1001 0.0837 0.59338   0.162833
 C 0.6628 0.33356 0.33561   0.05545
 C 0.8194 0.1726 0.44014   -0.017424
 C 0.1352 0.19925 0.54134   0.174182
 C 0.6572 0.0565 0.17173   0.065833
 C 0.3362 0.03923 0.06589   -0.016957
 C 0.6395 0.3518 0.87449   -0.165388
 C 0.7083 0.1855 0.85276   0.286515
 C 0.6726 0.2567 0.88604   0.051255
 C 0.6722 0.231 0.92865   -0.164308
 C 0.6001 0.4163 0.90662   0.162833
 C 0.1628 0.16644 0.16439   0.05545
 C 0.3194 0.3274 0.05986   -0.017424
 C 0.6352 0.30075 0.95866   0.174182
 C 0.8428 0.5565 0.82827   0.065833
 C 0.1638 0.53923 0.93411   -0.016957
 C 0.8605 0.8518 0.12551   -0.165388
 C 0.7917 0.6855 0.14724   0.286515
 C 0.8274 0.7567 0.11396   0.051255
 C 0.8278 0.731 0.07135   -0.164308
 C 0.8999 0.9163 0.09338   0.162833
 C 0.3372 0.66644 0.83561   0.05545
 C 0.1806 0.8274 0.94014   -0.017424
 C 0.8648 0.80075 0.04134   0.174182
 N 0.7508 0.0556 0.29984   -0.441455
 N 0.3702 0.37895 0.46571   -0.331288
 N 0.7367 0.1309 0.67349   -0.369106
 N 0.5968 0.39247 0.55181   -0.306269
 N 0.2353 0.02769 0.46067   -0.33307
 N 0.1209 0.13005 0.3046   -0.44056
 N 0.7492 0.5556 0.70016   -0.441455
 N 0.1298 0.87895 0.53429   -0.331288
 N 0.7633 0.6309 0.32651   -0.369106
 N 0.9032 0.89247 0.44819   -0.306269
 N 0.2647 0.52769 0.53933   -0.33307
 N 0.3791 0.63005 0.6954   -0.44056
 N 0.2492 0.9444 0.79984   -0.441455
 N 0.6298 0.62105 0.96571   -0.331288
 N 0.2633 0.8691 0.17349   -0.369106
 N 0.4032 0.60753 0.05181   -0.306269
 N 0.7647 0.97231 0.96067   -0.33307
 N 0.8791 0.86995 0.8046   -0.44056
 N 0.2508 0.4444 0.20016   -0.441455
 N 0.8702 0.12105 0.03429   -0.331288
 N 0.2367 0.3691 0.82651   -0.369106
 N 0.0968 0.10753 0.94819   -0.306269
 N 0.7353 0.47231 0.03933   -0.33307
 N 0.6209 0.36995 0.1954   -0.44056
 N 0.2492 0.9444 0.70016   -0.441455
 N 0.6298 0.62105 0.53429   -0.331288
 N 0.2633 0.8691 0.32651   -0.369106
 N 0.4032 0.60753 0.44819   -0.306269
 N 0.7647 0.97231 0.53933   -0.33307
 N 0.8791 0.86995 0.6954   -0.44056
 N 0.2508 0.4444 0.29984   -0.441455
 N 0.8702 0.12105 0.46571   -0.331288
 N 0.2367 0.3691 0.67349   -0.369106
 N 0.0968 0.10753 0.55181   -0.306269
 N 0.7353 0.47231 0.46067   -0.33307
 N 0.6209 0.36995 0.3046   -0.44056
 N 0.7508 0.0556 0.20016   -0.441455
 N 0.3702 0.37895 0.03429   -0.331288
 N 0.7367 0.1309 0.82651   -0.369106
 N 0.5968 0.39247 0.94819   -0.306269
 N 0.2353 0.02769 0.03933   -0.33307
 N 0.1209 0.13005 0.1954   -0.44056
 N 0.7492 0.5556 0.79984   -0.441455
 N 0.1298 0.87895 0.96571   -0.331288
 N 0.7633 0.6309 0.17349   -0.369106
 N 0.9032 0.89247 0.05181   -0.306269
 N 0.2647 0.52769 0.96067   -0.33307
 N 0.3791 0.63005 0.8046   -0.44056
