{'_ref': 'TBD', '_srcid': 'CAKYAQ_clean', 'submitters': [{'name': 'Dalar Nazarian Jeff Camp and David Sholl', 'email': 'dalar@gatech.edu jcamp6@gatech.edu'}], '_method': 'VASP DFT with PBE;DDEC'}
data_CuH10(C2O)4
_symmetry_space_group_name_H-M   'P 1'
_cell_length_a   5.14000008
_cell_length_b   9.85599956
_cell_length_c   10.67300000
_cell_angle_alpha   77.30999969
_cell_angle_beta   80.69700276
_cell_angle_gamma   85.02399947
_symmetry_Int_Tables_number   1
_chemical_formula_structural   CuH10(C2O)4
_chemical_formula_sum   'Cu2 H20 C16 O8'
_cell_volume   519.809623333
_cell_formula_units_Z   2
loop_
 _symmetry_equiv_pos_site_id
 _symmetry_equiv_pos_as_xyz
  1  'x, y, z'
loop_
 _atom_site_label
 _atom_site_fract_x
 _atom_site_fract_y
 _atom_site_fract_z
 _atom_site_charge
 Cu 0.7925 0.92974 0.5168   0.942199
 Cu 0.2075 0.07026 0.4832   0.942198
 H 0.266 0.0345 0.0814   0.074644
 H 0.8817 0.8747 0.1212   0.070344
 H 0.1454 0.8012 0.1542   0.089024
 H 0.7364 0.0985 0.0995   0.065794
 H 0.9508 0.2064 0.0765   0.081055
 H 0.5688 0.6537 0.5687   0.077231
 H 0.1657 0.5064 0.5724   0.073554
 H 0.2219 0.5141 0.7145   0.080886
 H 0.3286 0.6088 0.3671   0.06631
 H 0.6206 0.6998 0.3434   0.105401
 H 0.734 0.9655 0.9186   0.074641
 H 0.1183 0.1253 0.8788   0.070342
 H 0.8546 0.1988 0.8458   0.089026
 H 0.2636 0.9015 0.9005   0.065794
 H 0.0492 0.7936 0.9235   0.08106
 H 0.4312 0.3463 0.4313   0.077229
 H 0.8343 0.4936 0.4276   0.073551
 H 0.7781 0.4859 0.2855   0.080887
 H 0.6714 0.3912 0.6329   0.066306
 H 0.3794 0.3002 0.6566   0.1054
 C 0.103 0.0047 0.1189   -0.117922
 C 0.066 0.871 0.0876   -0.159779
 C 0.922 0.1187 0.0596   -0.096708
 C 0.073 0.002 0.2625   0.67004
 C 0.438 0.6353 0.5349   -0.117365
 C 0.302 0.507 0.6155   -0.12207
 C 0.522 0.6244 0.3956   -0.136897
 C 0.2703 0.7669 0.5379   0.687385
 C 0.897 0.9953 0.8811   -0.117921
 C 0.934 0.129 0.9124   -0.159777
 C 0.078 0.8813 0.9404   -0.096707
 C 0.927 0.998 0.7375   0.670039
 C 0.562 0.3647 0.4651   -0.117365
 C 0.698 0.493 0.3845   -0.122074
 C 0.478 0.3756 0.6044   -0.1369
 C 0.7297 0.2331 0.4621   0.687384
 O 0.8823 0.9375 0.3332   -0.577534
 O 0.2365 0.062 0.3025   -0.567914
 O 0.378 0.88 0.5205   -0.613226
 O 0.0226 0.7617 0.5462   -0.574445
 O 0.1177 0.0625 0.6668   -0.577534
 O 0.7635 0.938 0.6975   -0.567914
 O 0.622 0.12 0.4795   -0.613225
 O 0.9774 0.2383 0.4538   -0.574445
