{'_ref': 'TBD', '_srcid': 'CAKYAQ_clean', 'submitters': [{'name': 'Dalar Nazarian Jeff Camp and David Sholl', 'email': 'dalar@gatech.edu jcamp6@gatech.edu'}], '_method': 'VASP DFT with PBE;DDEC'}
data_Cd2H25C29(N2O3)2
_symmetry_space_group_name_H-M   'P 1'
_cell_length_a   14.49790000
_cell_length_b   15.47160000
_cell_length_c   17.51250000
_cell_angle_alpha   90.00000000
_cell_angle_beta   90.00000000
_cell_angle_gamma   90.00000000
_symmetry_Int_Tables_number   1
_chemical_formula_structural   Cd2H25C29(N2O3)2
_chemical_formula_sum   'Cd8 H100 C116 N16 O24'
_cell_volume   3928.15374007
_cell_formula_units_Z   4
loop_
 _symmetry_equiv_pos_site_id
 _symmetry_equiv_pos_as_xyz
  1  'x, y, z'
loop_
 _atom_site_label
 _atom_site_fract_x
 _atom_site_fract_y
 _atom_site_fract_z
 _atom_site_charge
 Cd 0.87214 0.77297 0.95928   0.890097
 Cd 0.93002 0.22697 0.42415   0.854002
 Cd 0.12786 0.27297 0.04072   0.890097
 Cd 0.06998 0.72697 0.57585   0.854002
 Cd 0.37214 0.77297 0.54072   0.890098
 Cd 0.43002 0.22697 0.07585   0.854002
 Cd 0.62786 0.27297 0.45928   0.890098
 Cd 0.56998 0.72697 0.92415   0.854002
 H 0.1192 0.6368 0.8352   0.084189
 H 0.1125 0.5672 0.9855   0.073234
 H 0.0578 0.5297 0.9156   0.088561
 H 0.1939 0.4903 0.8558   0.094022
 H 0.338 0.5097 0.9107   0.074542
 H 0.2939 0.5538 0.9826   0.073045
 H 0.2902 0.6235 0.8332   0.086394
 H 0.2131 0.7028 0.9642   0.084641
 H 0.2153 0.7452 0.8828   0.063111
 H 0.891 0.7409 0.1433   0.081297
 H 0.899 0.6366 0.2357   0.129387
 H 0.8611 0.46 0.0728   0.143529
 H 0.8542 0.5703 0.9851   0.084975
 H 0.9372 0.2639 0.2461   0.081688
 H 0.9186 0.3663 0.1524   0.129908
 H 0.8468 0.5351 0.3164   0.132228
 H 0.8631 0.426 0.4022   0.069355
 H 0.8826 0.9706 0.9019   0.070925
 H 0.891 0.0594 0.7976   0.126574
 H 0.8515 0.8512 0.6655   0.128042
 H 0.8453 0.769 0.7739   0.080663
 H 0.8551 0.218 0.5946   0.078337
 H 0.8366 0.1329 0.6988   0.128324
 H 0.9306 0.9334 0.5751   0.129971
 H 0.9455 0.0267 0.4744   0.079312
 H 0.8808 0.1368 0.1648   0.084189
 H 0.8875 0.0672 0.0145   0.073234
 H 0.9422 0.0297 0.0844   0.088561
 H 0.8061 0.9903 0.1442   0.094022
 H 0.662 0.0097 0.0893   0.074542
 H 0.7061 0.0538 0.0174   0.073045
 H 0.7098 0.1235 0.1668   0.086394
 H 0.7869 0.2028 0.0358   0.084642
 H 0.7847 0.2452 0.1172   0.063111
 H 0.109 0.2409 0.8567   0.081296
 H 0.101 0.1366 0.7643   0.129387
 H 0.1389 0.96 0.9272   0.143529
 H 0.1458 0.0703 0.0149   0.084975
 H 0.0628 0.7639 0.7539   0.081688
 H 0.0814 0.8663 0.8476   0.129908
 H 0.1532 0.0351 0.6836   0.132228
 H 0.1369 0.926 0.5978   0.069355
 H 0.1174 0.4706 0.0981   0.070925
 H 0.109 0.5594 0.2024   0.126574
 H 0.1485 0.3512 0.3345   0.128042
 H 0.1547 0.269 0.2261   0.080663
 H 0.1449 0.718 0.4054   0.078337
 H 0.1634 0.6329 0.3012   0.128324
 H 0.0694 0.4334 0.4249   0.129971
 H 0.0545 0.5267 0.5256   0.079312
 H 0.6192 0.6368 0.6648   0.084189
 H 0.6125 0.5672 0.5145   0.073234
 H 0.5578 0.5297 0.5844   0.088561
 H 0.6939 0.4903 0.6442   0.094022
 H 0.838 0.5097 0.5893   0.074541
 H 0.7939 0.5538 0.5174   0.073045
 H 0.7902 0.6235 0.6668   0.086394
 H 0.7131 0.7028 0.5358   0.084642
 H 0.7153 0.7452 0.6172   0.063111
 H 0.391 0.7409 0.3567   0.081297
 H 0.399 0.6366 0.2643   0.129387
 H 0.3611 0.46 0.4272   0.143529
 H 0.3542 0.5703 0.5149   0.084975
 H 0.4372 0.2639 0.2539   0.081688
 H 0.4186 0.3663 0.3476   0.129908
 H 0.3468 0.5351 0.1836   0.132228
 H 0.3631 0.426 0.0978   0.069355
 H 0.3826 0.9706 0.5981   0.070925
 H 0.391 0.0594 0.7024   0.126574
 H 0.3515 0.8512 0.8345   0.128042
 H 0.3453 0.769 0.7261   0.080663
 H 0.3551 0.218 0.9054   0.078337
 H 0.3366 0.1329 0.8012   0.128324
 H 0.4306 0.9334 0.9249   0.129971
 H 0.4455 0.0267 0.0256   0.079312
 H 0.3808 0.1368 0.3352   0.084189
 H 0.3875 0.0672 0.4855   0.073234
 H 0.4422 0.0297 0.4156   0.088561
 H 0.3061 0.9903 0.3558   0.094022
 H 0.162 0.0097 0.4107   0.074541
 H 0.2061 0.0538 0.4826   0.073045
 H 0.2098 0.1235 0.3332   0.086394
 H 0.2869 0.2028 0.4642   0.084642
 H 0.2847 0.2452 0.3828   0.063111
 H 0.609 0.2409 0.6433   0.081296
 H 0.601 0.1366 0.7357   0.129387
 H 0.6389 0.96 0.5728   0.143529
 H 0.6458 0.0703 0.4851   0.084975
 H 0.5628 0.7639 0.7461   0.081688
 H 0.5814 0.8663 0.6524   0.129908
 H 0.6532 0.0351 0.8164   0.132228
 H 0.6369 0.926 0.9022   0.069355
 H 0.6174 0.4706 0.4019   0.070925
 H 0.609 0.5594 0.2976   0.126574
 H 0.6485 0.3512 0.1655   0.128042
 H 0.6547 0.269 0.2739   0.080663
 H 0.6449 0.718 0.0946   0.078337
 H 0.6634 0.6329 0.1988   0.128324
 H 0.5694 0.4334 0.0751   0.129971
 H 0.5545 0.5267 0.9744   0.079312
 C 0.1205 0.6468 0.8904   -0.15994
 C 0.1145 0.5584 0.9307   -0.116745
 C 0.1961 0.5011 0.9109   -0.152632
 C 0.2875 0.5459 0.9279   -0.104879
 C 0.2933 0.6337 0.8883   -0.157599
 C 0.2112 0.6907 0.9099   -0.123711
 C 0.0358 0.6986 0.9115   0.6597
 C 0.186 0.4136 0.9511   0.686713
 C 0.3856 0.6771 0.9052   0.698096
 C 0.8849 0.6834 0.1287   0.180883
 C 0.8896 0.6208 0.1851   -0.226255
 C 0.8803 0.535 0.1655   0.078619
 C 0.8673 0.517 0.089   -0.190499
 C 0.8634 0.5837 0.0364   0.154954
 C 0.9186 0.3192 0.2601   0.165054
 C 0.909 0.381 0.2033   -0.188131
 C 0.8849 0.4645 0.223   0.069558
 C 0.8658 0.4806 0.3003   -0.20884
 C 0.8759 0.4145 0.3512   0.174131
 C 0.8765 0.9463 0.8536   0.172462
 C 0.8819 0.000399999999999 0.791   -0.219543
 C 0.8735 0.9658 0.7179   0.07427
 C 0.8586 0.8773 0.7129   -0.205092
 C 0.8545 0.8282 0.7787   0.162814
 C 0.8716 0.16 0.5912   0.155298
 C 0.8598 0.1093 0.6538   -0.205737
 C 0.8822 0.0224 0.6506   0.077863
 C 0.9152 0.9913 0.5809   -0.215127
 C 0.9246 0.0485 0.5208   0.177518
 C 0.8795 0.1468 0.1096   -0.15994
 C 0.8855 0.0584 0.0693   -0.116744
 C 0.8039 0.0011 0.0891   -0.152632
 C 0.7125 0.0459 0.0721   -0.104879
 C 0.7067 0.1337 0.1117   -0.157599
 C 0.7888 0.1907 0.0901   -0.123711
 C 0.9642 0.1986 0.0885   0.6597
 C 0.814 0.9136 0.0489   0.686713
 C 0.6144 0.1771 0.0948   0.698096
 C 0.1151 0.1834 0.8713   0.180883
 C 0.1104 0.1208 0.8149   -0.226255
 C 0.1197 0.035 0.8345   0.078619
 C 0.1327 0.017 0.911   -0.190499
 C 0.1366 0.0837 0.9636   0.154954
 C 0.0814 0.8192 0.7399   0.165055
 C 0.091 0.881 0.7967   -0.188131
 C 0.1151 0.9645 0.777   0.069558
 C 0.1342 0.9806 0.6997   -0.20884
 C 0.1241 0.9145 0.6488   0.174131
 C 0.1235 0.4463 0.1464   0.172462
 C 0.1181 0.5004 0.209   -0.219543
 C 0.1265 0.4658 0.2821   0.07427
 C 0.1414 0.3773 0.2871   -0.205092
 C 0.1455 0.3282 0.2213   0.162814
 C 0.1284 0.66 0.4088   0.155298
 C 0.1402 0.6093 0.3462   -0.205737
 C 0.1178 0.5224 0.3494   0.077863
 C 0.0848 0.4913 0.4191   -0.215127
 C 0.0754 0.5485 0.4792   0.177518
 C 0.6205 0.6468 0.6096   -0.15994
 C 0.6145 0.5584 0.5693   -0.116744
 C 0.6961 0.5011 0.5891   -0.152633
 C 0.7875 0.5459 0.5721   -0.104878
 C 0.7933 0.6337 0.6117   -0.157599
 C 0.7112 0.6907 0.5901   -0.123711
 C 0.5358 0.6986 0.5885   0.6597
 C 0.686 0.4136 0.5489   0.686713
 C 0.8856 0.6771 0.5948   0.698096
 C 0.3849 0.6834 0.3713   0.180883
 C 0.3896 0.6208 0.3149   -0.226255
 C 0.3803 0.535 0.3345   0.078619
 C 0.3673 0.517 0.411   -0.190499
 C 0.3634 0.5837 0.4636   0.154954
 C 0.4186 0.3192 0.2399   0.165055
 C 0.409 0.381 0.2967   -0.188131
 C 0.3849 0.4645 0.277   0.069558
 C 0.3658 0.4806 0.1997   -0.20884
 C 0.3759 0.4145 0.1488   0.174131
 C 0.3765 0.9463 0.6464   0.172462
 C 0.3819 0.000399999999999 0.709   -0.219543
 C 0.3735 0.9658 0.7821   0.07427
 C 0.3586 0.8773 0.7871   -0.205092
 C 0.3545 0.8282 0.7213   0.162814
 C 0.3716 0.16 0.9088   0.155298
 C 0.3598 0.1093 0.8462   -0.205737
 C 0.3822 0.0224 0.8494   0.077863
 C 0.4152 0.9913 0.9191   -0.215127
 C 0.4246 0.0485 0.9792   0.177518
 C 0.3795 0.1468 0.3904   -0.15994
 C 0.3855 0.0584 0.4307   -0.116744
 C 0.3039 0.0011 0.4109   -0.152633
 C 0.2125 0.0459 0.4279   -0.104878
 C 0.2067 0.1337 0.3883   -0.157599
 C 0.2888 0.1907 0.4099   -0.123711
 C 0.4642 0.1986 0.4115   0.6597
 C 0.314 0.9136 0.4511   0.686713
 C 0.1144 0.1771 0.4052   0.698096
 C 0.6151 0.1834 0.6287   0.180883
 C 0.6104 0.1208 0.6851   -0.226255
 C 0.6197 0.035 0.6655   0.078619
 C 0.6327 0.017 0.589   -0.190499
 C 0.6366 0.0837 0.5364   0.154954
 C 0.5814 0.8192 0.7601   0.165055
 C 0.591 0.881 0.7033   -0.188131
 C 0.6151 0.9645 0.723   0.069558
 C 0.6342 0.9806 0.8003   -0.20884
 C 0.6241 0.9145 0.8512   0.174131
 C 0.6235 0.4463 0.3536   0.172462
 C 0.6181 0.5004 0.291   -0.219543
 C 0.6265 0.4658 0.2179   0.074271
 C 0.6414 0.3773 0.2129   -0.205092
 C 0.6455 0.3282 0.2787   0.162814
 C 0.6284 0.66 0.0912   0.155298
 C 0.6402 0.6093 0.1538   -0.205737
 C 0.6178 0.5224 0.1506   0.077863
 C 0.5848 0.4913 0.0809   -0.215127
 C 0.5754 0.5485 0.0208   0.177518
 N 0.8725 0.6668 0.0564   -0.370501
 N 0.9028 0.3348 0.3335   -0.406651
 N 0.863 0.861 0.8488   -0.383197
 N 0.906 0.131 0.5245   -0.396899
 N 0.1275 0.1668 0.9436   -0.370501
 N 0.0972 0.8348 0.6665   -0.406651
 N 0.137 0.361 0.1512   -0.383197
 N 0.094 0.631 0.4755   -0.396899
 N 0.3725 0.6668 0.4436   -0.370501
 N 0.4028 0.3348 0.1665   -0.406651
 N 0.363 0.861 0.6512   -0.383197
 N 0.406 0.131 0.9755   -0.396899
 N 0.6275 0.1668 0.5564   -0.370501
 N 0.5972 0.8348 0.8335   -0.406651
 N 0.637 0.361 0.3488   -0.383197
 N 0.594 0.631 0.0245   -0.396899
 O 0.9594 0.674 0.88547   -0.63403
 O 0.0422 0.7623 0.9551   -0.60772
 O 0.1084 0.3863 0.9643   -0.595911
 O 0.2539 0.3729 0.9742   -0.690168
 O 0.4497 0.6679 0.8595   -0.634716
 O 0.3977 0.7179 0.9638   -0.633762
 O 0.0406 0.174 0.11453   -0.63403
 O 0.9578 0.2623 0.0449   -0.607721
 O 0.8916 0.8863 0.0357   -0.595911
 O 0.7461 0.8729 0.0258   -0.690168
 O 0.5503 0.1679 0.1405   -0.634716
 O 0.6023 0.2179 0.0362   -0.633762
 O 0.4594 0.674 0.61453   -0.634031
 O 0.5422 0.7623 0.5449   -0.60772
 O 0.6084 0.3863 0.5357   -0.595911
 O 0.7539 0.3729 0.5258   -0.690168
 O 0.9497 0.6679 0.6405   -0.634716
 O 0.8977 0.7179 0.5362   -0.633762
 O 0.5406 0.174 0.38547   -0.634031
 O 0.4578 0.2623 0.4551   -0.607721
 O 0.3916 0.8863 0.4643   -0.595911
 O 0.2461 0.8729 0.4742   -0.690168
 O 0.0503 0.1679 0.3595   -0.634716
 O 0.1023 0.2179 0.4638   -0.633762
