{'_ref': 'TBD', '_srcid': 'CAKYAQ_clean', 'submitters': [{'name': 'Dalar Nazarian Jeff Camp and David Sholl', 'email': 'dalar@gatech.edu jcamp6@gatech.edu'}], '_method': 'VASP DFT with PBE;DDEC'}
data_CuH2(C3O2)2
_symmetry_space_group_name_H-M   'P 1'
_cell_length_a   18.62149995
_cell_length_b   18.62149993
_cell_length_c   18.62150000
_cell_angle_alpha   59.99999987
_cell_angle_beta   59.99999991
_cell_angle_gamma   59.99999990
_symmetry_Int_Tables_number   1
_chemical_formula_structural   CuH2(C3O2)2
_chemical_formula_sum   'Cu12 H24 C72 O48'
_cell_volume   4565.92719652
_cell_formula_units_Z   12
loop_
 _symmetry_equiv_pos_site_id
 _symmetry_equiv_pos_as_xyz
  1  'x, y, z'
loop_
 _atom_site_label
 _atom_site_fract_x
 _atom_site_fract_y
 _atom_site_fract_z
 _atom_site_charge
 Cu 0.5 0.92985 0.5   0.92936
 Cu 0.92985 0.5 0.07015   0.92936
 Cu 0.5 0.07015 0.5   0.929361
 Cu 0.07015 0.5 0.92985   0.929361
 Cu 0.5 0.5 0.07015   0.92936
 Cu 0.92985 0.07015 0.5   0.929361
 Cu 0.5 0.5 0.92985   0.929361
 Cu 0.07015 0.92985 0.5   0.929361
 Cu 0.5 0.07015 0.92985   0.929361
 Cu 0.92985 0.5 0.5   0.929361
 Cu 0.5 0.92985 0.07015   0.929361
 Cu 0.07015 0.5 0.5   0.929361
 H 0.4667 0.7723 0.7723   0.116791
 H 0.7723 0.4667 0.9887   0.116791
 H 0.7723 0.9887 0.4667   0.116791
 H 0.9887 0.7723 0.7723   0.116791
 H 0.4667 0.7723 0.9887   0.116791
 H 0.7723 0.9887 0.7723   0.116791
 H 0.7723 0.4667 0.7723   0.116791
 H 0.9887 0.7723 0.4667   0.116791
 H 0.4667 0.9887 0.7723   0.116791
 H 0.7723 0.7723 0.4667   0.116791
 H 0.7723 0.7723 0.9887   0.116791
 H 0.9887 0.4667 0.7723   0.116791
 H 0.2277 0.5333 0.2277   0.11679
 H 0.5333 0.2277 0.0113   0.116791
 H 0.0113 0.2277 0.5333   0.116791
 H 0.2277 0.0113 0.2277   0.116791
 H 0.2277 0.5333 0.0113   0.116791
 H 0.0113 0.2277 0.2277   0.116791
 H 0.5333 0.2277 0.2277   0.11679
 H 0.2277 0.0113 0.5333   0.116791
 H 0.0113 0.5333 0.2277   0.116791
 H 0.2277 0.2277 0.5333   0.11679
 H 0.2277 0.2277 0.0113   0.116791
 H 0.5333 0.0113 0.2277   0.116791
 C 0.47486 0.9309 0.66334   0.687478
 C 0.46748 0.8873 0.75792   -0.167462
 C 0.9309 0.47486 0.9309   0.687478
 C 0.8873 0.46748 0.8873   -0.167462
 C 0.66334 0.9309 0.47486   0.687478
 C 0.75792 0.8873 0.46748   -0.167462
 C 0.9309 0.66334 0.9309   0.687478
 C 0.8873 0.75792 0.8873   -0.167462
 C 0.47486 0.66334 0.9309   0.687478
 C 0.46748 0.75792 0.8873   -0.167462
 C 0.9309 0.9309 0.66334   0.687478
 C 0.8873 0.8873 0.75792   -0.167462
 C 0.66334 0.47486 0.9309   0.687478
 C 0.75792 0.46748 0.8873   -0.167462
 C 0.9309 0.9309 0.47486   0.687478
 C 0.8873 0.8873 0.46748   -0.167462
 C 0.47486 0.9309 0.9309   0.687478
 C 0.46748 0.8873 0.8873   -0.167462
 C 0.9309 0.66334 0.47486   0.687478
 C 0.8873 0.75792 0.46748   -0.167462
 C 0.66334 0.9309 0.9309   0.687478
 C 0.75792 0.8873 0.8873   -0.167462
 C 0.9309 0.47486 0.66334   0.687478
 C 0.8873 0.46748 0.75792   -0.167462
 C 0.0691 0.52514 0.33666   0.687478
 C 0.1127 0.53252 0.24208   -0.167462
 C 0.52514 0.0691 0.0691   0.687478
 C 0.53252 0.1127 0.1127   -0.167462
 C 0.0691 0.33666 0.52514   0.687478
 C 0.1127 0.24208 0.53252   -0.167462
 C 0.33666 0.0691 0.0691   0.687478
 C 0.24208 0.1127 0.1127   -0.167462
 C 0.33666 0.52514 0.0691   0.687478
 C 0.24208 0.53252 0.1127   -0.167462
 C 0.0691 0.0691 0.33666   0.687478
 C 0.1127 0.1127 0.24208   -0.167462
 C 0.52514 0.33666 0.0691   0.687478
 C 0.53252 0.24208 0.1127   -0.167462
 C 0.0691 0.0691 0.52514   0.687478
 C 0.1127 0.1127 0.53252   -0.167462
 C 0.0691 0.52514 0.0691   0.687478
 C 0.1127 0.53252 0.1127   -0.167462
 C 0.33666 0.0691 0.52514   0.687478
 C 0.24208 0.1127 0.53252   -0.167462
 C 0.0691 0.33666 0.0691   0.687478
 C 0.1127 0.24208 0.1127   -0.167462
 C 0.52514 0.0691 0.33666   0.687478
 C 0.53252 0.1127 0.24208   -0.167462
 C 0.46714 0.801 0.801   0.033659
 C 0.801 0.46714 0.93086   0.033659
 C 0.801 0.93086 0.46714   0.033659
 C 0.93086 0.801 0.801   0.033658
 C 0.46714 0.801 0.93086   0.033659
 C 0.801 0.93086 0.801   0.033658
 C 0.801 0.46714 0.801   0.033659
 C 0.93086 0.801 0.46714   0.033659
 C 0.46714 0.93086 0.801   0.033659
 C 0.801 0.801 0.46714   0.033659
 C 0.801 0.801 0.93086   0.033658
 C 0.93086 0.46714 0.801   0.033659
 C 0.199 0.53286 0.199   0.033659
 C 0.53286 0.199 0.06914   0.033658
 C 0.06914 0.199 0.53286   0.033658
 C 0.199 0.06914 0.199   0.033658
 C 0.199 0.53286 0.06914   0.033658
 C 0.06914 0.199 0.199   0.033658
 C 0.53286 0.199 0.199   0.033659
 C 0.199 0.06914 0.53286   0.033658
 C 0.06914 0.53286 0.199   0.033658
 C 0.199 0.199 0.53286   0.033659
 C 0.199 0.199 0.06914   0.033658
 C 0.53286 0.06914 0.199   0.033658
 O 0.47913 0.88721 0.62641   -0.567573
 O 0.88721 0.47913 0.00725   -0.567573
 O 0.62641 0.00725 0.47913   -0.567573
 O 0.00725 0.62641 0.88721   -0.567573
 O 0.47913 0.62641 0.00725   -0.567573
 O 0.88721 0.00725 0.62641   -0.567573
 O 0.62641 0.47913 0.88721   -0.567573
 O 0.00725 0.88721 0.47913   -0.567573
 O 0.47913 0.00725 0.88721   -0.567573
 O 0.88721 0.62641 0.47913   -0.567573
 O 0.62641 0.88721 0.00725   -0.567573
 O 0.00725 0.47913 0.62641   -0.567573
 O 0.11279 0.52087 0.37359   -0.567573
 O 0.52087 0.11279 0.99275   -0.567573
 O 0.99275 0.37359 0.52087   -0.567573
 O 0.37359 0.99275 0.11279   -0.567573
 O 0.37359 0.52087 0.99275   -0.567573
 O 0.99275 0.11279 0.37359   -0.567573
 O 0.52087 0.37359 0.11279   -0.567573
 O 0.11279 0.99275 0.52087   -0.567573
 O 0.99275 0.52087 0.11279   -0.567573
 O 0.37359 0.11279 0.52087   -0.567573
 O 0.11279 0.37359 0.99275   -0.567573
 O 0.52087 0.99275 0.37359   -0.567573
 O 0.52087 0.11279 0.37359   -0.567573
 O 0.11279 0.52087 0.99275   -0.567573
 O 0.37359 0.99275 0.52087   -0.567573
 O 0.99275 0.37359 0.11279   -0.567573
 O 0.52087 0.37359 0.99275   -0.567573
 O 0.11279 0.99275 0.37359   -0.567573
 O 0.37359 0.52087 0.11279   -0.567573
 O 0.99275 0.11279 0.52087   -0.567573
 O 0.52087 0.99275 0.11279   -0.567573
 O 0.11279 0.37359 0.52087   -0.567573
 O 0.37359 0.11279 0.99275   -0.567573
 O 0.99275 0.52087 0.37359   -0.567573
 O 0.88721 0.47913 0.62641   -0.567573
 O 0.47913 0.88721 0.00725   -0.567573
 O 0.00725 0.62641 0.47913   -0.567573
 O 0.62641 0.00725 0.88721   -0.567573
 O 0.62641 0.47913 0.00725   -0.567573
 O 0.00725 0.88721 0.62641   -0.567573
 O 0.47913 0.62641 0.88721   -0.567573
 O 0.88721 0.00725 0.47913   -0.567573
 O 0.00725 0.47913 0.88721   -0.567573
 O 0.62641 0.88721 0.47913   -0.567573
 O 0.88721 0.62641 0.00725   -0.567573
 O 0.47913 0.00725 0.62641   -0.567573
