{'_ref': 'TBD', '_srcid': 'CAKYAQ_clean', 'submitters': [{'name': 'Dalar Nazarian Jeff Camp and David Sholl', 'email': 'dalar@gatech.edu jcamp6@gatech.edu'}], '_method': 'VASP DFT with PBE;DDEC'}
data_CuH2(C3O2)2
_symmetry_space_group_name_H-M   'P 1'
_cell_length_a   18.61380029
_cell_length_b   18.61379989
_cell_length_c   18.61380000
_cell_angle_alpha   59.99999980
_cell_angle_beta   60.00000052
_cell_angle_gamma   60.00000065
_symmetry_Int_Tables_number   1
_chemical_formula_structural   CuH2(C3O2)2
_chemical_formula_sum   'Cu12 H24 C72 O48'
_cell_volume   4560.26561742
_cell_formula_units_Z   12
loop_
 _symmetry_equiv_pos_site_id
 _symmetry_equiv_pos_as_xyz
  1  'x, y, z'
loop_
 _atom_site_label
 _atom_site_fract_x
 _atom_site_fract_y
 _atom_site_fract_z
 _atom_site_charge
 Cu 0.42984 0.0 0.57016   0.938439
 Cu 0.0 0.42984 0.0   0.938439
 Cu 0.57016 0.0 0.42984   0.938438
 Cu 0.0 0.57016 0.0   0.938439
 Cu 0.42984 0.57016 0.0   0.938439
 Cu 0.0 0.0 0.57016   0.93844
 Cu 0.57016 0.42984 0.0   0.938438
 Cu 0.0 0.0 0.42984   0.938439
 Cu 0.42984 0.0 0.0   0.93844
 Cu 0.0 0.57016 0.42984   0.938439
 Cu 0.57016 0.0 0.0   0.938439
 Cu 0.0 0.42984 0.57016   0.938439
 H 0.7281 0.0317 0.5121   0.115445
 H 0.0317 0.7281 0.7281   0.115445
 H 0.5121 0.7281 0.7281   0.115445
 H 0.7281 0.5121 0.0317   0.115445
 H 0.7281 0.5121 0.7281   0.115445
 H 0.0317 0.7281 0.5121   0.115445
 H 0.5121 0.7281 0.0317   0.115445
 H 0.7281 0.0317 0.7281   0.115445
 H 0.7281 0.7281 0.0317   0.115445
 H 0.0317 0.5121 0.7281   0.115445
 H 0.5121 0.0317 0.7281   0.115445
 H 0.7281 0.7281 0.5121   0.115445
 H 0.9683 0.2719 0.4879   0.115445
 H 0.2719 0.9683 0.2719   0.115445
 H 0.2719 0.4879 0.2719   0.115445
 H 0.4879 0.2719 0.9683   0.115445
 H 0.4879 0.2719 0.2719   0.115445
 H 0.2719 0.9683 0.4879   0.115445
 H 0.2719 0.4879 0.9683   0.115445
 H 0.9683 0.2719 0.2719   0.115445
 H 0.2719 0.2719 0.9683   0.115445
 H 0.4879 0.9683 0.2719   0.115445
 H 0.9683 0.4879 0.2719   0.115445
 H 0.2719 0.2719 0.4879   0.115445
 C 0.5691 0.02528 0.5691   0.689235
 C 0.6127 0.03228 0.6127   -0.169955
 C 0.02528 0.5691 0.83652   0.689234
 C 0.03228 0.6127 0.74232   -0.169955
 C 0.5691 0.83652 0.5691   0.689234
 C 0.6127 0.74232 0.6127   -0.169955
 C 0.83652 0.5691 0.02528   0.689235
 C 0.74232 0.6127 0.03228   -0.169956
 C 0.5691 0.5691 0.83652   0.689234
 C 0.6127 0.6127 0.74232   -0.169955
 C 0.02528 0.83652 0.5691   0.689234
 C 0.03228 0.74232 0.6127   -0.169955
 C 0.5691 0.5691 0.02528   0.689235
 C 0.6127 0.6127 0.03228   -0.169955
 C 0.83652 0.02528 0.5691   0.689235
 C 0.74232 0.03228 0.6127   -0.169956
 C 0.5691 0.83652 0.02528   0.689235
 C 0.6127 0.74232 0.03228   -0.169956
 C 0.02528 0.5691 0.5691   0.689234
 C 0.03228 0.6127 0.6127   -0.169955
 C 0.5691 0.02528 0.83652   0.689235
 C 0.6127 0.03228 0.74232   -0.169956
 C 0.83652 0.5691 0.5691   0.689235
 C 0.74232 0.6127 0.6127   -0.169955
 C 0.97472 0.4309 0.4309   0.689234
 C 0.96772 0.3873 0.3873   -0.169955
 C 0.4309 0.97472 0.16348   0.689235
 C 0.3873 0.96772 0.25768   -0.169956
 C 0.16348 0.4309 0.4309   0.689235
 C 0.25768 0.3873 0.3873   -0.169955
 C 0.4309 0.16348 0.97472   0.689234
 C 0.3873 0.25768 0.96772   -0.169956
 C 0.4309 0.4309 0.16348   0.689234
 C 0.3873 0.3873 0.25768   -0.169955
 C 0.16348 0.97472 0.4309   0.689235
 C 0.25768 0.96772 0.3873   -0.169956
 C 0.4309 0.4309 0.97472   0.689234
 C 0.3873 0.3873 0.96772   -0.169956
 C 0.97472 0.16348 0.4309   0.689234
 C 0.96772 0.25768 0.3873   -0.169956
 C 0.16348 0.4309 0.97472   0.689235
 C 0.25768 0.3873 0.96772   -0.169956
 C 0.4309 0.97472 0.4309   0.689235
 C 0.3873 0.96772 0.3873   -0.169955
 C 0.97472 0.4309 0.16348   0.689234
 C 0.96772 0.3873 0.25768   -0.169956
 C 0.4309 0.16348 0.4309   0.689234
 C 0.3873 0.25768 0.3873   -0.169955
 C 0.6992 0.03206 0.56954   0.037607
 C 0.03206 0.6992 0.6992   0.037607
 C 0.56954 0.6992 0.6992   0.037606
 C 0.6992 0.56954 0.03206   0.037607
 C 0.6992 0.56954 0.6992   0.037606
 C 0.03206 0.6992 0.56954   0.037607
 C 0.56954 0.6992 0.03206   0.037607
 C 0.6992 0.03206 0.6992   0.037607
 C 0.6992 0.6992 0.03206   0.037607
 C 0.03206 0.56954 0.6992   0.037607
 C 0.56954 0.03206 0.6992   0.037607
 C 0.6992 0.6992 0.56954   0.037606
 C 0.96794 0.3008 0.43046   0.037607
 C 0.3008 0.96794 0.3008   0.037607
 C 0.3008 0.43046 0.3008   0.037606
 C 0.43046 0.3008 0.96794   0.037607
 C 0.43046 0.3008 0.3008   0.037606
 C 0.3008 0.96794 0.43046   0.037607
 C 0.3008 0.43046 0.96794   0.037607
 C 0.96794 0.3008 0.3008   0.037607
 C 0.3008 0.3008 0.96794   0.037607
 C 0.43046 0.96794 0.3008   0.037607
 C 0.96794 0.43046 0.3008   0.037607
 C 0.3008 0.3008 0.43046   0.037606
 O 0.49246 0.02118 0.61244   -0.570775
 O 0.02118 0.49246 0.87392   -0.570775
 O 0.61244 0.87392 0.49246   -0.570775
 O 0.87392 0.61244 0.02118   -0.570775
 O 0.49246 0.61244 0.87392   -0.570775
 O 0.02118 0.87392 0.61244   -0.570775
 O 0.61244 0.49246 0.02118   -0.570775
 O 0.87392 0.02118 0.49246   -0.570775
 O 0.49246 0.87392 0.02118   -0.570775
 O 0.02118 0.61244 0.49246   -0.570775
 O 0.61244 0.02118 0.87392   -0.570775
 O 0.87392 0.49246 0.61244   -0.570775
 O 0.97882 0.50754 0.38756   -0.570775
 O 0.50754 0.97882 0.12608   -0.570775
 O 0.12608 0.38756 0.50754   -0.570775
 O 0.38756 0.12608 0.97882   -0.570775
 O 0.38756 0.50754 0.12608   -0.570775
 O 0.12608 0.97882 0.38756   -0.570775
 O 0.50754 0.38756 0.97882   -0.570775
 O 0.97882 0.12608 0.50754   -0.570775
 O 0.12608 0.50754 0.97882   -0.570775
 O 0.38756 0.97882 0.50754   -0.570775
 O 0.97882 0.38756 0.12608   -0.570775
 O 0.50754 0.12608 0.38756   -0.570775
 O 0.50754 0.97882 0.38756   -0.570775
 O 0.97882 0.50754 0.12608   -0.570775
 O 0.38756 0.12608 0.50754   -0.570775
 O 0.12608 0.38756 0.97882   -0.570775
 O 0.50754 0.38756 0.12608   -0.570775
 O 0.97882 0.12608 0.38756   -0.570775
 O 0.38756 0.50754 0.97882   -0.570775
 O 0.12608 0.97882 0.50754   -0.570775
 O 0.50754 0.12608 0.97882   -0.570775
 O 0.97882 0.38756 0.50754   -0.570775
 O 0.38756 0.97882 0.12608   -0.570775
 O 0.12608 0.50754 0.38756   -0.570775
 O 0.02118 0.49246 0.61244   -0.570775
 O 0.49246 0.02118 0.87392   -0.570775
 O 0.87392 0.61244 0.49246   -0.570775
 O 0.61244 0.87392 0.02118   -0.570775
 O 0.61244 0.49246 0.87392   -0.570775
 O 0.87392 0.02118 0.61244   -0.570775
 O 0.49246 0.61244 0.02118   -0.570775
 O 0.02118 0.87392 0.49246   -0.570775
 O 0.87392 0.49246 0.02118   -0.570775
 O 0.61244 0.02118 0.49246   -0.570775
 O 0.02118 0.61244 0.87392   -0.570775
 O 0.49246 0.87392 0.61244   -0.570775
