{'_ref': 'TBD', '_srcid': 'CAKYAQ_clean', 'submitters': [{'name': 'Dalar Nazarian Jeff Camp and David Sholl', 'email': 'dalar@gatech.edu jcamp6@gatech.edu'}], '_method': 'VASP DFT with PBE;DDEC'}
data_SrP2H14C6(NO3)2
_symmetry_space_group_name_H-M   'P 1'
_cell_length_a   7.13300008
_cell_length_b   10.51899995
_cell_length_c   11.51900000
_cell_angle_alpha   74.03399734
_cell_angle_beta   83.17399604
_cell_angle_gamma   72.58499676
_symmetry_Int_Tables_number   1
_chemical_formula_structural   SrP2H14C6(NO3)2
_chemical_formula_sum   'Sr2 P4 H28 C12 N4 O12'
_cell_volume   792.235719503
_cell_formula_units_Z   2
loop_
 _symmetry_equiv_pos_site_id
 _symmetry_equiv_pos_as_xyz
  1  'x, y, z'
loop_
 _atom_site_label
 _atom_site_fract_x
 _atom_site_fract_y
 _atom_site_fract_z
 _atom_site_charge
 Sr 0.77922 0.40007 0.54096   1.703561
 Sr 0.22078 0.59993 0.45904   1.703564
 P 0.28767 0.32201 0.67669   1.570458
 P 0.82273 0.25826 0.31639   1.41147
 P 0.71233 0.67799 0.32331   1.57046
 P 0.17727 0.74174 0.68361   1.411469
 H 0.5459 0.1513 0.5325   0.246827
 H 0.8795 0.5153 0.1459   0.251045
 H 0.2386 0.0347 0.557   0.11835
 H 0.224 0.1882 0.4879   0.127346
 H 0.7222 0.9441 0.6514   0.125299
 H 0.5413 0.8862 0.6573   0.117763
 H 0.3044 0.0882 0.7316   0.186624
 H 0.5089 0.1062 0.7472   0.174962
 H 0.7846 0.4829 0.9325   0.106733
 H 0.662 0.6014 0.992   0.126019
 H 0.1278 0.3145 0.1609   0.13982
 H 0.0699 0.3072 0.036   0.128197
 H 0.6078 0.4421 0.1854   0.155882
 H 0.706 0.3248 0.1198   0.143999
 H 0.4541 0.8487 0.4675   0.246827
 H 0.1205 0.4847 0.8541   0.251044
 H 0.7614 0.9653 0.443   0.118351
 H 0.776 0.8118 0.5121   0.127347
 H 0.2778 0.0559 0.3486   0.125299
 H 0.4587 0.1138 0.3427   0.117758
 H 0.6956 0.9118 0.2684   0.186631
 H 0.4911 0.8938 0.2528   0.17497
 H 0.2154 0.5171 0.0675   0.106725
 H 0.338 0.3986 0.008   0.12601
 H 0.8722 0.6855 0.8391   0.139813
 H 0.9301 0.6928 0.964   0.128203
 H 0.3922 0.5579 0.8146   0.155876
 H 0.294 0.6752 0.8802   0.143994
 C 0.3123 0.0957 0.5078   -0.101596
 C 0.6122 0.9484 0.6069   -0.105085
 C 0.401 0.1364 0.6931   -0.522529
 C 0.7931 0.5428 0.9812   -0.098289
 C 0.0746 0.3694 0.0834   -0.114688
 C 0.7316 0.3775 0.1703   -0.460612
 C 0.6877 0.9043 0.4922   -0.101601
 C 0.3878 0.0516 0.3931   -0.105088
 C 0.599 0.8636 0.3069   -0.522534
 C 0.2069 0.4572 0.0188   -0.098293
 C 0.9254 0.6306 0.9166   -0.114695
 C 0.2684 0.6225 0.8297   -0.460608
 N 0.478 0.093 0.5783   0.14626
 N 0.871 0.457 0.1025   0.141697
 N 0.522 0.907 0.4217   0.146262
 N 0.129 0.543 0.8975   0.141697
 O 0.2223 0.3239 0.8075   -0.889497
 O 0.1197 0.3722 0.592   -1.035594
 O 0.4425 0.3974 0.6243   -1.062782
 O 0.9158 0.1198 0.2909   -0.874807
 O 0.9625 0.32 0.3575   -0.927121
 O 0.6394 0.2644 0.4006   -0.929697
 O 0.7777 0.6761 0.1925   -0.889497
 O 0.8803 0.6278 0.408   -1.035594
 O 0.5575 0.6026 0.3757   -1.062782
 O 0.0842 0.8802 0.7091   -0.874807
 O 0.0375 0.68 0.6425   -0.92712
 O 0.3606 0.7356 0.5994   -0.929697
