{'_ref': 'TBD', '_srcid': 'CAKYAQ_clean', 'submitters': [{'name': 'Dalar Nazarian Jeff Camp and David Sholl', 'email': 'dalar@gatech.edu jcamp6@gatech.edu'}], '_method': 'VASP DFT with PBE;DDEC'}
data_CdNiH16(C2N)6
_symmetry_space_group_name_H-M   'P 1'
_cell_length_a   7.10099953
_cell_length_b   7.62600000
_cell_length_c   11.31560000
_cell_angle_alpha   90.00000000
_cell_angle_beta   106.60299772
_cell_angle_gamma   90.00000000
_symmetry_Int_Tables_number   1
_chemical_formula_structural   CdNiH16(C2N)6
_chemical_formula_sum   'Cd1 Ni1 H16 C12 N6'
_cell_volume   587.217264928
_cell_formula_units_Z   1
loop_
 _symmetry_equiv_pos_site_id
 _symmetry_equiv_pos_as_xyz
  1  'x, y, z'
loop_
 _atom_site_label
 _atom_site_fract_x
 _atom_site_fract_y
 _atom_site_fract_z
 _atom_site_charge
 Cd 0.0 0.0 0.0   0.980323
 Ni 0.5 0.5 0.0   -0.003335
 H 0.82099 0.88475 0.75741   0.295665
 H 0.53912 0.88475 0.83291   0.074658
 H 0.48928 0.88475 0.60835   0.069201
 H 0.19702 0.88475 0.688   0.110707
 H 0.17901 0.88475 0.24259   0.295665
 H 0.46088 0.88475 0.16709   0.074658
 H 0.51072 0.88475 0.39165   0.069207
 H 0.80298 0.88475 0.312   0.110707
 H 0.17901 0.11525 0.24259   0.295663
 H 0.46088 0.11525 0.16709   0.074659
 H 0.51072 0.11525 0.39165   0.069204
 H 0.80298 0.11525 0.312   0.11071
 H 0.82099 0.11525 0.75741   0.295662
 H 0.53912 0.11525 0.83291   0.074659
 H 0.48928 0.11525 0.60835   0.06921
 H 0.19702 0.11525 0.688   0.11071
 C 0.6931 0.6713 0.038   0.119308
 C 0.3069 0.6713 0.962   0.119309
 C 0.3069 0.3287 0.962   0.119304
 C 0.6931 0.3287 0.038   0.119305
 C 0.5759 0.0 0.7879   0.066733
 C 0.4528 0.0 0.6548   -0.172414
 C 0.2334 0.0 0.6424   -0.111886
 C 0.1105 0.0 0.5065   -0.118872
 C 0.4241 0.0 0.2121   0.066733
 C 0.5472 0.0 0.3452   -0.172414
 C 0.7666 0.0 0.3576   -0.111889
 C 0.8895 0.0 0.4935   -0.118856
 N 0.8118 0.777 0.0573   -0.436909
 N 0.1882 0.777 0.9427   -0.436909
 N 0.1882 0.223 0.9427   -0.436908
 N 0.8118 0.223 0.0573   -0.436907
 N 0.7879 0.0 0.8051   -0.61733
 N 0.2121 0.0 0.1949   -0.61733
