{'_ref': 'TBD', '_srcid': 'CAKYAQ_clean', 'submitters': [{'name': 'Dalar Nazarian Jeff Camp and David Sholl', 'email': 'dalar@gatech.edu jcamp6@gatech.edu'}], '_method': 'VASP DFT with PBE;DDEC'}
data_NaSi2H34C14NO4
_symmetry_space_group_name_H-M   'P 1'
_cell_length_a   11.49900000
_cell_length_b   11.49900000
_cell_length_c   15.79500000
_cell_angle_alpha   90.00000000
_cell_angle_beta   90.00000000
_cell_angle_gamma   90.00000000
_symmetry_Int_Tables_number   1
_chemical_formula_structural   NaSi2H34C14NO4
_chemical_formula_sum   'Na4 Si8 H136 C56 N4 O16'
_cell_volume   2088.5254808
_cell_formula_units_Z   4
loop_
 _symmetry_equiv_pos_site_id
 _symmetry_equiv_pos_as_xyz
  1  'x, y, z'
loop_
 _atom_site_label
 _atom_site_fract_x
 _atom_site_fract_y
 _atom_site_fract_z
 _atom_site_charge
 Na 0.6083 0.3917 0.25   0.921874
 Na 0.1083 0.1083 0.5   0.921874
 Na 0.3917 0.6083 0.75   0.921874
 Na 0.8917 0.8917 0.0   0.921874
 Si 0.4799 0.6416 0.3232   1.39885
 Si 0.8584 0.9799 0.5732   1.39885
 Si 0.5201 0.3584 0.8232   1.39885
 Si 0.1416 0.0201 0.0732   1.39885
 Si 0.6416 0.4799 0.6768   1.39885
 Si 0.9799 0.8584 0.4268   1.39885
 Si 0.3584 0.5201 0.1768   1.39885
 Si 0.0201 0.1416 0.9268   1.39885
 H 0.3791 0.6984 0.4543   0.155451
 H 0.8016 0.8791 0.7043   0.155451
 H 0.6209 0.3016 0.9543   0.155451
 H 0.1984 0.1209 0.2043   0.155451
 H 0.6984 0.3791 0.5457   0.155451
 H 0.8791 0.8016 0.2957   0.155451
 H 0.3016 0.6209 0.0457   0.155451
 H 0.1209 0.1984 0.7957   0.155451
 H 0.3776 0.5706 0.4454   0.15258
 H 0.9294 0.8776 0.6954   0.15258
 H 0.6224 0.4294 0.9454   0.15258
 H 0.0706 0.1224 0.1954   0.15258
 H 0.5706 0.3776 0.5546   0.15258
 H 0.8776 0.9294 0.3046   0.15258
 H 0.4294 0.6224 0.0546   0.15258
 H 0.1224 0.0706 0.8046   0.15258
 H 0.2904 0.6422 0.4007   0.181044
 H 0.8578 0.7904 0.6507   0.181044
 H 0.7096 0.3578 0.9007   0.181044
 H 0.1422 0.2096 0.1507   0.181044
 H 0.6422 0.2904 0.5993   0.181044
 H 0.7904 0.8578 0.3493   0.181044
 H 0.3578 0.7096 0.0993   0.181044
 H 0.2096 0.1422 0.8493   0.181044
 H 0.5018 0.8487 0.3226   0.151756
 H 0.6513 0.0018 0.5726   0.151756
 H 0.4982 0.1513 0.8226   0.151756
 H 0.3487 0.9982 0.0726   0.151756
 H 0.8487 0.5018 0.6774   0.151756
 H 0.0018 0.6513 0.4274   0.151756
 H 0.1513 0.4982 0.1774   0.151756
 H 0.9982 0.3487 0.9274   0.151756
 H 0.5263 0.811 0.235   0.157018
 H 0.689 0.0263 0.485   0.157018
 H 0.4737 0.189 0.735   0.157018
 H 0.311 0.9737 0.985   0.157018
 H 0.811 0.5263 0.765   0.157018
 H 0.0263 0.689 0.515   0.157018
 H 0.189 0.4737 0.265   0.157018
 H 0.9737 0.311 0.015   0.157018
 H 0.4057 0.8308 0.2622   0.175452
 H 0.6692 0.9057 0.5122   0.175452
 H 0.5943 0.1692 0.7622   0.175452
 H 0.3308 0.0943 0.0122   0.175452
 H 0.8308 0.4057 0.7378   0.175452
 H 0.9057 0.6692 0.4878   0.175452
 H 0.1692 0.5943 0.2378   0.175452
 H 0.0943 0.3308 0.9878   0.175452
 H 0.6322 0.5516 0.4056   0.167156
 H 0.9484 0.1322 0.6556   0.167156
 H 0.3678 0.4484 0.9056   0.167156
 H 0.0516 0.8678 0.1556   0.167156
 H 0.5516 0.6322 0.5944   0.167157
 H 0.1322 0.9484 0.3444   0.167157
 H 0.4484 0.3678 0.0944   0.167157
 H 0.8678 0.0516 0.8444   0.167157
 H 0.6936 0.6239 0.3422   0.170038
 H 0.8761 0.1936 0.5922   0.170038
 H 0.3064 0.3761 0.8422   0.170038
 H 0.1239 0.8064 0.0922   0.170038
 H 0.6239 0.6936 0.6578   0.170038
 H 0.1936 0.8761 0.4078   0.170038
 H 0.3761 0.3064 0.1578   0.170038
 H 0.8064 0.1239 0.9078   0.170038
 H 0.6432 0.678 0.4185   0.179214
 H 0.822 0.1432 0.6685   0.179214
 H 0.3568 0.322 0.9185   0.179214
 H 0.178 0.8568 0.1685   0.179214
 H 0.678 0.6432 0.5815   0.179214
 H 0.1432 0.822 0.3315   0.179214
 H 0.322 0.3568 0.0815   0.179214
 H 0.8568 0.178 0.8315   0.179214
 H 0.8661 0.4989 0.3323   0.083618
 H 0.0011 0.3661 0.5823   0.083618
 H 0.1339 0.5011 0.8323   0.083618
 H 0.9989 0.6339 0.0823   0.083618
 H 0.4989 0.8661 0.6677   0.083618
 H 0.3661 0.0011 0.4177   0.083618
 H 0.5011 0.1339 0.1677   0.083618
 H 0.6339 0.9989 0.9177   0.083618
 H 0.8321 0.4433 0.4322   0.065594
 H 0.0567 0.3321 0.6822   0.065594
 H 0.1679 0.5567 0.9322   0.065594
 H 0.9433 0.6679 0.1822   0.065594
 H 0.4433 0.8321 0.5678   0.065594
 H 0.3321 0.0567 0.3178   0.065594
 H 0.5567 0.1679 0.0678   0.065594
 H 0.6679 0.9433 0.8178   0.065594
 H 0.7238 0.1846 0.3308   0.062919
 H 0.3154 0.2238 0.5808   0.062919
 H 0.2762 0.8154 0.8308   0.062919
 H 0.6846 0.7762 0.0808   0.062919
 H 0.1846 0.7238 0.6692   0.062919
 H 0.2238 0.3154 0.4192   0.062919
 H 0.8154 0.2762 0.1692   0.062919
 H 0.7762 0.6846 0.9192   0.062919
 H 0.7498 0.2419 0.4317   0.069438
 H 0.2581 0.2498 0.6817   0.069438
 H 0.2502 0.7581 0.9317   0.069438
 H 0.7419 0.7502 0.1817   0.069438
 H 0.2419 0.7498 0.5683   0.069438
 H 0.2498 0.2581 0.3183   0.069438
 H 0.7581 0.2502 0.0683   0.069438
 H 0.7502 0.7419 0.8183   0.069438
 H 0.8917 0.1009 0.3993   0.100964
 H 0.3991 0.3917 0.6493   0.100964
 H 0.1083 0.8991 0.8993   0.100964
 H 0.6009 0.6083 0.1493   0.100964
 H 0.1009 0.8917 0.6007   0.100964
 H 0.3917 0.3991 0.3507   0.100964
 H 0.8991 0.1083 0.1007   0.100964
 H 0.6083 0.6009 0.8507   0.100964
 H 0.9295 0.1704 0.3047   0.045688
 H 0.3296 0.4295 0.5547   0.045688
 H 0.0705 0.8296 0.8047   0.045688
 H 0.6704 0.5705 0.0547   0.045688
 H 0.1704 0.9295 0.6953   0.04569
 H 0.4295 0.3296 0.4453   0.04569
 H 0.8296 0.0705 0.1953   0.04569
 H 0.5705 0.6704 0.9453   0.04569
 H 0.0184 0.358 0.3094   0.053778
 H 0.142 0.5184 0.5594   0.053778
 H 0.9816 0.642 0.8094   0.053778
 H 0.858 0.4816 0.0594   0.053778
 H 0.358 0.0184 0.6906   0.053778
 H 0.5184 0.142 0.4406   0.053778
 H 0.642 0.9816 0.1906   0.053778
 H 0.4816 0.858 0.9406   0.053778
 H 0.044 0.4213 0.4082   0.078472
 H 0.0787 0.544 0.6582   0.078472
 H 0.956 0.5787 0.9082   0.078472
 H 0.9213 0.456 0.1582   0.078472
 H 0.4213 0.044 0.5918   0.078472
 H 0.544 0.0787 0.3418   0.078472
 H 0.5787 0.956 0.0918   0.078472
 H 0.456 0.9213 0.8418   0.078472
 C 0.3714 0.6394 0.4122   -0.839923
 C 0.8606 0.8714 0.6622   -0.839923
 C 0.6286 0.3606 0.9122   -0.839923
 C 0.1394 0.1286 0.1622   -0.839923
 C 0.6394 0.3714 0.5878   -0.839923
 C 0.8714 0.8606 0.3378   -0.839923
 C 0.3606 0.6286 0.0878   -0.839923
 C 0.1286 0.1394 0.8378   -0.839923
 C 0.4757 0.7947 0.2813   -0.847979
 C 0.7053 0.9757 0.5313   -0.847979
 C 0.5243 0.2053 0.7813   -0.847979
 C 0.2947 0.0243 0.0313   -0.847979
 C 0.7947 0.4757 0.7187   -0.847979
 C 0.9757 0.7053 0.4687   -0.847979
 C 0.2053 0.5243 0.2187   -0.847979
 C 0.0243 0.2947 0.9687   -0.847979
 C 0.6252 0.6229 0.3753   -0.866995
 C 0.8771 0.1252 0.6253   -0.866995
 C 0.3748 0.3771 0.8753   -0.866995
 C 0.1229 0.8748 0.1253   -0.866995
 C 0.6229 0.6252 0.6247   -0.866995
 C 0.1252 0.8771 0.3747   -0.866995
 C 0.3771 0.3748 0.1247   -0.866995
 C 0.8748 0.1229 0.8747   -0.866995
 C 0.8656 0.4215 0.3707   0.045028
 C 0.0785 0.3656 0.6207   0.045028
 C 0.1344 0.5785 0.8707   0.045028
 C 0.9215 0.6344 0.1207   0.045028
 C 0.4215 0.8656 0.6293   0.045028
 C 0.3656 0.0785 0.3793   0.045028
 C 0.5785 0.1344 0.1293   0.045028
 C 0.6344 0.9215 0.8793   0.045028
 C 0.782 0.2366 0.3681   0.041422
 C 0.2634 0.282 0.6181   0.041422
 C 0.218 0.7634 0.8681   0.041422
 C 0.7366 0.718 0.1181   0.041422
 C 0.2366 0.782 0.6319   0.041422
 C 0.282 0.2634 0.3819   0.041422
 C 0.7634 0.218 0.1319   0.041422
 C 0.718 0.7366 0.8819   0.041422
 C 0.9007 0.1827 0.3687   0.034991
 C 0.3173 0.4007 0.6187   0.034991
 C 0.0993 0.8173 0.8687   0.034991
 C 0.6827 0.5993 0.1187   0.034991
 C 0.1827 0.9007 0.6313   0.034991
 C 0.4007 0.3173 0.3813   0.034991
 C 0.8173 0.0993 0.1313   0.034991
 C 0.5993 0.6827 0.8813   0.034991
 C 0.9855 0.3671 0.3728   0.051043
 C 0.1329 0.4855 0.6228   0.051043
 C 0.0145 0.6329 0.8728   0.051043
 C 0.8671 0.5145 0.1228   0.051043
 C 0.3671 0.9855 0.6272   0.051042
 C 0.4855 0.1329 0.3772   0.051042
 C 0.6329 0.0145 0.1272   0.051042
 C 0.5145 0.8671 0.8772   0.051042
 N 0.462 0.538 0.25   -1.518036
 N 0.962 0.962 0.5   -1.518036
 N 0.538 0.462 0.75   -1.518036
 N 0.038 0.038 0.0   -1.518036
 O 0.7838 0.3488 0.3282   -0.397517
 O 0.1512 0.2838 0.5782   -0.397517
 O 0.2162 0.6512 0.8282   -0.397517
 O 0.8488 0.7162 0.0782   -0.397517
 O 0.3488 0.7838 0.6718   -0.397517
 O 0.2838 0.1512 0.4218   -0.397517
 O 0.6512 0.2162 0.1718   -0.397517
 O 0.7162 0.8488 0.9218   -0.397517
 O 0.9821 0.2557 0.413   -0.37102
 O 0.2443 0.4821 0.663   -0.37102
 O 0.0179 0.7443 0.913   -0.37102
 O 0.7557 0.5179 0.163   -0.37102
 O 0.2557 0.9821 0.587   -0.37102
 O 0.4821 0.2443 0.337   -0.37102
 O 0.7443 0.0179 0.087   -0.37102
 O 0.5179 0.7557 0.837   -0.37102
