{'_ref': 'TBD', '_srcid': 'CAKYAQ_clean', 'submitters': [{'name': 'Dalar Nazarian Jeff Camp and David Sholl', 'email': 'dalar@gatech.edu jcamp6@gatech.edu'}], '_method': 'VASP DFT with PBE;DDEC'}
data_LiCO2
_symmetry_space_group_name_H-M   'P 1'
_cell_length_a   5.54300000
_cell_length_b   14.91500009
_cell_length_c   14.91500000
_cell_angle_alpha   119.99999980
_cell_angle_beta   90.00000000
_cell_angle_gamma   90.00000000
_symmetry_Int_Tables_number   1
_chemical_formula_structural   LiCO2
_chemical_formula_sum   'Li18 C18 O36'
_cell_volume   1067.87895821
_cell_formula_units_Z   18
loop_
 _symmetry_equiv_pos_site_id
 _symmetry_equiv_pos_as_xyz
  1  'x, y, z'
loop_
 _atom_site_label
 _atom_site_fract_x
 _atom_site_fract_y
 _atom_site_fract_z
 _atom_site_charge
 Li 0.2243 0.4685 0.8049   0.902957
 Li 0.9834 0.6978 0.9669   0.916328
 Li 0.4933 0.6677 0.863   0.913015
 Li 0.2243 0.3364 0.5315   0.902958
 Li 0.9834 0.2691 0.3022   0.916328
 Li 0.4933 0.1953 0.3323   0.913015
 Li 0.2243 0.1951 0.6636   0.902957
 Li 0.9834 0.0331 0.7309   0.916328
 Li 0.4933 0.137 0.8047   0.913015
 Li 0.7243 0.5315 0.1951   0.902957
 Li 0.4834 0.3022 0.0331   0.916331
 Li 0.9933 0.3323 0.137   0.913017
 Li 0.7243 0.6636 0.4685   0.902958
 Li 0.4834 0.7309 0.6978   0.916331
 Li 0.9933 0.8047 0.6677   0.913017
 Li 0.7243 0.8049 0.3364   0.902957
 Li 0.4834 0.9669 0.2691   0.916331
 Li 0.9933 0.863 0.1953   0.913017
 C 0.754 0.4971 0.8468   0.492073
 C 0.2304 0.3402 0.8805   0.470545
 C 0.8803 0.7756 0.8304   0.491256
 C 0.754 0.3497 0.5029   0.492073
 C 0.2304 0.5403 0.6598   0.470545
 C 0.8803 0.0548 0.2244   0.491257
 C 0.754 0.1532 0.6503   0.492073
 C 0.2304 0.1195 0.4597   0.470544
 C 0.8803 0.1696 0.9452   0.491257
 C 0.254 0.5029 0.1532   0.492073
 C 0.7304 0.6598 0.1195   0.470545
 C 0.3803 0.2244 0.1696   0.491257
 C 0.254 0.6503 0.4971   0.492073
 C 0.7304 0.4597 0.3402   0.470544
 C 0.3803 0.9452 0.7756   0.491259
 C 0.254 0.8468 0.3497   0.492073
 C 0.7304 0.8805 0.5403   0.470544
 C 0.3803 0.8304 0.0548   0.491258
 O 0.9532 0.5404 0.8721   -0.678404
 O 0.55 0.5344 0.8634   -0.639645
 O 0.2368 0.3321 0.7928   -0.666146
 O 0.3296 0.2704 0.8965   -0.696502
 O 0.7486 0.7398 0.8824   -0.735751
 O 0.7472 0.7732 0.7526   -0.769729
 O 0.9532 0.3317 0.4596   -0.678404
 O 0.55 0.329 0.4656   -0.639644
 O 0.2368 0.4607 0.6679   -0.666146
 O 0.3296 0.6261 0.7296   -0.696502
 O 0.7486 0.1426 0.2602   -0.735752
 O 0.7472 0.9794 0.2268   -0.769729
 O 0.9532 0.1279 0.6683   -0.678404
 O 0.55 0.1366 0.671   -0.639644
 O 0.2368 0.2072 0.5393   -0.666146
 O 0.3296 0.1035 0.3739   -0.696502
 O 0.7486 0.1176 0.8574   -0.735752
 O 0.7472 0.2474 0.0206   -0.769729
 O 0.4532 0.4596 0.1279   -0.678405
 O 0.05 0.4656 0.1366   -0.639645
 O 0.7368 0.6679 0.2072   -0.666146
 O 0.8296 0.7296 0.1035   -0.696502
 O 0.2486 0.2602 0.1176   -0.735752
 O 0.2472 0.2268 0.2474   -0.769728
 O 0.4532 0.6683 0.5404   -0.678405
 O 0.05 0.671 0.5344   -0.639645
 O 0.7368 0.5393 0.3321   -0.666146
 O 0.8296 0.3739 0.2704   -0.696502
 O 0.2486 0.8574 0.7398   -0.735753
 O 0.2472 0.0206 0.7732   -0.769728
 O 0.4532 0.8721 0.3317   -0.678405
 O 0.05 0.8634 0.329   -0.639645
 O 0.7368 0.7928 0.4607   -0.666146
 O 0.8296 0.8965 0.6261   -0.696502
 O 0.2486 0.8824 0.1426   -0.735753
 O 0.2472 0.7526 0.9794   -0.769728
