{'_ref': 'TBD', '_srcid': 'CAKYAQ_clean', 'submitters': [{'name': 'Dalar Nazarian Jeff Camp and David Sholl', 'email': 'dalar@gatech.edu jcamp6@gatech.edu'}], '_method': 'VASP DFT with PBE;DDEC'}
data_Ba3Co2C24(NO6)4
_symmetry_space_group_name_H-M   'P 1'
_cell_length_a   13.18729987
_cell_length_b   14.31680054
_cell_length_c   16.09330000
_cell_angle_alpha   68.11559885
_cell_angle_beta   65.81309847
_cell_angle_gamma   62.57709998
_symmetry_Int_Tables_number   1
_chemical_formula_structural   Ba3Co2C24(NO6)4
_chemical_formula_sum   'Ba6 Co4 C48 N8 O48'
_cell_volume   2395.84141542
_cell_formula_units_Z   2
loop_
 _symmetry_equiv_pos_site_id
 _symmetry_equiv_pos_as_xyz
  1  'x, y, z'
loop_
 _atom_site_label
 _atom_site_fract_x
 _atom_site_fract_y
 _atom_site_fract_z
 _atom_site_charge
 Ba 0.4481 0.8827 0.1415   1.687192
 Ba 0.9723 0.6173 0.3585   1.686982
 Ba 0.5519 0.1173 0.8585   1.687189
 Ba 0.0277 0.3827 0.6415   1.686979
 Ba 0.2803 0.75 0.75   1.659737
 Ba 0.7197 0.25 0.25   1.659737
 Co 0.5 0.5 0.5   0.81679
 Co 0.0 0.0 0.0   0.814055
 Co 0.5 0.0 0.5   0.821574
 Co 0.5 0.5 0.0   0.821808
 C 0.2761 0.6577 0.4885   -0.011968
 C 0.3196 0.6815 0.5493   0.59652
 C 0.4197 0.604 0.3414   -0.149147
 C 0.5267 0.629 0.3252   0.634731
 C 0.3113 0.4861 0.4611   -0.09016
 C 0.2024 0.5323 0.4257   0.655463
 C 0.5041 0.9751 0.6817   -0.170682
 C 0.4349 0.9133 0.6869   0.653212
 C 0.4685 0.1577 0.5791   -0.047503
 C 0.3497 0.179 0.5694   0.658287
 C 0.6735 0.0204 0.5568   -0.016348
 C 0.7132 0.0553 0.6155   0.619806
 C 0.9223 0.8423 0.0115   -0.013894
 C 0.0504 0.8185 0.9507   0.602904
 C 0.8651 0.896 0.1586   -0.148182
 C 0.9809 0.871 0.1748   0.629545
 C 0.7585 0.0139 0.0389   -0.086802
 C 0.6604 0.9677 0.0743   0.651198
 C 0.6609 0.5249 0.8183   -0.170431
 C 0.5351 0.5867 0.8131   0.649697
 C 0.7053 0.3423 0.9209   -0.047261
 C 0.5981 0.321 0.9306   0.659304
 C 0.7507 0.4796 0.9432   -0.014707
 C 0.884 0.4447 0.8845   0.62185
 C 0.7239 0.3423 0.5115   -0.011968
 C 0.6804 0.3185 0.4507   0.596521
 C 0.5803 0.396 0.6586   -0.149147
 C 0.4733 0.371 0.6748   0.634732
 C 0.6887 0.5139 0.5389   -0.09016
 C 0.7976 0.4677 0.5743   0.655463
 C 0.4959 0.0249 0.3183   -0.170682
 C 0.5651 0.0867 0.3131   0.653212
 C 0.5315 0.8423 0.4209   -0.047502
 C 0.6503 0.821 0.4306   0.658287
 C 0.3265 0.9796 0.4432   -0.016348
 C 0.2868 0.9447 0.3845   0.619806
 C 0.0777 0.1577 0.9885   -0.013894
 C 0.9496 0.1815 0.0493   0.602905
 C 0.1349 0.104 0.8414   -0.148183
 C 0.0191 0.129 0.8252   0.629546
 C 0.2415 0.9861 0.9611   -0.086802
 C 0.3396 0.0323 0.9257   0.651198
 C 0.3391 0.4751 0.1817   -0.170431
 C 0.4649 0.4133 0.1869   0.649697
 C 0.2947 0.6577 0.0791   -0.047259
 C 0.4019 0.679 0.0694   0.659304
 C 0.2493 0.5204 0.0568   -0.014707
 C 0.116 0.5553 0.1155   0.62185
 N 0.3648 0.5658 0.445   0.0157
 N 0.5445 0.0397 0.5849   0.008672
 N 0.8756 0.9342 0.055   0.015631
 N 0.6691 0.4603 0.9151   0.007492
 N 0.6352 0.4342 0.555   0.0157
 N 0.4555 0.9603 0.4151   0.008672
 N 0.1244 0.0658 0.945   0.015631
 N 0.3309 0.5397 0.0849   0.007492
 O 0.4214 0.6164 0.5612   -0.485834
 O 0.2574 0.7616 0.5846   -0.602584
 O 0.5745 0.5859 0.3927   -0.465165
 O 0.568 0.6841 0.2491   -0.558274
 O 0.1333 0.4809 0.4657   -0.748287
 O 0.1889 0.6128 0.3588   -0.543717
 O 0.4351 0.9063 0.6093   -0.541424
 O 0.3824 0.8692 0.7654   -0.574916
 O 0.3498 0.1151 0.5301   -0.476716
 O 0.2611 0.2553 0.5961   -0.611618
 O 0.6376 0.1088 0.6738   -0.622325
 O 0.8248 0.025 0.597   -0.461878
 O 0.099 0.8836 0.9388   -0.488322
 O 0.1036 0.7384 0.9154   -0.604959
 O 0.0531 0.9141 0.1073   -0.462835
 O 0.0012 0.8159 0.2509   -0.55563
 O 0.5799 0.0191 0.0343   -0.748624
 O 0.6605 0.8872 0.1412   -0.541465
 O 0.4507 0.5937 0.8907   -0.540579
 O 0.517 0.6308 0.7346   -0.572516
 O 0.495 0.3849 0.9699   -0.4778
 O 0.6125 0.2447 0.9039   -0.611879
 O 0.9202 0.3912 0.8262   -0.622872
 O 0.9468 0.475 0.903   -0.46373
 O 0.5786 0.3836 0.4388   -0.485834
 O 0.7426 0.2384 0.4154   -0.602584
 O 0.4255 0.4141 0.6073   -0.465165
 O 0.432 0.3159 0.7509   -0.558274
 O 0.8667 0.5191 0.5343   -0.748287
 O 0.8111 0.3872 0.6412   -0.543717
 O 0.5649 0.0937 0.3907   -0.541424
 O 0.6176 0.1308 0.2346   -0.574916
 O 0.6502 0.8849 0.4699   -0.476716
 O 0.7389 0.7447 0.4039   -0.611619
 O 0.3624 0.8912 0.3262   -0.622325
 O 0.1752 0.975 0.403   -0.461878
 O 0.901 0.1164 0.0612   -0.488322
 O 0.8964 0.2616 0.0846   -0.604959
 O 0.9469 0.0859 0.8927   -0.462835
 O 0.9988 0.1841 0.7491   -0.55563
 O 0.4201 0.9809 0.9657   -0.748624
 O 0.3395 0.1128 0.8588   -0.541465
 O 0.5493 0.4063 0.1093   -0.540579
 O 0.483 0.3692 0.2654   -0.572516
 O 0.505 0.6151 0.0301   -0.4778
 O 0.3875 0.7553 0.0961   -0.611879
 O 0.0798 0.6088 0.1738   -0.622872
 O 0.0532 0.525 0.097   -0.46373
