{'_ref': 'TBD', '_srcid': 'CAKYAQ_clean', 'submitters': [{'name': 'Dalar Nazarian Jeff Camp and David Sholl', 'email': 'dalar@gatech.edu jcamp6@gatech.edu'}], '_method': 'VASP DFT with PBE;DDEC'}
data_CuH2(C3O2)2
_symmetry_space_group_name_H-M   'P 1'
_cell_length_a   18.60689993
_cell_length_b   18.60689971
_cell_length_c   18.60690000
_cell_angle_alpha   59.99999948
_cell_angle_beta   59.99999987
_cell_angle_gamma   60.00000055
_symmetry_Int_Tables_number   1
_chemical_formula_structural   CuH2(C3O2)2
_chemical_formula_sum   'Cu12 H24 C72 O48'
_cell_volume   4555.19595334
_cell_formula_units_Z   12
loop_
 _symmetry_equiv_pos_site_id
 _symmetry_equiv_pos_as_xyz
  1  'x, y, z'
loop_
 _atom_site_label
 _atom_site_fract_x
 _atom_site_fract_y
 _atom_site_fract_z
 _atom_site_charge
 Cu 0.5 0.5 0.07056   0.899884
 Cu 0.5 0.5 0.92944   0.899874
 Cu 0.07056 0.92944 0.5   0.899883
 Cu 0.92944 0.07056 0.5   0.899874
 Cu 0.5 0.07056 0.92944   0.899883
 Cu 0.5 0.92944 0.07056   0.899875
 Cu 0.07056 0.5 0.5   0.899884
 Cu 0.92944 0.5 0.5   0.899874
 Cu 0.5 0.92944 0.5   0.899884
 Cu 0.5 0.07056 0.5   0.899874
 Cu 0.07056 0.5 0.92944   0.899883
 Cu 0.92944 0.5 0.07056   0.899875
 H 0.4666 0.7722 0.989   0.116543
 H 0.7722 0.4666 0.7722   0.11654
 H 0.989 0.7722 0.4666   0.116543
 H 0.7722 0.989 0.7722   0.116539
 H 0.4666 0.989 0.7722   0.116543
 H 0.7722 0.7722 0.989   0.116539
 H 0.989 0.4666 0.7722   0.116543
 H 0.7722 0.7722 0.4666   0.11654
 H 0.4666 0.7722 0.7722   0.11654
 H 0.7722 0.989 0.4666   0.116543
 H 0.989 0.7722 0.7722   0.116539
 H 0.7722 0.4666 0.989   0.116543
 H 0.2278 0.5334 0.011   0.116543
 H 0.5334 0.2278 0.2278   0.116539
 H 0.2278 0.011 0.5334   0.116543
 H 0.011 0.2278 0.2278   0.116538
 H 0.011 0.5334 0.2278   0.116542
 H 0.2278 0.2278 0.011   0.116538
 H 0.5334 0.011 0.2278   0.116542
 H 0.2278 0.2278 0.5334   0.116539
 H 0.2278 0.5334 0.2278   0.116539
 H 0.011 0.2278 0.5334   0.116542
 H 0.2278 0.011 0.2278   0.116538
 H 0.5334 0.2278 0.011   0.116542
 C 0.47414 0.66286 0.9315   0.675692
 C 0.4653 0.7581 0.8883   -0.164438
 C 0.66286 0.47414 0.9315   0.675689
 C 0.7581 0.4653 0.8883   -0.164438
 C 0.9315 0.9315 0.47414   0.675693
 C 0.8883 0.8883 0.4653   -0.164436
 C 0.9315 0.9315 0.66286   0.675691
 C 0.8883 0.8883 0.7581   -0.164439
 C 0.47414 0.9315 0.9315   0.675693
 C 0.4653 0.8883 0.8883   -0.164437
 C 0.66286 0.9315 0.9315   0.675691
 C 0.7581 0.8883 0.8883   -0.16444
 C 0.9315 0.47414 0.66286   0.675692
 C 0.8883 0.4653 0.7581   -0.164439
 C 0.9315 0.66286 0.47414   0.675689
 C 0.8883 0.7581 0.4653   -0.164439
 C 0.47414 0.9315 0.66286   0.675692
 C 0.4653 0.8883 0.7581   -0.164439
 C 0.66286 0.9315 0.47414   0.675689
 C 0.7581 0.8883 0.4653   -0.164439
 C 0.9315 0.66286 0.9315   0.675693
 C 0.8883 0.7581 0.8883   -0.164439
 C 0.9315 0.47414 0.9315   0.675691
 C 0.8883 0.4653 0.8883   -0.164438
 C 0.33714 0.52586 0.0685   0.675689
 C 0.2419 0.5347 0.1117   -0.164437
 C 0.52586 0.33714 0.0685   0.675686
 C 0.5347 0.2419 0.1117   -0.164438
 C 0.0685 0.0685 0.52586   0.67569
 C 0.1117 0.1117 0.5347   -0.164436
 C 0.0685 0.0685 0.33714   0.675688
 C 0.1117 0.1117 0.2419   -0.164439
 C 0.0685 0.52586 0.0685   0.67569
 C 0.1117 0.5347 0.1117   -0.164437
 C 0.0685 0.33714 0.0685   0.675688
 C 0.1117 0.2419 0.1117   -0.16444
 C 0.52586 0.0685 0.33714   0.675689
 C 0.5347 0.1117 0.2419   -0.164438
 C 0.33714 0.0685 0.52586   0.675686
 C 0.2419 0.1117 0.5347   -0.164439
 C 0.0685 0.52586 0.33714   0.675689
 C 0.1117 0.5347 0.2419   -0.164438
 C 0.0685 0.33714 0.52586   0.675686
 C 0.1117 0.2419 0.5347   -0.164439
 C 0.33714 0.0685 0.0685   0.67569
 C 0.2419 0.1117 0.1117   -0.164439
 C 0.52586 0.0685 0.0685   0.675687
 C 0.5347 0.1117 0.1117   -0.164438
 C 0.4659 0.8013 0.9315   0.034548
 C 0.8013 0.4659 0.8013   0.034547
 C 0.9315 0.8013 0.4659   0.034548
 C 0.8013 0.9315 0.8013   0.034549
 C 0.4659 0.9315 0.8013   0.034547
 C 0.8013 0.8013 0.9315   0.034548
 C 0.9315 0.4659 0.8013   0.034547
 C 0.8013 0.8013 0.4659   0.034547
 C 0.4659 0.8013 0.8013   0.034545
 C 0.8013 0.9315 0.4659   0.034546
 C 0.9315 0.8013 0.8013   0.034546
 C 0.8013 0.4659 0.9315   0.034546
 C 0.1987 0.5341 0.0685   0.034547
 C 0.5341 0.1987 0.1987   0.034547
 C 0.1987 0.0685 0.5341   0.034547
 C 0.0685 0.1987 0.1987   0.034548
 C 0.0685 0.5341 0.1987   0.034546
 C 0.1987 0.1987 0.0685   0.034547
 C 0.5341 0.0685 0.1987   0.034546
 C 0.1987 0.1987 0.5341   0.034546
 C 0.1987 0.5341 0.1987   0.034545
 C 0.0685 0.1987 0.5341   0.034545
 C 0.1987 0.0685 0.1987   0.034546
 C 0.5341 0.1987 0.0685   0.034545
 O 0.47922 0.62612 0.00784   -0.55614
 O 0.62612 0.47922 0.88682   -0.556139
 O 0.00784 0.88682 0.47922   -0.55614
 O 0.88682 0.00784 0.62612   -0.556141
 O 0.47922 0.00784 0.88682   -0.55614
 O 0.62612 0.88682 0.00784   -0.556141
 O 0.00784 0.47922 0.62612   -0.55614
 O 0.88682 0.62612 0.47922   -0.556139
 O 0.47922 0.88682 0.62612   -0.55614
 O 0.62612 0.00784 0.47922   -0.556139
 O 0.00784 0.62612 0.88682   -0.556142
 O 0.88682 0.47922 0.00784   -0.556139
 O 0.37388 0.52078 0.99216   -0.556139
 O 0.52078 0.37388 0.11318   -0.556139
 O 0.11318 0.99216 0.52078   -0.55614
 O 0.99216 0.11318 0.37388   -0.556141
 O 0.99216 0.52078 0.11318   -0.556139
 O 0.11318 0.37388 0.99216   -0.556142
 O 0.52078 0.99216 0.37388   -0.55614
 O 0.37388 0.11318 0.52078   -0.556138
 O 0.11318 0.52078 0.37388   -0.556139
 O 0.99216 0.37388 0.52078   -0.556139
 O 0.37388 0.99216 0.11318   -0.556141
 O 0.52078 0.11318 0.99216   -0.556139
 O 0.52078 0.37388 0.99216   -0.556137
 O 0.37388 0.52078 0.11318   -0.556138
 O 0.99216 0.11318 0.52078   -0.556137
 O 0.11318 0.99216 0.37388   -0.55614
 O 0.52078 0.99216 0.11318   -0.556137
 O 0.37388 0.11318 0.99216   -0.55614
 O 0.99216 0.52078 0.37388   -0.556138
 O 0.11318 0.37388 0.52078   -0.556138
 O 0.52078 0.11318 0.37388   -0.556137
 O 0.37388 0.99216 0.52078   -0.556138
 O 0.99216 0.37388 0.11318   -0.556139
 O 0.11318 0.52078 0.99216   -0.556138
 O 0.62612 0.47922 0.00784   -0.556139
 O 0.47922 0.62612 0.88682   -0.556137
 O 0.88682 0.00784 0.47922   -0.556137
 O 0.00784 0.88682 0.62612   -0.55614
 O 0.00784 0.47922 0.88682   -0.556138
 O 0.88682 0.62612 0.00784   -0.55614
 O 0.47922 0.00784 0.62612   -0.556138
 O 0.62612 0.88682 0.47922   -0.556138
 O 0.88682 0.47922 0.62612   -0.556137
 O 0.00784 0.62612 0.47922   -0.556139
 O 0.62612 0.00784 0.88682   -0.55614
 O 0.47922 0.88682 0.00784   -0.556137
