{'_ref': 'TBD', '_srcid': 'CAKYAQ_clean', 'submitters': [{'name': 'Dalar Nazarian Jeff Camp and David Sholl', 'email': 'dalar@gatech.edu jcamp6@gatech.edu'}], '_method': 'VASP DFT with PBE;DDEC'}
data_ZnH14C18(NO2)2
_symmetry_space_group_name_H-M   'P 1'
_cell_length_a   13.50000000
_cell_length_b   14.70200000
_cell_length_c   21.24500000
_cell_angle_alpha   90.00000000
_cell_angle_beta   90.00000000
_cell_angle_gamma   90.00000000
_symmetry_Int_Tables_number   1
_chemical_formula_structural   ZnH14C18(NO2)2
_chemical_formula_sum   'Zn8 H112 C144 N16 O32'
_cell_volume   4216.643865
_cell_formula_units_Z   8
loop_
 _symmetry_equiv_pos_site_id
 _symmetry_equiv_pos_as_xyz
  1  'x, y, z'
loop_
 _atom_site_label
 _atom_site_fract_x
 _atom_site_fract_y
 _atom_site_fract_z
 _atom_site_charge
 Zn 0.50187 0.39481 0.56855   0.896784
 Zn 0.49813 0.89481 0.93145   0.896784
 Zn 0.49813 0.60519 0.43145   0.896783
 Zn 0.50187 0.10519 0.06855   0.896783
 Zn 0.99813 0.60519 0.06855   0.896784
 Zn 0.00187 0.10519 0.43145   0.896784
 Zn 0.00187 0.39481 0.93145   0.896783
 Zn 0.99813 0.89481 0.56855   0.896783
 H 0.6741 0.4719 0.6511   0.085199
 H 0.839 0.5083 0.6441   0.132577
 H 0.8524 0.3672 0.4841   0.133508
 H 0.6876 0.3344 0.4957   0.072084
 H 0.9944 0.5129 0.5854   0.082122
 H 0.3076 0.463 0.633   0.085221
 H 0.143 0.4826 0.6137   0.131558
 H 0.1747 0.3275 0.4603   0.138046
 H 0.3379 0.3099 0.4862   0.067536
 H 0.0068 0.3788 0.491   0.106001
 H 0.517 0.1384 0.6902   0.118892
 H 0.5056 0.2827 0.7718   0.096101
 H 0.5164 0.0943 0.8015   0.09938
 H 0.5 0.2377 0.8829   0.129791
 H 0.3259 0.9719 0.8489   0.085199
 H 0.161 0.0083 0.8559   0.132577
 H 0.1476 0.8672 0.0159   0.133508
 H 0.3124 0.8344 0.0043   0.072084
 H 0.0056 0.0129 0.9146   0.082122
 H 0.6924 0.963 0.867   0.085221
 H 0.857 0.9826 0.8863   0.131558
 H 0.8253 0.8275 0.0397   0.138046
 H 0.6621 0.8099 0.0138   0.067536
 H 0.9932 0.8788 0.009   0.106001
 H 0.483 0.6384 0.8098   0.118892
 H 0.4944 0.7827 0.7282   0.096101
 H 0.4836 0.5943 0.6985   0.099379
 H 0.5 0.7377 0.6171   0.129791
 H 0.3259 0.5281 0.3489   0.085199
 H 0.161 0.4917 0.3559   0.132577
 H 0.1476 0.6328 0.5159   0.133509
 H 0.3124 0.6656 0.5043   0.072084
 H 0.0056 0.4871 0.4146   0.082122
 H 0.6924 0.537 0.367   0.085221
 H 0.857 0.5174 0.3863   0.131559
 H 0.8253 0.6725 0.5397   0.138046
 H 0.6621 0.6901 0.5138   0.067536
 H 0.9932 0.6212 0.509   0.106001
 H 0.483 0.8616 0.3098   0.118892
 H 0.4944 0.7173 0.2282   0.096101
 H 0.4836 0.9057 0.1985   0.09938
 H 0.5 0.7623 0.1171   0.129791
 H 0.6741 0.0281 0.1511   0.085199
 H 0.839 0.9917 0.1441   0.132577
 H 0.8524 0.1328 0.9841   0.133509
 H 0.6876 0.1656 0.9957   0.072084
 H 0.9944 0.9871 0.0854   0.082122
 H 0.3076 0.037 0.133   0.085221
 H 0.143 0.0174 0.1137   0.131559
 H 0.1747 0.1725 0.9603   0.138046
 H 0.3379 0.1901 0.9862   0.067536
 H 0.0068 0.1212 0.991   0.106001
 H 0.517 0.3616 0.1902   0.118892
 H 0.5056 0.2173 0.2718   0.096101
 H 0.5164 0.4057 0.3015   0.099379
 H 0.5 0.2623 0.3829   0.129791
 H 0.8259 0.5281 0.1511   0.085199
 H 0.661 0.4917 0.1441   0.132577
 H 0.6476 0.6328 0.9841   0.133508
 H 0.8124 0.6656 0.9957   0.072083
 H 0.5056 0.4871 0.0854   0.082122
 H 0.1924 0.537 0.133   0.085221
 H 0.357 0.5174 0.1137   0.13156
 H 0.3253 0.6725 0.9603   0.138046
 H 0.1621 0.6901 0.9862   0.067535
 H 0.4932 0.6212 0.991   0.106
 H 0.983 0.8616 0.1902   0.118892
 H 0.9944 0.7173 0.2718   0.096102
 H 0.9836 0.9057 0.3015   0.09938
 H 0.0 0.7623 0.3829   0.129791
 H 0.1741 0.0281 0.3489   0.085199
 H 0.339 0.9917 0.3559   0.132577
 H 0.3524 0.1328 0.5159   0.133508
 H 0.1876 0.1656 0.5043   0.072083
 H 0.4944 0.9871 0.4146   0.082122
 H 0.8076 0.037 0.367   0.085221
 H 0.643 0.0174 0.3863   0.13156
 H 0.6747 0.1725 0.5397   0.138046
 H 0.8379 0.1901 0.5138   0.067535
 H 0.5068 0.1212 0.509   0.106
 H 0.017 0.3616 0.3098   0.118892
 H 0.0056 0.2173 0.2282   0.096102
 H 0.0164 0.4057 0.1985   0.099379
 H 0.0 0.2623 0.1171   0.129791
 H 0.1741 0.4719 0.8489   0.0852
 H 0.339 0.5083 0.8559   0.132577
 H 0.3524 0.3672 0.0159   0.133509
 H 0.1876 0.3344 0.0043   0.072084
 H 0.4944 0.5129 0.9146   0.082122
 H 0.8076 0.463 0.867   0.085221
 H 0.643 0.4826 0.8863   0.13156
 H 0.6747 0.3275 0.0397   0.138046
 H 0.8379 0.3099 0.0138   0.067535
 H 0.5068 0.3788 0.009   0.106
 H 0.017 0.1384 0.8098   0.118892
 H 0.0056 0.2827 0.7282   0.096102
 H 0.0164 0.0943 0.6985   0.09938
 H 0.0 0.2377 0.6171   0.129791
 H 0.8259 0.9719 0.6511   0.085199
 H 0.661 0.0083 0.6441   0.132577
 H 0.6476 0.8672 0.4841   0.133509
 H 0.8124 0.8344 0.4957   0.072084
 H 0.5056 0.0129 0.5854   0.082122
 H 0.1924 0.963 0.633   0.085221
 H 0.357 0.9826 0.6137   0.13156
 H 0.3253 0.8275 0.4603   0.138046
 H 0.1621 0.8099 0.4862   0.067535
 H 0.4932 0.8788 0.491   0.106
 H 0.983 0.6384 0.6902   0.118892
 H 0.9944 0.7827 0.7718   0.096102
 H 0.9836 0.5943 0.8015   0.099379
 H 0.0 0.7377 0.8829   0.129791
 C 0.7098 0.4526 0.6162   0.18255
 C 0.8091 0.4751 0.6121   -0.226133
 C 0.8639 0.4483 0.5603   0.118033
 C 0.8172 0.3918 0.5176   -0.22499
 C 0.7181 0.3721 0.525   0.176991
 C 0.9634 0.49 0.5469   -0.055285
 C 0.2808 0.4367 0.597   0.176645
 C 0.1816 0.4495 0.5855   -0.237745
 C 0.1394 0.4129 0.5318   0.136935
 C 0.2002 0.3576 0.4952   -0.222101
 C 0.299 0.3477 0.5112   0.179052
 C 0.0384 0.4345 0.5065   -0.071106
 C 0.5076 0.2689 0.6498   0.665166
 C 0.512 0.1995 0.7012   -0.274311
 C 0.5091 0.2213 0.7613   -0.016393
 C 0.5111 0.1554 0.8121   -0.009271
 C 0.5058 0.1766 0.8721   -0.303195
 C 0.5087 0.1086 0.9234   0.717007
 C 0.2902 0.9526 0.8838   0.18255
 C 0.1909 0.9751 0.8879   -0.226133
 C 0.1361 0.9483 0.9397   0.118033
 C 0.1828 0.8918 0.9824   -0.22499
 C 0.2819 0.8721 0.975   0.176991
 C 0.0366 0.99 0.9531   -0.055285
 C 0.7192 0.9367 0.903   0.176645
 C 0.8184 0.9495 0.9145   -0.237745
 C 0.8606 0.9129 0.9682   0.136935
 C 0.7998 0.8576 0.0048   -0.222101
 C 0.701 0.8477 0.9888   0.179052
 C 0.9616 0.9345 0.9935   -0.071106
 C 0.4924 0.7689 0.8502   0.665166
 C 0.488 0.6995 0.7988   -0.274311
 C 0.4909 0.7213 0.7387   -0.016393
 C 0.4889 0.6554 0.6879   -0.009271
 C 0.4942 0.6766 0.6279   -0.303195
 C 0.4913 0.6086 0.5766   0.717007
 C 0.2902 0.5474 0.3838   0.18255
 C 0.1909 0.5249 0.3879   -0.226133
 C 0.1361 0.5517 0.4397   0.118033
 C 0.1828 0.6082 0.4824   -0.22499
 C 0.2819 0.6279 0.475   0.176991
 C 0.0366 0.51 0.4531   -0.055285
 C 0.7192 0.5633 0.403   0.176645
 C 0.8184 0.5505 0.4145   -0.237745
 C 0.8606 0.5871 0.4682   0.136935
 C 0.7998 0.6424 0.5048   -0.2221
 C 0.701 0.6523 0.4888   0.179052
 C 0.9616 0.5655 0.4935   -0.071106
 C 0.4924 0.7311 0.3502   0.665166
 C 0.488 0.8005 0.2988   -0.274311
 C 0.4909 0.7787 0.2387   -0.016393
 C 0.4889 0.8446 0.1879   -0.009271
 C 0.4942 0.8234 0.1279   -0.303195
 C 0.4913 0.8914 0.0766   0.717007
 C 0.7098 0.0474 0.1162   0.18255
 C 0.8091 0.0249 0.1121   -0.226133
 C 0.8639 0.0517 0.0603   0.118033
 C 0.8172 0.1082 0.0176   -0.22499
 C 0.7181 0.1279 0.025   0.176991
 C 0.9634 0.01 0.0469   -0.055285
 C 0.2808 0.0633 0.097   0.176645
 C 0.1816 0.0505 0.0855   -0.237745
 C 0.1394 0.0871 0.0318   0.136935
 C 0.2002 0.1424 0.9952   -0.2221
 C 0.299 0.1523 0.0112   0.179052
 C 0.0384 0.0655 0.0065   -0.071106
 C 0.5076 0.2311 0.1498   0.665166
 C 0.512 0.3005 0.2012   -0.274311
 C 0.5091 0.2787 0.2613   -0.016393
 C 0.5111 0.3446 0.3121   -0.009271
 C 0.5058 0.3234 0.3721   -0.303195
 C 0.5087 0.3914 0.4234   0.717007
 C 0.7902 0.5474 0.1162   0.18255
 C 0.6909 0.5249 0.1121   -0.226133
 C 0.6361 0.5517 0.0603   0.118033
 C 0.6828 0.6082 0.0176   -0.22499
 C 0.7819 0.6279 0.025   0.176991
 C 0.5366 0.51 0.0469   -0.055285
 C 0.2192 0.5633 0.097   0.176645
 C 0.3184 0.5505 0.0855   -0.237746
 C 0.3606 0.5871 0.0318   0.136935
 C 0.2998 0.6424 0.9952   -0.222101
 C 0.201 0.6523 0.0112   0.179052
 C 0.4616 0.5655 0.0065   -0.071106
 C 0.9924 0.7311 0.1498   0.665166
 C 0.988 0.8005 0.2012   -0.274311
 C 0.9909 0.7787 0.2613   -0.016394
 C 0.9889 0.8446 0.3121   -0.009271
 C 0.9942 0.8234 0.3721   -0.303195
 C 0.9913 0.8914 0.4234   0.717007
 C 0.2098 0.0474 0.3838   0.18255
 C 0.3091 0.0249 0.3879   -0.226133
 C 0.3639 0.0517 0.4397   0.118033
 C 0.3172 0.1082 0.4824   -0.22499
 C 0.2181 0.1279 0.475   0.176991
 C 0.4634 0.01 0.4531   -0.055285
 C 0.7808 0.0633 0.403   0.176645
 C 0.6816 0.0505 0.4145   -0.237746
 C 0.6394 0.0871 0.4682   0.136935
 C 0.7002 0.1424 0.5048   -0.222101
 C 0.799 0.1523 0.4888   0.179052
 C 0.5384 0.0655 0.4935   -0.071106
 C 0.0076 0.2311 0.3502   0.665166
 C 0.012 0.3005 0.2988   -0.274311
 C 0.0091 0.2787 0.2387   -0.016394
 C 0.0111 0.3446 0.1879   -0.009271
 C 0.0058 0.3234 0.1279   -0.303195
 C 0.0087 0.3914 0.0766   0.717007
 C 0.2098 0.4526 0.8838   0.18255
 C 0.3091 0.4751 0.8879   -0.226133
 C 0.3639 0.4483 0.9397   0.118033
 C 0.3172 0.3918 0.9824   -0.22499
 C 0.2181 0.3721 0.975   0.176991
 C 0.4634 0.49 0.9531   -0.055285
 C 0.7808 0.4367 0.903   0.176645
 C 0.6816 0.4495 0.9145   -0.237745
 C 0.6394 0.4129 0.9682   0.136935
 C 0.7002 0.3576 0.0048   -0.2221
 C 0.799 0.3477 0.9888   0.179052
 C 0.5384 0.4345 0.9935   -0.071106
 C 0.0076 0.2689 0.8502   0.665166
 C 0.012 0.1995 0.7988   -0.274311
 C 0.0091 0.2213 0.7387   -0.016394
 C 0.0111 0.1554 0.6879   -0.009271
 C 0.0058 0.1766 0.6279   -0.303195
 C 0.0087 0.1086 0.5766   0.717007
 C 0.7902 0.9526 0.6162   0.18255
 C 0.6909 0.9751 0.6121   -0.226133
 C 0.6361 0.9483 0.5603   0.118033
 C 0.6828 0.8918 0.5176   -0.22499
 C 0.7819 0.8721 0.525   0.176991
 C 0.5366 0.99 0.5469   -0.055285
 C 0.2192 0.9367 0.597   0.176645
 C 0.3184 0.9495 0.5855   -0.237746
 C 0.3606 0.9129 0.5318   0.136935
 C 0.2998 0.8576 0.4952   -0.2221
 C 0.201 0.8477 0.5112   0.179052
 C 0.4616 0.9345 0.5065   -0.071106
 C 0.9924 0.7689 0.6498   0.665166
 C 0.988 0.6995 0.7012   -0.274311
 C 0.9909 0.7213 0.7613   -0.016394
 C 0.9889 0.6554 0.8121   -0.009271
 C 0.9942 0.6766 0.8721   -0.303194
 C 0.9913 0.6086 0.9234   0.717006
 N 0.6636 0.405 0.5728   -0.327399
 N 0.3418 0.3884 0.5596   -0.325918
 N 0.3364 0.905 0.9272   -0.327399
 N 0.6582 0.8884 0.9404   -0.325918
 N 0.3364 0.595 0.4272   -0.327399
 N 0.6582 0.6116 0.4404   -0.325918
 N 0.6636 0.095 0.0728   -0.327399
 N 0.3418 0.1116 0.0596   -0.325918
 N 0.8364 0.595 0.0728   -0.327399
 N 0.1582 0.6116 0.0596   -0.325918
 N 0.1636 0.095 0.4272   -0.327399
 N 0.8418 0.1116 0.4404   -0.325918
 N 0.1636 0.405 0.9272   -0.327399
 N 0.8418 0.3884 0.9404   -0.325918
 N 0.8364 0.905 0.5728   -0.327399
 N 0.1582 0.8884 0.5596   -0.325918
 O 0.4989 0.352 0.66364   -0.617118
 O 0.5111 0.242 0.5943   -0.60525
 O 0.5133 0.1421 0.97744   -0.604073
 O 0.5079 0.0277 0.9088   -0.606892
 O 0.5011 0.852 0.83636   -0.617118
 O 0.4889 0.742 0.9057   -0.60525
 O 0.4867 0.6421 0.52256   -0.604073
 O 0.4921 0.5277 0.5912   -0.606892
 O 0.5011 0.648 0.33636   -0.617118
 O 0.4889 0.758 0.4057   -0.60525
 O 0.4867 0.8579 0.02256   -0.604073
 O 0.4921 0.9723 0.0912   -0.606892
 O 0.4989 0.148 0.16364   -0.617118
 O 0.5111 0.258 0.0943   -0.60525
 O 0.5133 0.3579 0.47744   -0.604073
 O 0.5079 0.4723 0.4088   -0.606892
 O 0.0011 0.648 0.16364   -0.617118
 O 0.9889 0.758 0.0943   -0.60525
 O 0.9867 0.8579 0.47744   -0.604073
 O 0.9921 0.9723 0.4088   -0.606892
 O 0.9989 0.148 0.33636   -0.617118
 O 0.0111 0.258 0.4057   -0.60525
 O 0.0133 0.3579 0.02256   -0.604073
 O 0.0079 0.4723 0.0912   -0.606892
 O 0.9989 0.352 0.83636   -0.617118
 O 0.0111 0.242 0.9057   -0.60525
 O 0.0133 0.1421 0.52256   -0.604073
 O 0.0079 0.0277 0.5912   -0.606892
 O 0.0011 0.852 0.66364   -0.617118
 O 0.9889 0.742 0.5943   -0.60525
 O 0.9867 0.6421 0.97744   -0.604073
 O 0.9921 0.5277 0.9088   -0.606892
