{'_ref': 'TBD', '_srcid': 'CAKYAQ_clean', 'submitters': [{'name': 'Dalar Nazarian Jeff Camp and David Sholl', 'email': 'dalar@gatech.edu jcamp6@gatech.edu'}], '_method': 'VASP DFT with PBE;DDEC'}
data_NdH8(C2O)8
_symmetry_space_group_name_H-M   'P 1'
_cell_length_a   12.22900000
_cell_length_b   14.43999952
_cell_length_c   14.51520000
_cell_angle_alpha   104.65699922
_cell_angle_beta   90.00000000
_cell_angle_gamma   90.00000000
_symmetry_Int_Tables_number   1
_chemical_formula_structural   NdH8(C2O)8
_chemical_formula_sum   'Nd4 H32 C64 O32'
_cell_volume   2479.78047036
_cell_formula_units_Z   4
loop_
 _symmetry_equiv_pos_site_id
 _symmetry_equiv_pos_as_xyz
  1  'x, y, z'
loop_
 _atom_site_label
 _atom_site_fract_x
 _atom_site_fract_y
 _atom_site_fract_z
 _atom_site_charge
 Nd 0.05608 0.92649 0.09311   2.276677
 Nd 0.55608 0.57351 0.40689   2.276677
 Nd 0.94392 0.07351 0.90689   2.276677
 Nd 0.44392 0.42649 0.59311   2.276677
 H 0.7326 0.7089 0.9526   0.117251
 H 0.633 0.6183 0.827   0.093368
 H 0.7794 0.7473 0.6494   0.108372
 H 0.8731 0.8456 0.7751   0.099142
 H 0.3552 0.0787 0.0863   0.090459
 H 0.512 0.8346 0.964   0.096894
 H 0.9389 0.8546 0.4075   0.118109
 H 0.0847 0.1083 0.4285   0.117462
 H 0.2326 0.7911 0.5474   0.117251
 H 0.133 0.8817 0.673   0.093368
 H 0.2794 0.7527 0.8506   0.108372
 H 0.3731 0.6544 0.7249   0.099142
 H 0.8552 0.4213 0.4137   0.090459
 H 0.012 0.6654 0.536   0.096894
 H 0.4389 0.6454 0.0925   0.118109
 H 0.5847 0.3917 0.0715   0.117462
 H 0.2674 0.2911 0.0474   0.117251
 H 0.367 0.3817 0.173   0.093368
 H 0.2206 0.2527 0.3506   0.108372
 H 0.1269 0.1544 0.2249   0.099142
 H 0.6448 0.9213 0.9137   0.090457
 H 0.488 0.1654 0.036   0.096892
 H 0.0611 0.1454 0.5925   0.118109
 H 0.9153 0.8917 0.5715   0.117463
 H 0.7674 0.2089 0.4526   0.117251
 H 0.867 0.1183 0.327   0.093368
 H 0.7206 0.2473 0.1494   0.108372
 H 0.6269 0.3456 0.2751   0.099142
 H 0.1448 0.5787 0.5863   0.090457
 H 0.988 0.3346 0.464   0.096892
 H 0.5611 0.3546 0.9075   0.118109
 H 0.4153 0.6083 0.9285   0.117463
 C 0.815 0.7852 0.8771   -0.114347
 C 0.7423 0.7175 0.8918   -0.051647
 C 0.6835 0.6624 0.8161   -0.031034
 C 0.6984 0.6717 0.7251   -0.124374
 C 0.7695 0.7399 0.7107   -0.034822
 C 0.827 0.7982 0.7857   -0.035172
 C 0.8811 0.843 0.9578   0.747356
 C 0.6371 0.6096 0.6423   0.763176
 C 0.331 0.8935 0.0665   0.67037
 C 0.4178 0.947 0.0313   -0.104752
 C 0.4138 0.0468 0.0514   -0.030446
 C 0.5068 0.901 0.9786   -0.054848
 C 0.0346 0.9515 0.2968   0.643064
 C 0.0168 0.9761 0.4015   -0.095753
 C 0.9641 0.9128 0.4447   -0.032804
 C 0.0514 0.0646 0.4569   -0.050903
 C 0.315 0.7148 0.6229   -0.114347
 C 0.2423 0.7825 0.6082   -0.051648
 C 0.1835 0.8376 0.6839   -0.031034
 C 0.1984 0.8283 0.7749   -0.124373
 C 0.2695 0.7601 0.7893   -0.034822
 C 0.327 0.7018 0.7143   -0.035171
 C 0.3811 0.657 0.5422   0.747356
 C 0.1371 0.8904 0.8577   0.763176
 C 0.831 0.6065 0.4335   0.67037
 C 0.9178 0.553 0.4687   -0.104752
 C 0.9138 0.4532 0.4486   -0.030446
 C 0.0068 0.599 0.5214   -0.054848
 C 0.5346 0.5485 0.2032   0.643064
 C 0.5168 0.5239 0.0985   -0.095753
 C 0.4641 0.5872 0.0553   -0.032804
 C 0.5514 0.4354 0.0431   -0.050903
 C 0.185 0.2148 0.1229   -0.114347
 C 0.2577 0.2825 0.1082   -0.051648
 C 0.3165 0.3376 0.1839   -0.031034
 C 0.3016 0.3283 0.2749   -0.124373
 C 0.2305 0.2601 0.2893   -0.034821
 C 0.173 0.2018 0.2143   -0.035172
 C 0.1189 0.157 0.0422   0.747356
 C 0.3629 0.3904 0.3577   0.763176
 C 0.669 0.1065 0.9335   0.67037
 C 0.5822 0.053 0.9687   -0.104756
 C 0.5862 0.9532 0.9486   -0.030433
 C 0.4932 0.099 0.0214   -0.054836
 C 0.9654 0.0485 0.7032   0.643064
 C 0.9832 0.0239 0.5985   -0.095753
 C 0.0359 0.0872 0.5553   -0.032805
 C 0.9486 0.9354 0.5431   -0.050904
 C 0.685 0.2852 0.3771   -0.114347
 C 0.7577 0.2175 0.3918   -0.051648
 C 0.8165 0.1624 0.3161   -0.031034
 C 0.8016 0.1717 0.2251   -0.124373
 C 0.7305 0.2399 0.2107   -0.034821
 C 0.673 0.2982 0.2857   -0.035171
 C 0.6189 0.343 0.4578   0.747356
 C 0.8629 0.1096 0.1423   0.763176
 C 0.169 0.3935 0.5665   0.67037
 C 0.0822 0.447 0.5313   -0.104756
 C 0.0862 0.5468 0.5514   -0.030433
 C 0.9932 0.401 0.4786   -0.054836
 C 0.4654 0.4515 0.7968   0.643064
 C 0.4832 0.4761 0.9015   -0.095753
 C 0.5359 0.4128 0.9447   -0.032805
 C 0.4486 0.5646 0.9569   -0.050904
 O 0.9033 0.8107 0.0268   -0.63258
 O 0.9139 0.9256 0.9538   -0.841873
 O 0.6355 0.6338 0.5653   -0.70789
 O 0.5932 0.5352 0.6567   -0.676511
 O 0.34 0.803 0.0502   -0.445218
 O 0.2513 0.9406 0.111   -0.665023
 O 0.1007 0.0018 0.2634   -0.611078
 O 0.9862 0.8811 0.2434   -0.600632
 O 0.4033 0.6893 0.4732   -0.63258
 O 0.4139 0.5744 0.5462   -0.841873
 O 0.1355 0.8662 0.9347   -0.70789
 O 0.0932 0.9648 0.8433   -0.676511
 O 0.84 0.697 0.4498   -0.445218
 O 0.7513 0.5594 0.389   -0.665023
 O 0.6007 0.4982 0.2366   -0.611078
 O 0.4862 0.6189 0.2566   -0.600632
 O 0.0967 0.1893 0.9732   -0.63258
 O 0.0861 0.0744 0.0462   -0.841873
 O 0.3645 0.3662 0.4347   -0.70789
 O 0.4068 0.4648 0.3433   -0.676511
 O 0.66 0.197 0.9498   -0.445218
 O 0.7487 0.0594 0.889   -0.665023
 O 0.8993 0.9982 0.7366   -0.611078
 O 0.0138 0.1189 0.7566   -0.600632
 O 0.5967 0.3107 0.5268   -0.63258
 O 0.5861 0.4256 0.4538   -0.841873
 O 0.8645 0.1338 0.0653   -0.70789
 O 0.9068 0.0352 0.1567   -0.676511
 O 0.16 0.303 0.5502   -0.445218
 O 0.2487 0.4406 0.611   -0.665023
 O 0.3993 0.5018 0.7634   -0.611078
 O 0.5138 0.3811 0.7434   -0.600632
