{'_ref': 'TBD', '_srcid': 'CAKYAQ_clean', 'submitters': [{'name': 'Dalar Nazarian Jeff Camp and David Sholl', 'email': 'dalar@gatech.edu jcamp6@gatech.edu'}], '_method': 'VASP DFT with PBE;DDEC'}
data_DyH6(C2O)6
_symmetry_space_group_name_H-M   'P 1'
_cell_length_a   9.82830031
_cell_length_b   10.43619976
_cell_length_c   11.07600000
_cell_angle_alpha   76.89399854
_cell_angle_beta   76.29600025
_cell_angle_gamma   65.99900168
_symmetry_Int_Tables_number   1
_chemical_formula_structural   DyH6(C2O)6
_chemical_formula_sum   'Dy2 H12 C24 O12'
_cell_volume   997.354899397
_cell_formula_units_Z   2
loop_
 _symmetry_equiv_pos_site_id
 _symmetry_equiv_pos_as_xyz
  1  'x, y, z'
loop_
 _atom_site_label
 _atom_site_fract_x
 _atom_site_fract_y
 _atom_site_fract_z
 _atom_site_charge
 Dy 0.94493 0.22808 0.82291   2.203463
 Dy 0.05507 0.77192 0.17709   2.203457
 H 0.3078 0.9222 0.5063   0.116429
 H 0.4552 0.1849 0.6049   0.088678
 H 0.4357 0.4149 0.709   0.109948
 H 0.74 0.5023 0.4238   0.118565
 H 0.6003 0.1182 0.821   0.112678
 H 0.6494 0.8596 0.1501   0.099097
 H 0.6922 0.0778 0.4937   0.116429
 H 0.5448 0.8151 0.3951   0.088678
 H 0.5643 0.5851 0.291   0.109949
 H 0.26 0.4977 0.5762   0.118565
 H 0.3997 0.8818 0.179   0.112677
 H 0.3506 0.1404 0.8499   0.099097
 C 0.3569 0.0651 0.5674   -0.107009
 C 0.3846 0.9535 0.5039   -0.063304
 C 0.4731 0.1106 0.5627   -0.060557
 C 0.2054 0.1316 0.6456   0.690401
 C 0.608 0.4486 0.5793   -0.102642
 C 0.4615 0.4487 0.6251   -0.068762
 C 0.6439 0.501 0.4544   -0.050517
 C 0.7236 0.3893 0.6651   0.6949
 C 0.6493 0.9861 0.983   -0.164701
 C 0.56 0.0708 0.8927   -0.037365
 C 0.5895 0.9159 0.0898   -0.040315
 C 0.8096 0.9768 0.9669   0.846294
 C 0.6431 0.9349 0.4326   -0.107008
 C 0.6154 0.0465 0.4961   -0.063306
 C 0.5269 0.8894 0.4373   -0.060558
 C 0.7946 0.8684 0.3544   0.690401
 C 0.392 0.5514 0.4207   -0.102643
 C 0.5385 0.5513 0.3749   -0.06876
 C 0.3561 0.499 0.5456   -0.050514
 C 0.2764 0.6107 0.3349   0.6949
 C 0.3507 0.0139 0.017   -0.164705
 C 0.44 0.9292 0.1073   -0.037356
 C 0.4105 0.0841 0.9102   -0.040305
 C 0.1904 0.0232 0.0331   0.846294
 O 0.17234 0.24758 0.68167   -0.688265
 O 0.1167 0.0647 0.67817   -0.665972
 O 0.6851 0.35 0.7796   -0.770393
 O 0.858 0.3768 0.62319   -0.685168
 O 0.85732 0.04738 0.8723   -0.72702
 O 0.884 0.8977 0.05058   -0.848469
 O 0.82766 0.75242 0.31833   -0.688265
 O 0.8833 0.9353 0.32183   -0.665972
 O 0.3149 0.65 0.2204   -0.770393
 O 0.142 0.6232 0.37681   -0.685168
 O 0.14268 0.95262 0.1277   -0.72702
 O 0.116 0.1023 0.94942   -0.848469
