{'_ref': 'TBD', '_srcid': 'CAKYAQ_clean', 'submitters': [{'name': 'Dalar Nazarian Jeff Camp and David Sholl', 'email': 'dalar@gatech.edu jcamp6@gatech.edu'}], '_method': 'VASP DFT with PBE;DDEC'}
data_HoH6(C2O)6
_symmetry_space_group_name_H-M   'P 1'
_cell_length_a   9.81130019
_cell_length_b   10.41880017
_cell_length_c   11.07680000
_cell_angle_alpha   76.72099894
_cell_angle_beta   76.24200165
_cell_angle_gamma   65.93200222
_symmetry_Int_Tables_number   1
_chemical_formula_structural   HoH6(C2O)6
_chemical_formula_sum   'Ho2 H12 C24 O12'
_cell_volume   992.885243538
_cell_formula_units_Z   2
loop_
 _symmetry_equiv_pos_site_id
 _symmetry_equiv_pos_as_xyz
  1  'x, y, z'
loop_
 _atom_site_label
 _atom_site_fract_x
 _atom_site_fract_y
 _atom_site_fract_z
 _atom_site_charge
 Ho 0.94522 0.22825 0.32292   2.098627
 Ho 0.05478 0.77175 0.67708   2.098627
 H 0.4553 0.185 0.1049   0.088725
 H 0.3075 0.9222 0.0068   0.115626
 H 0.4358 0.4156 0.209   0.10962
 H 0.7408 0.5025 0.9234   0.119115
 H 0.3995 0.8824 0.6796   0.111467
 H 0.3496 0.1418 0.3497   0.099977
 H 0.5447 0.815 0.8951   0.088725
 H 0.6925 0.0778 0.9932   0.115626
 H 0.5642 0.5844 0.791   0.10962
 H 0.2592 0.4975 0.0766   0.119114
 H 0.6005 0.1176 0.3204   0.111467
 H 0.6504 0.8582 0.6503   0.099977
 C 0.3565 0.0659 0.0672   -0.104824
 C 0.473 0.1108 0.0627   -0.061127
 C 0.3845 0.9537 0.0041   -0.063099
 C 0.2052 0.1323 0.1464   0.678603
 C 0.6079 0.4483 0.0793   -0.103655
 C 0.4615 0.4491 0.1249   -0.068139
 C 0.6446 0.501 0.9541   -0.050184
 C 0.7242 0.3895 0.1654   0.684164
 C 0.3507 0.0133 0.5168   -0.159943
 C 0.4402 0.9293 0.6074   -0.038633
 C 0.4099 0.0848 0.4097   -0.041362
 C 0.1903 0.023 0.5328   0.828335
 C 0.6435 0.9341 0.9328   -0.104824
 C 0.527 0.8892 0.9373   -0.06113
 C 0.6155 0.0463 0.9959   -0.063101
 C 0.7948 0.8677 0.8536   0.678603
 C 0.3921 0.5517 0.9207   -0.103656
 C 0.5385 0.5509 0.8751   -0.068138
 C 0.3554 0.499 0.0459   -0.050184
 C 0.2758 0.6105 0.8346   0.684164
 C 0.6493 0.9867 0.4832   -0.159944
 C 0.5598 0.0707 0.3926   -0.03863
 C 0.5901 0.9152 0.5903   -0.041359
 C 0.8097 0.977 0.4672   0.828335
 O 0.1157 0.0657 0.17882   -0.647071
 O 0.1728 0.2481 0.18212   -0.666744
 O 0.6862 0.3505 0.27942   -0.73626
 O 0.8591 0.3758 0.12267   -0.656781
 O 0.1419 0.952 0.62777   -0.711148
 O 0.1155 0.1026 0.44864   -0.825289
 O 0.8843 0.9343 0.82118   -0.647071
 O 0.8272 0.7519 0.81788   -0.666744
 O 0.3138 0.6495 0.72058   -0.73626
 O 0.1409 0.6242 0.87733   -0.656781
 O 0.8581 0.048 0.37223   -0.711148
 O 0.8845 0.8974 0.55136   -0.825289
