{'_ref': 'TBD', '_srcid': 'CAKYAQ_clean', 'submitters': [{'name': 'Dalar Nazarian Jeff Camp and David Sholl', 'email': 'dalar@gatech.edu jcamp6@gatech.edu'}], '_method': 'VASP DFT with PBE;DDEC'}
data_Cd2H24(C11O4)3
_symmetry_space_group_name_H-M   'P 1'
_cell_length_a   8.89620008
_cell_length_b   16.57819985
_cell_length_c   16.57820000
_cell_angle_alpha   85.87170090
_cell_angle_beta   74.43630298
_cell_angle_gamma   74.43619916
_symmetry_Int_Tables_number   1
_chemical_formula_structural   Cd2H24(C11O4)3
_chemical_formula_sum   'Cd4 H48 C66 O24'
_cell_volume   2268.98554722
_cell_formula_units_Z   2
loop_
 _symmetry_equiv_pos_site_id
 _symmetry_equiv_pos_as_xyz
  1  'x, y, z'
loop_
 _atom_site_label
 _atom_site_fract_x
 _atom_site_fract_y
 _atom_site_fract_z
 _atom_site_charge
 Cd 0.00931 0.09795 0.53595   1.045127
 Cd 0.64321 0.90205 0.46405   1.045645
 Cd 0.45474 0.53595 0.90205   1.044757
 Cd 0.89274 0.46405 0.09795   1.044961
 H 0.784 0.3723 0.4949   0.066162
 H 0.6682 0.4218 0.4408   0.065757
 H 0.656 0.2779 0.4793   0.126854
 H 0.5045 0.1838 0.4814   0.099771
 H 0.1289 0.3319 0.6463   0.090727
 H 0.2808 0.4235 0.6449   0.112073
 H 0.1286 0.0875 0.9523   0.070094
 H 0.064 0.0553 0.8845   0.073193
 H 0.252 0.1015 0.7971   0.135645
 H 0.4707 0.1288 0.6944   0.097453
 H 0.7755 0.9348 0.7786   0.101788
 H 0.5554 0.9057 0.8771   0.119982
 H 0.6512 0.6277 0.5051   0.06659
 H 0.5308 0.5782 0.5592   0.067539
 H 0.4132 0.7221 0.5207   0.1246
 H 0.1697 0.8162 0.5186   0.100108
 H 0.1071 0.6681 0.3537   0.0908
 H 0.3492 0.5765 0.3551   0.112925
 H 0.1684 0.9125 0.0477   0.07027
 H 0.0038 0.9447 0.1155   0.072827
 H 0.1506 0.8985 0.2029   0.135452
 H 0.2939 0.8712 0.3056   0.097672
 H 0.4889 0.0652 0.2214   0.100421
 H 0.3382 0.0943 0.1229   0.120577
 H 0.7211 0.4949 0.6277   0.067347
 H 0.891 0.4408 0.5782   0.067305
 H 0.8647 0.4793 0.7221   0.126921
 H 0.0141 0.4814 0.8162   0.099822
 H 0.2248 0.6463 0.6681   0.090681
 H 0.0743 0.6449 0.5765   0.112085
 H 0.9191 0.9523 0.9125   0.071237
 H 0.0515 0.8845 0.9447   0.072516
 H 0.9509 0.7971 0.8985   0.13554
 H 0.8349 0.6944 0.8712   0.098196
 H 0.4459 0.7786 0.0652   0.102684
 H 0.5675 0.8771 0.0943   0.119474
 H 0.8437 0.5051 0.3723   0.067029
 H 0.91 0.5592 0.4218   0.065425
 H 0.0661 0.5207 0.2779   0.126883
 H 0.3117 0.5186 0.1838   0.099416
 H 0.5392 0.3537 0.3319   0.089812
 H 0.2957 0.3551 0.4235   0.112863
 H 0.7839 0.0477 0.0875   0.070183
 H 0.8807 0.1155 0.0553   0.072765
 H 0.6465 0.2029 0.1015   0.1363
 H 0.4005 0.3056 0.1288   0.097442
 H 0.2897 0.2214 0.9348   0.103907
 H 0.5389 0.1229 0.9057   0.119331
 C 0.6968 0.4217 0.4933   0.072601
 C 0.4805 0.3613 0.5605   0.304205
 C 0.5501 0.2884 0.512   -0.265015
 C 0.4591 0.2322 0.5136   0.041275
 C 0.299 0.2472 0.563   -0.206437
 C 0.2342 0.321 0.6126   0.011043
 C 0.3242 0.376 0.6114   -0.2262
 C 0.1947 0.1919 0.5591   0.683583
 C 0.1117 0.0384 0.9312   0.067695
 C 0.3838 0.9986 0.8454   0.299059
 C 0.356 0.0675 0.7921   -0.270694
 C 0.4878 0.0843 0.7313   0.016143
 C 0.6413 0.0359 0.7259   -0.192973
 C 0.6711 0.9672 0.7816   -0.007054
 C 0.5389 0.9504 0.8404   -0.226785
 C 0.7803 0.0544 0.66   0.67031
 C 0.6118 0.5783 0.5067   0.070505
 C 0.4023 0.6387 0.4395   0.306515
 C 0.3505 0.7116 0.488   -0.262744
 C 0.2049 0.7678 0.4864   0.040347
 C 0.1092 0.7528 0.437   -0.207111
 C 0.1678 0.679 0.3874   0.013917
 C 0.3116 0.624 0.3886   -0.230886
 C 0.9457 0.8081 0.4409   0.684396
 C 0.0813 0.9616 0.0688   0.068303
 C 0.2278 0.0014 0.1546   0.298744
 C 0.2156 0.9325 0.2079   -0.269812
 C 0.3034 0.9157 0.2687   0.018137
 C 0.4031 0.9641 0.2741   -0.196657
 C 0.4199 0.0328 0.2184   -0.002944
 C 0.3297 0.0496 0.1596   -0.229645
 C 0.4947 0.9456 0.34   0.670962
 C 0.8099 0.4933 0.5783   0.069141
 C 0.959 0.5605 0.6387   0.302107
 C 0.9379 0.512 0.7116   -0.265591
 C 0.0273 0.5136 0.7678   0.043084
 C 0.138 0.563 0.7528   -0.208209
 C 0.1532 0.6126 0.679   0.011064
 C 0.0644 0.6114 0.624   -0.224889
 C 0.2462 0.5591 0.8081   0.684002
 C 0.9571 0.9312 0.9616   0.067283
 C 0.7708 0.8454 0.0014   0.300302
 C 0.8519 0.7921 0.9325   -0.268728
 C 0.7809 0.7313 0.9157   0.013194
 C 0.6328 0.7259 0.9641   -0.189415
 C 0.5473 0.7816 0.0328   -0.010309
 C 0.6207 0.8404 0.0496   -0.225964
 C 0.5597 0.66 0.9456   0.671159
 C 0.8815 0.5067 0.4217   0.071911
 C 0.1582 0.4395 0.3613   0.303671
 C 0.1615 0.488 0.2884   -0.265793
 C 0.3087 0.4864 0.2322   0.042442
 C 0.4538 0.437 0.2472   -0.209207
 C 0.4448 0.3874 0.321   0.014909
 C 0.2998 0.3886 0.376   -0.230283
 C 0.6134 0.4409 0.1919   0.686963
 C 0.8499 0.0688 0.0384   0.06929
 C 0.6176 0.1546 0.9986   0.29829
 C 0.5765 0.2079 0.0675   -0.272014
 C 0.4279 0.2687 0.0843   0.015411
 C 0.3228 0.2741 0.0359   -0.188575
 C 0.3617 0.2184 0.9672   -0.011546
 C 0.5107 0.1596 0.9504   -0.224013
 C 0.1653 0.34 0.0544   0.669319
 C 0.75 0.5 0.5   -0.038226
 C 0.0 0.0 0.0   -0.03432
 O 0.56034 0.42066 0.56186   -0.269094
 O 0.2624 0.1191 0.5277   -0.624401
 O 0.0474 0.2167 0.5839   -0.591831
 O 0.2631 0.97625 0.90455   -0.272754
 O 0.751 0.0907 0.5935   -0.603911
 O 0.9192 0.0352 0.6718   -0.595823
 O 0.54286 0.57934 0.43814   -0.269385
 O 0.9092 0.8809 0.4723   -0.625241
 O 0.848 0.7833 0.4161   -0.591542
 O 0.1439 0.02375 0.09545   -0.272791
 O 0.4352 0.9093 0.4065   -0.603013
 O 0.6262 0.9648 0.3282   -0.597004
 O 0.8778 0.56186 0.57934   -0.266836
 O 0.2099 0.5277 0.8809   -0.624739
 O 0.3687 0.5839 0.7833   -0.591943
 O 0.83235 0.90455 0.02375   -0.274159
 O 0.6555 0.5935 0.9093   -0.603626
 O 0.409 0.6718 0.9648   -0.597863
 O 0.019 0.43814 0.42066   -0.266654
 O 0.6185 0.4723 0.1191   -0.62484
 O 0.7359 0.4161 0.2167   -0.59299
 O 0.76065 0.09545 0.97625   -0.273702
 O 0.1583 0.4065 0.0907   -0.603073
 O 0.0456 0.3282 0.0352   -0.59696
