{'_ref': 'TBD', '_srcid': 'CAKYAQ_clean', 'submitters': [{'name': 'Dalar Nazarian Jeff Camp and David Sholl', 'email': 'dalar@gatech.edu jcamp6@gatech.edu'}], '_method': 'VASP DFT with PBE;DDEC'}
data_Cu2C25S(OF)3
_symmetry_space_group_name_H-M   'P 1'
_cell_length_a   9.40900033
_cell_length_b   10.87520037
_cell_length_c   17.34510000
_cell_angle_alpha   77.39839912
_cell_angle_beta   74.26259847
_cell_angle_gamma   64.36799766
_symmetry_Int_Tables_number   1
_chemical_formula_structural   Cu2C25S(OF)3
_chemical_formula_sum   'Cu4 C50 S2 O6 F6'
_cell_volume   1529.75716778
_cell_formula_units_Z   2
loop_
 _symmetry_equiv_pos_site_id
 _symmetry_equiv_pos_as_xyz
  1  'x, y, z'
loop_
 _atom_site_label
 _atom_site_fract_x
 _atom_site_fract_y
 _atom_site_fract_z
 _atom_site_charge
 Cu 0.1819 0.5677 0.0667   0.473776
 Cu 0.0687 0.9237 0.4271   0.626116
 Cu 0.8163 0.4323 0.9333   0.473746
 Cu 0.4195 0.0763 0.5729   0.625936
 C 0.1487 0.9359 0.8883   0.002525
 C 0.1982 0.7856 0.9202   -0.107031
 C 0.1093 0.7658 0.0052   -0.060789
 C 0.0317 0.7805 0.0727   -0.029274
 C 0.9223 0.8424 0.1452   -0.034073
 C 0.9788 0.9977 0.8737   0.058672
 C 0.2308 0.3846 0.145   -0.033433
 C 0.1019 0.4591 0.1731   -0.026985
 C 0.9425 0.5174 0.226   -0.038384
 C 0.9092 0.4118 0.2946   0.025822
 C 0.8761 0.3101 0.2629   -0.031579
 C 0.8705 0.1873 0.3273   0.039146
 C 0.0362 0.0902 0.3384   -0.05153
 C 0.1801 0.0376 0.3338   -0.038496
 C 0.3504 0.0063 0.3149   0.032364
 C 0.3866 0.1218 0.26   0.065439
 C 0.3811 0.1314 0.1726   -0.017102
 C 0.3902 0.2637 0.1233   -0.102365
 C 0.1666 0.7321 0.4977   0.019124
 C 0.2449 0.7187 0.4315   -0.068845
 C 0.3641 0.6555 0.3593   -0.017033
 C 0.4422 0.4993 0.3749   0.000886
 C 0.3251 0.4342 0.382   0.01056
 C 0.0851 0.7179 0.5835   0.0012
 C 0.934 0.2847 0.5577   0.45318
 C 0.9729 0.0641 0.1117   0.002437
 C 0.904 0.2144 0.0798   -0.107067
 C 0.8803 0.2342 0.9948   -0.061125
 C 0.8849 0.2195 0.9273   -0.028448
 C 0.9099 0.1576 0.8548   -0.034194
 C 0.8502 0.0023 0.1263   0.058269
 C 0.7604 0.6154 0.855   -0.032284
 C 0.7341 0.5409 0.8269   -0.027385
 C 0.6859 0.4826 0.774   -0.039558
 C 0.6156 0.5882 0.7054   0.026428
 C 0.4491 0.6899 0.7371   -0.031564
 C 0.3851 0.8127 0.6727   0.039064
 C 0.4648 0.9098 0.6616   -0.05188
 C 0.5515 0.9624 0.6662   -0.03788
 C 0.6716 0.9937 0.6851   0.032443
 C 0.7684 0.8782 0.74   0.065164
 C 0.6851 0.8686 0.8274   -0.01709
 C 0.7772 0.7363 0.8767   -0.102567
 C 0.3964 0.2679 0.5023   0.018273
 C 0.3951 0.2813 0.5685   -0.068184
 C 0.3789 0.3445 0.6407   -0.017163
 C 0.3164 0.5007 0.6251   0.000726
 C 0.1413 0.5658 0.618   0.01095
 C 0.3865 0.2821 0.4165   0.00184
 C 0.7764 0.7153 0.4423   0.45463
 S 0.0461 0.0988 0.5768   1.146532
 S 0.7217 0.9012 0.4232   1.146807
 O 0.9767 0.0455 0.5341   -0.593163
 O 0.0123 0.0693 0.6631   -0.587205
 O 0.2124 0.0789 0.5411   -0.618329
 O 0.5563 0.9545 0.4659   -0.592818
 O 0.7447 0.9307 0.3369   -0.587214
 O 0.8324 0.9211 0.4589   -0.618759
 F 0.7808 0.3151 0.5831   -0.153774
 F 0.9769 0.3489 0.5983   -0.18577
 F 0.9655 0.3279 0.4815   -0.160267
 F 0.679 0.6849 0.4169   -0.154088
 F 0.9241 0.6511 0.4017   -0.186319
 F 0.7749 0.6721 0.5185   -0.161043
