{'_ref': 'TBD', '_srcid': 'CAKYAQ_clean', 'submitters': [{'name': 'Dalar Nazarian Jeff Camp and David Sholl', 'email': 'dalar@gatech.edu jcamp6@gatech.edu'}], '_method': 'VASP DFT with PBE;DDEC'}
data_Ni2MoH60C32(N5O)4
_symmetry_space_group_name_H-M   'P 1'
_cell_length_a   15.22459963
_cell_length_b   15.22459968
_cell_length_c   16.68600000
_cell_angle_alpha   106.34200090
_cell_angle_beta   106.34200095
_cell_angle_gamma   110.90699799
_symmetry_Int_Tables_number   1
_chemical_formula_structural   Ni2MoH60C32(N5O)4
_chemical_formula_sum   'Ni4 Mo2 H120 C64 N40 O8'
_cell_volume   3136.86491217
_cell_formula_units_Z   2
loop_
 _symmetry_equiv_pos_site_id
 _symmetry_equiv_pos_as_xyz
  1  'x, y, z'
loop_
 _atom_site_label
 _atom_site_fract_x
 _atom_site_fract_y
 _atom_site_fract_z
 _atom_site_charge
 Ni 0.0 0.5 0.0   0.465735
 Ni 0.5 0.0 0.5   0.465735
 Ni 0.0 0.0 0.5   0.490417
 Ni 0.0 0.0 0.0   0.490417
 Mo 0.87129 0.12871 0.75   -0.143711
 Mo 0.12871 0.87129 0.25   -0.143711
 H 0.1283 0.4221 0.9015   0.083904
 H 0.2385 0.5195 0.9657   0.070573
 H 0.0971 0.3527 0.018   0.089618
 H 0.2152 0.4272 0.081   0.044018
 H 0.0061 0.3965 0.1897   0.066929
 H 0.9688 0.3314 0.084   0.07655
 H 0.1686 0.6302 0.9557   0.091443
 H 0.1404 0.5546 0.8555   0.076221
 H 0.8384 0.0262 0.4045   0.083121
 H 0.7939 0.9619 0.298   0.063277
 H 0.7524 0.8602 0.4111   0.067957
 H 0.7259 0.7851 0.3107   0.062379
 H 0.8781 0.7487 0.5289   0.062388
 H 0.8502 0.84 0.5458   0.083314
 H 0.9425 0.1019 0.3278   0.055441
 H 0.9826 0.0212 0.334   0.098038
 H 0.1526 0.5444 0.2643   0.098021
 H 0.2199 0.5843 0.214   0.052517
 H 0.2602 0.4794 0.3231   0.045912
 H 0.3255 0.5133 0.2693   0.011549
 H 0.8725 0.6637 0.3973   0.081257
 H 0.8976 0.7328 0.3449   0.057012
 H 0.6973 0.5695 0.2804   0.045479
 H 0.7373 0.6303 0.2251   0.02438
 H 0.1904 0.5634 0.0729   0.239171
 H 0.978 0.4596 0.8362   0.269723
 H 0.8937 0.8773 0.3328   0.276269
 H 0.9775 0.1527 0.4834   0.285524
 H 0.4086 0.6546 0.364   0.354028
 H 0.8534 0.5744 0.2315   0.367904
 H 0.5779 0.8717 0.5985   0.083904
 H 0.4805 0.7615 0.5343   0.070576
 H 0.6473 0.9029 0.482   0.089615
 H 0.5728 0.7848 0.419   0.044019
 H 0.6035 0.9939 0.3103   0.066933
 H 0.6686 0.0312 0.416   0.076547
 H 0.3698 0.8314 0.5443   0.091447
 H 0.4454 0.8596 0.6445   0.076224
 H 0.9738 0.1616 0.0955   0.083117
 H 0.0381 0.2061 0.202   0.063277
 H 0.1398 0.2476 0.0889   0.067953
 H 0.2149 0.2741 0.1893   0.062379
 H 0.2513 0.1219 0.9711   0.062388
 H 0.16 0.1498 0.9542   0.083313
 H 0.8981 0.0575 0.1722   0.05545
 H 0.9788 0.0174 0.166   0.09804
 H 0.4556 0.8474 0.2357   0.098022
 H 0.4157 0.7801 0.286   0.052517
 H 0.5206 0.7398 0.1769   0.045914
 H 0.4867 0.6745 0.2307   0.011558
 H 0.3363 0.1275 0.1027   0.081257
 H 0.2672 0.1024 0.1551   0.057012
 H 0.4305 0.3027 0.2196   0.045484
 H 0.3697 0.2627 0.2749   0.024382
 H 0.4366 0.8096 0.4271   0.239174
 H 0.5404 0.022 0.6638   0.269723
 H 0.1227 0.1063 0.1672   0.276269
 H 0.8473 0.0225 0.0166   0.285523
 H 0.3454 0.5914 0.136   0.354039
 H 0.4256 0.1466 0.2685   0.367904
 H 0.8717 0.5779 0.0985   0.083902
 H 0.7615 0.4805 0.0343   0.070573
 H 0.9029 0.6473 0.982   0.089618
 H 0.7848 0.5728 0.919   0.044018
 H 0.9939 0.6035 0.8103   0.066944
 H 0.0312 0.6686 0.916   0.076547
 H 0.8314 0.3698 0.0443   0.091447
 H 0.8596 0.4454 0.1445   0.076233
 H 0.1616 0.9738 0.5955   0.083121
 H 0.2061 0.0381 0.702   0.063276
 H 0.2476 0.1398 0.5889   0.067957
 H 0.2741 0.2149 0.6893   0.06238
 H 0.1219 0.2513 0.4711   0.062399
 H 0.1498 0.16 0.4542   0.083314
 H 0.0575 0.8981 0.6722   0.055448
 H 0.0174 0.9788 0.666   0.098039
 H 0.8474 0.4556 0.7357   0.098022
 H 0.7801 0.4157 0.786   0.052517
 H 0.7398 0.5206 0.6769   0.045918
 H 0.6745 0.4867 0.7307   0.011549
 H 0.1275 0.3363 0.6027   0.081276
 H 0.1024 0.2672 0.6551   0.057014
 H 0.3027 0.4305 0.7196   0.045479
 H 0.2627 0.3697 0.7749   0.02438
 H 0.8096 0.4366 0.9271   0.239171
 H 0.022 0.5404 0.1638   0.269723
 H 0.1063 0.1227 0.6672   0.276269
 H 0.0225 0.8473 0.5166   0.285533
 H 0.5914 0.3454 0.636   0.354028
 H 0.1466 0.4256 0.7685   0.367902
 H 0.4221 0.1283 0.4015   0.083902
 H 0.5195 0.2385 0.4657   0.070576
 H 0.3527 0.0971 0.518   0.089615
 H 0.4272 0.2152 0.581   0.044019
 H 0.3965 0.0061 0.6897   0.066947
 H 0.3314 0.9688 0.584   0.076544
 H 0.6302 0.1686 0.4557   0.09145
 H 0.5546 0.1404 0.3555   0.076236
 H 0.0262 0.8384 0.9045   0.083117
 H 0.9619 0.7939 0.798   0.063277
 H 0.8602 0.7524 0.9111   0.067953
 H 0.7851 0.7259 0.8107   0.062379
 H 0.7487 0.8781 0.0289   0.062399
 H 0.84 0.8502 0.0458   0.083313
 H 0.1019 0.9425 0.8278   0.055456
 H 0.0212 0.9826 0.834   0.09804
 H 0.5444 0.1526 0.7643   0.098023
 H 0.5843 0.2199 0.714   0.052517
 H 0.4794 0.2602 0.8231   0.04592
 H 0.5133 0.3255 0.7693   0.011559
 H 0.6637 0.8725 0.8973   0.081276
 H 0.7328 0.8976 0.8449   0.057014
 H 0.5695 0.6973 0.7804   0.045484
 H 0.6303 0.7373 0.7251   0.024382
 H 0.5634 0.1904 0.5729   0.239174
 H 0.4596 0.978 0.3362   0.269723
 H 0.8773 0.8937 0.8328   0.276269
 H 0.1527 0.9775 0.9834   0.285533
 H 0.6546 0.4086 0.864   0.354039
 H 0.5744 0.8534 0.7315   0.367902
 C 0.90235 0.26625 0.8559   0.117809
 C 0.92116 0.25544 0.7138   0.170755
 C 0.89417 0.07003 0.6294   0.147826
 C 0.81472 0.96388 0.7018   0.128872
 C 0.16453 0.49347 0.9476   0.004082
 C 0.14664 0.42176 0.0663   0.142125
 C 0.01422 0.39978 0.1348   0.136879
 C 0.12876 0.55824 0.9103   -0.006037
 C 0.85164 0.98936 0.3563   -0.011108
 C 0.77968 0.82712 0.3734   0.153314
 C 0.87965 0.80515 0.5122   0.139576
 C 0.95185 0.06015 0.3597   -0.002271
 C 0.1939 0.5293 0.2329   -0.040462
 C 0.28549 0.53131 0.3008   0.158094
 C 0.84334 0.69246 0.3587   -0.028392
 C 0.7574 0.6044 0.2703   0.167591
 C 0.73375 0.09765 0.6441   0.117803
 C 0.74456 0.07884 0.7862   0.17075
 C 0.92997 0.10583 0.8706   0.147824
 C 0.03612 0.18528 0.7982   0.128869
 C 0.50653 0.83547 0.5524   0.004081
 C 0.57824 0.85336 0.4337   0.142126
 C 0.60022 0.98578 0.3652   0.136879
 C 0.44176 0.87124 0.5897   -0.006039
 C 0.01064 0.14836 0.1437   -0.011107
 C 0.17288 0.22032 0.1266   0.153315
 C 0.19485 0.12035 0.9878   0.139576
 C 0.93985 0.04815 0.1403   -0.002275
 C 0.4707 0.8061 0.2671   -0.040461
 C 0.46869 0.71451 0.1992   0.158091
 C 0.30754 0.15666 0.1413   -0.028391
 C 0.3956 0.2426 0.2297   0.167589
 C 0.09765 0.73375 0.1441   0.117808
 C 0.07884 0.74456 0.2862   0.170755
 C 0.10583 0.92997 0.3706   0.147826
 C 0.18528 0.03612 0.2982   0.128872
 C 0.83547 0.50653 0.0524   0.004083
 C 0.85336 0.57824 0.9337   0.142125
 C 0.98578 0.60022 0.8652   0.136875
 C 0.87124 0.44176 0.0897   -0.006044
 C 0.14836 0.01064 0.6437   -0.011108
 C 0.22032 0.17288 0.6266   0.153313
 C 0.12035 0.19485 0.4878   0.139571
 C 0.04815 0.93985 0.6403   -0.002272
 C 0.8061 0.4707 0.7671   -0.040462
 C 0.71451 0.46869 0.6992   0.158092
 C 0.15666 0.30754 0.6413   -0.028399
 C 0.2426 0.3956 0.7297   0.167592
 C 0.26625 0.90235 0.3559   0.117803
 C 0.25544 0.92116 0.2138   0.17075
 C 0.07003 0.89417 0.1294   0.147824
 C 0.96388 0.81472 0.2018   0.128869
 C 0.49347 0.16453 0.4476   0.004083
 C 0.42176 0.14664 0.5663   0.142126
 C 0.39978 0.01422 0.6348   0.136875
 C 0.55824 0.12876 0.4103   -0.006046
 C 0.98936 0.85164 0.8563   -0.011106
 C 0.82712 0.77968 0.8734   0.153314
 C 0.80515 0.87965 0.0122   0.139572
 C 0.06015 0.95185 0.8597   -0.002276
 C 0.5293 0.1939 0.7329   -0.040461
 C 0.53131 0.28549 0.8008   0.158089
 C 0.69246 0.84334 0.8587   -0.028399
 C 0.6044 0.7574 0.7703   0.16759
 N 0.92106 0.34168 0.9164   -0.415519
 N 0.94478 0.32402 0.6977   -0.512715
 N 0.90978 0.03676 0.5666   -0.427251
 N 0.7893 0.8793 0.6806   -0.506626
 N 0.14158 0.49962 0.0269   -0.361981
 N 0.12613 0.43087 0.1502   -0.357723
 N 0.01586 0.52174 0.8867   -0.375011
 N 0.87468 0.90764 0.3754   -0.360041
 N 0.81522 0.76178 0.4112   -0.386596
 N 0.00982 0.11938 0.46   -0.373797
 N 0.65832 0.07894 0.5836   -0.415519
 N 0.67598 0.05522 0.8023   -0.512715
 N 0.96324 0.09022 0.9334   -0.427251
 N 0.1207 0.2107 0.8194   -0.506626
 N 0.50038 0.85842 0.4731   -0.361982
 N 0.56913 0.87387 0.3498   -0.357723
 N 0.47826 0.98414 0.6133   -0.37501
 N 0.09236 0.12532 0.1246   -0.360042
 N 0.23822 0.18478 0.0888   -0.386597
 N 0.88062 0.99018 0.04   -0.373796
 N 0.07894 0.65832 0.0836   -0.415519
 N 0.05522 0.67598 0.3023   -0.512715
 N 0.09022 0.96324 0.4334   -0.427251
 N 0.2107 0.1207 0.3194   -0.506626
 N 0.85842 0.50038 0.9731   -0.361981
 N 0.87387 0.56913 0.8498   -0.357723
 N 0.98414 0.47826 0.1133   -0.375011
 N 0.12532 0.09236 0.6246   -0.360041
 N 0.18478 0.23822 0.5888   -0.386594
 N 0.99018 0.88062 0.54   -0.373801
 N 0.34168 0.92106 0.4164   -0.415518
 N 0.32402 0.94478 0.1977   -0.512715
 N 0.03676 0.90978 0.0666   -0.427251
 N 0.8793 0.7893 0.1806   -0.506626
 N 0.49962 0.14158 0.5269   -0.361982
 N 0.43087 0.12613 0.6502   -0.357723
 N 0.52174 0.01586 0.3867   -0.37501
 N 0.90764 0.87468 0.8754   -0.360041
 N 0.76178 0.81522 0.9112   -0.386594
 N 0.11938 0.00982 0.96   -0.3738
 O 0.34642 0.62274 0.3716   -0.51184
 O 0.79281 0.53645 0.2387   -0.57973
 O 0.37726 0.65358 0.1284   -0.511842
 O 0.46355 0.20719 0.2613   -0.579728
 O 0.65358 0.37726 0.6284   -0.51184
 O 0.20719 0.46355 0.7613   -0.579729
 O 0.62274 0.34642 0.8716   -0.511841
 O 0.53645 0.79281 0.7387   -0.579728
