{'_ref': 'TBD', '_srcid': 'CAKYAQ_clean', 'submitters': [{'name': 'Dalar Nazarian Jeff Camp and David Sholl', 'email': 'dalar@gatech.edu jcamp6@gatech.edu'}], '_method': 'VASP DFT with PBE;DDEC'}
data_PuP2H2CO6
_symmetry_space_group_name_H-M   'P 1'
_cell_length_a   5.25040040
_cell_length_b   8.28960000
_cell_length_c   16.46290000
_cell_angle_alpha   90.00000000
_cell_angle_beta   93.91200442
_cell_angle_gamma   90.00000000
_symmetry_Int_Tables_number   1
_chemical_formula_structural   PuP2H2CO6
_chemical_formula_sum   'Pu4 P8 H8 C4 O24'
_cell_volume   714.857133523
_cell_formula_units_Z   4
loop_
 _symmetry_equiv_pos_site_id
 _symmetry_equiv_pos_as_xyz
  1  'x, y, z'
loop_
 _atom_site_label
 _atom_site_fract_x
 _atom_site_fract_y
 _atom_site_fract_z
 _atom_site_charge
 Pu 0.85179 0.15709 0.63277   2.610424
 Pu 0.64821 0.65709 0.86723   2.610424
 Pu 0.14821 0.84291 0.36723   2.610409
 Pu 0.35179 0.34291 0.13277   2.610408
 P 0.12352 0.82105 0.74333   1.81469
 P 0.34315 0.88924 0.57891   1.817842
 P 0.37648 0.32105 0.75667   1.81469
 P 0.15685 0.38924 0.92109   1.817842
 P 0.87648 0.17895 0.25667   1.814689
 P 0.65685 0.11076 0.42109   1.817842
 P 0.62352 0.67895 0.24333   1.814689
 P 0.84315 0.61076 0.07891   1.817842
 H 0.0392 0.7089 0.6162   0.274372
 H 0.315 0.6554 0.653   0.276035
 H 0.4608 0.2089 0.8838   0.274372
 H 0.185 0.1554 0.847   0.276035
 H 0.9608 0.2911 0.3838   0.274372
 H 0.685 0.3446 0.347   0.276035
 H 0.5392 0.7911 0.1162   0.274372
 H 0.815 0.8446 0.153   0.276035
 C 0.1989 0.7489 0.6448   -1.054545
 C 0.3011 0.2489 0.8552   -1.054546
 C 0.8011 0.2511 0.3552   -1.054545
 C 0.6989 0.7511 0.1448   -1.054545
 O 0.3637 0.8237 0.80051   -0.982176
 O 0.1742 0.0406 0.57524   -0.992539
 O 0.6148 0.9268 0.61183   -0.893899
 O 0.0122 0.9906 0.73256   -0.929756
 O 0.9257 0.7044 0.77423   -0.94598
 O 0.3407 0.8079 0.49565   -0.994461
 O 0.1363 0.3237 0.69949   -0.982175
 O 0.3258 0.5406 0.92476   -0.992539
 O 0.8852 0.4268 0.88817   -0.893899
 O 0.4878 0.4906 0.76744   -0.929756
 O 0.5743 0.2044 0.72577   -0.945979
 O 0.1593 0.3079 0.00435   -0.994461
 O 0.6363 0.1763 0.19949   -0.982175
 O 0.8258 0.9594 0.42476   -0.992538
 O 0.3852 0.0732 0.38817   -0.893899
 O 0.9878 0.0094 0.26744   -0.929756
 O 0.0743 0.2956 0.22577   -0.945979
 O 0.6593 0.1921 0.50435   -0.994461
 O 0.8637 0.6763 0.30051   -0.982174
 O 0.6742 0.4594 0.07524   -0.992538
 O 0.1148 0.5732 0.11183   -0.893899
 O 0.5122 0.5094 0.23256   -0.929756
 O 0.4257 0.7956 0.27423   -0.945979
 O 0.8407 0.6921 0.99565   -0.994461
