{'_ref': 'TBD', '_srcid': 'CAKYAQ_clean', 'submitters': [{'name': 'Dalar Nazarian Jeff Camp and David Sholl', 'email': 'dalar@gatech.edu jcamp6@gatech.edu'}], '_method': 'VASP DFT with PBE;DDEC'}
data_V2CuH14C13N2O3
_symmetry_space_group_name_H-M   'P 1'
_cell_length_a   13.11870000
_cell_length_b   19.68900000
_cell_length_c   23.92000000
_cell_angle_alpha   90.00000000
_cell_angle_beta   90.00000000
_cell_angle_gamma   90.00000000
_symmetry_Int_Tables_number   1
_chemical_formula_structural   V2CuH14C13N2O3
_chemical_formula_sum   'V24 Cu12 H168 C156 N24 O36'
_cell_volume   6178.39449646
_cell_formula_units_Z   12
loop_
 _symmetry_equiv_pos_site_id
 _symmetry_equiv_pos_as_xyz
  1  'x, y, z'
loop_
 _atom_site_label
 _atom_site_fract_x
 _atom_site_fract_y
 _atom_site_fract_z
 _atom_site_charge
 V 0.84195 0.33479 0.53972   1.15447
 V 0.6627 0.42782 0.46734   1.131256
 V 0.44124 0.37705 0.53372   1.153071
 V 0.25001 0.28687 0.46885   0.628427
 V 0.07835 0.3843 0.52693   1.224613
 V 0.25814 0.43353 0.61317   0.518723
 V 0.15805 0.83479 0.46028   1.15447
 V 0.3373 0.92782 0.53266   1.131256
 V 0.55876 0.87705 0.46628   1.153071
 V 0.74999 0.78687 0.53115   0.628427
 V 0.92165 0.8843 0.47307   1.224613
 V 0.74186 0.93353 0.38683   0.518723
 V 0.15805 0.33479 0.03972   1.15447
 V 0.3373 0.42782 0.96734   1.131256
 V 0.55876 0.37705 0.03372   1.153071
 V 0.74999 0.28687 0.96885   0.628427
 V 0.92165 0.3843 0.02693   1.224613
 V 0.74186 0.43353 0.11317   0.518723
 V 0.84195 0.83479 0.96028   1.15447
 V 0.6627 0.92782 0.03266   1.131256
 V 0.44124 0.87705 0.96628   1.153071
 V 0.25001 0.78687 0.03115   0.628427
 V 0.07835 0.8843 0.97307   1.224613
 V 0.25814 0.93353 0.88683   0.518723
 Cu 0.8603 0.16208 0.49535   0.459516
 Cu 0.62835 0.61101 0.45154   0.317096
 Cu 0.79626 0.09952 0.97582   0.188177
 Cu 0.1397 0.66208 0.50465   0.459516
 Cu 0.37165 0.11101 0.54846   0.317096
 Cu 0.20374 0.59952 0.02418   0.188177
 Cu 0.1397 0.16208 0.99535   0.459516
 Cu 0.37165 0.61101 0.95154   0.317096
 Cu 0.20374 0.09952 0.47582   0.188177
 Cu 0.8603 0.66208 0.00465   0.459516
 Cu 0.62835 0.11101 0.04846   0.317096
 Cu 0.79626 0.59952 0.52418   0.188177
 H 0.0058 0.2315 0.4205   0.058338
 H 0.0939 0.2133 0.3445   0.101835
 H 0.0029 0.0218 0.3494   0.130415
 H 0.9201 0.0468 0.4284   0.040953
 H 0.1677 0.1349 0.2775   0.087541
 H 0.1431 0.0573 0.283   0.0905
 H 0.989 0.0721 0.2348   0.073131
 H 0.0066 0.1508 0.2323   0.07667
 H 0.1356 0.0568 0.1759   0.088471
 H 0.1455 0.136 0.1712   0.085248
 H 0.0107 0.0015 0.1201   0.108461
 H 0.9015 0.0014 0.0442   0.063006
 H 0.9023 0.2011 0.0442   0.080263
 H 0.0178 0.201 0.1141   0.113116
 H 0.7907 0.0245 0.5234   0.053168
 H 0.6785 0.9765 0.5884   0.119001
 H 0.588 0.1598 0.6328   0.12626
 H 0.6981 0.2048 0.5687   0.00704
 H 0.486 0.0545 0.6615   0.084517
 H 0.5382 0.9835 0.6517   0.08531
 H 0.6378 0.0818 0.7198   0.062288
 H 0.6603 0.0037 0.7192   0.068359
 H 0.4816 0.0583 0.764   0.086782
 H 0.5152 0.9819 0.7681   0.079424
 H 0.6404 0.9498 0.8396   0.106215
 H 0.7432 0.979 0.9135   0.081468
 H 0.6823 0.1698 0.8896   -0.026791
 H 0.5828 0.1431 0.8153   0.123681
 H 0.691 0.7284 0.3894   0.017431
 H 0.7489 0.7564 0.3015   0.084058
 H 0.7642 0.5584 0.2696   0.089374
 H 0.7135 0.5371 0.3554   0.033921
 H 0.8143 0.7231 0.2129   0.098491
 H 0.8395 0.6463 0.2017   0.084947
 H 0.6386 0.7007 0.1936   0.064642
 H 0.6661 0.6248 0.1804   0.053927
 H 0.7727 0.6663 0.1057   0.076304
 H 0.7253 0.7384 0.116   0.079936
 H 0.6297 0.5673 0.0943   0.101926
 H 0.506 0.5398 0.032   0.087278
 H 0.4779 0.7294 0.988   -0.020583
 H 0.5859 0.7622 0.0522   0.09456
 H 0.9942 0.7315 0.5795   0.058338
 H 0.9061 0.7133 0.6555   0.101835
 H 0.9971 0.5218 0.6506   0.130415
 H 0.0799 0.5468 0.5716   0.040953
 H 0.8323 0.6349 0.7225   0.087541
 H 0.8569 0.5573 0.717   0.0905
 H 0.011 0.5721 0.7652   0.073131
 H 0.9934 0.6508 0.7677   0.07667
 H 0.8644 0.5568 0.8241   0.088471
 H 0.8545 0.636 0.8288   0.085248
 H 0.9893 0.5015 0.8799   0.108461
 H 0.0985 0.5014 0.9558   0.063006
 H 0.0977 0.7011 0.9558   0.080263
 H 0.9822 0.701 0.8859   0.113116
 H 0.2093 0.5245 0.4766   0.053168
 H 0.3215 0.4765 0.4116   0.119001
 H 0.412 0.6598 0.3672   0.12626
 H 0.3019 0.7048 0.4313   0.00704
 H 0.514 0.5545 0.3385   0.084517
 H 0.4618 0.4835 0.3483   0.08531
 H 0.3622 0.5818 0.2802   0.062288
 H 0.3397 0.5037 0.2808   0.068359
 H 0.5184 0.5583 0.236   0.086782
 H 0.4848 0.4819 0.2319   0.079424
 H 0.3596 0.4498 0.1604   0.106215
 H 0.2568 0.479 0.0865   0.081468
 H 0.3177 0.6698 0.1104   -0.026791
 H 0.4172 0.6431 0.1847   0.123682
 H 0.309 0.2284 0.6106   0.017431
 H 0.2511 0.2564 0.6985   0.084058
 H 0.2358 0.0584 0.7304   0.089374
 H 0.2865 0.0371 0.6446   0.033921
 H 0.1857 0.2231 0.7871   0.098491
 H 0.1605 0.1463 0.7983   0.084947
 H 0.3614 0.2007 0.8064   0.064643
 H 0.3339 0.1248 0.8196   0.053927
 H 0.2273 0.1663 0.8943   0.076304
 H 0.2747 0.2384 0.884   0.079936
 H 0.3703 0.0673 0.9057   0.101926
 H 0.494 0.0398 0.968   0.087278
 H 0.5221 0.2294 0.012   -0.020583
 H 0.4141 0.2622 0.9478   0.09456
 H 0.9942 0.2315 0.9205   0.058338
 H 0.9061 0.2133 0.8445   0.101835
 H 0.9971 0.0218 0.8494   0.130415
 H 0.0799 0.0468 0.9284   0.040953
 H 0.8323 0.1349 0.7775   0.087541
 H 0.8569 0.0573 0.783   0.0905
 H 0.011 0.0721 0.7348   0.073131
 H 0.9934 0.1508 0.7323   0.07667
 H 0.8644 0.0568 0.6759   0.088471
 H 0.8545 0.136 0.6712   0.085248
 H 0.9893 0.0015 0.6201   0.108461
 H 0.0985 0.0014 0.5442   0.063006
 H 0.0977 0.2011 0.5442   0.080263
 H 0.9822 0.201 0.6141   0.113116
 H 0.2093 0.0245 0.0234   0.053168
 H 0.3215 0.9765 0.0884   0.119001
 H 0.412 0.1598 0.1328   0.12626
 H 0.3019 0.2048 0.0687   0.00704
 H 0.514 0.0545 0.1615   0.084517
 H 0.4618 0.9835 0.1517   0.08531
 H 0.3622 0.0818 0.2198   0.062288
 H 0.3397 0.0037 0.2192   0.068359
 H 0.5184 0.0583 0.264   0.086782
 H 0.4848 0.9819 0.2681   0.079424
 H 0.3596 0.9498 0.3396   0.106215
 H 0.2568 0.979 0.4135   0.081468
 H 0.3177 0.1698 0.3896   -0.026791
 H 0.4172 0.1431 0.3153   0.123681
 H 0.309 0.7284 0.8894   0.017431
 H 0.2511 0.7564 0.8015   0.084058
 H 0.2358 0.5584 0.7696   0.089375
 H 0.2865 0.5371 0.8554   0.033921
 H 0.1857 0.7231 0.7129   0.098492
 H 0.1605 0.6463 0.7017   0.084947
 H 0.3614 0.7007 0.6936   0.064642
 H 0.3339 0.6248 0.6804   0.053927
 H 0.2273 0.6663 0.6057   0.076304
 H 0.2747 0.7384 0.616   0.079936
 H 0.3703 0.5673 0.5943   0.101926
 H 0.494 0.5398 0.532   0.087278
 H 0.5221 0.7294 0.488   -0.020583
 H 0.4141 0.7622 0.5522   0.09456
 H 0.0058 0.7315 0.0795   0.058338
 H 0.0939 0.7133 0.1555   0.101835
 H 0.0029 0.5218 0.1506   0.130415
 H 0.9201 0.5468 0.0716   0.040953
 H 0.1677 0.6349 0.2225   0.087541
 H 0.1431 0.5573 0.217   0.0905
 H 0.989 0.5721 0.2652   0.073131
 H 0.0066 0.6508 0.2677   0.07667
 H 0.1356 0.5568 0.3241   0.088471
 H 0.1455 0.636 0.3288   0.085248
 H 0.0107 0.5015 0.3799   0.108461
 H 0.9015 0.5014 0.4558   0.063006
 H 0.9023 0.7011 0.4558   0.080263
 H 0.0178 0.701 0.3859   0.113116
 H 0.7907 0.5245 0.9766   0.053168
 H 0.6785 0.4765 0.9116   0.119001
 H 0.588 0.6598 0.8672   0.12626
 H 0.6981 0.7048 0.9313   0.00704
 H 0.486 0.5545 0.8385   0.084517
 H 0.5382 0.4835 0.8483   0.08531
 H 0.6378 0.5818 0.7802   0.062288
 H 0.6603 0.5037 0.7808   0.068359
 H 0.4816 0.5583 0.736   0.086782
 H 0.5152 0.4819 0.7319   0.079424
 H 0.6404 0.4498 0.6604   0.106215
 H 0.7432 0.479 0.5865   0.081468
 H 0.6823 0.6698 0.6104   -0.026791
 H 0.5828 0.6431 0.6847   0.123682
 H 0.691 0.2284 0.1106   0.017431
 H 0.7489 0.2564 0.1985   0.084058
 H 0.7642 0.0584 0.2304   0.089375
 H 0.7135 0.0371 0.1446   0.033921
 H 0.8143 0.2231 0.2871   0.098492
 H 0.8395 0.1463 0.2983   0.084947
 H 0.6386 0.2007 0.3064   0.064643
 H 0.6661 0.1248 0.3196   0.053927
 H 0.7727 0.1663 0.3943   0.076304
 H 0.7253 0.2384 0.384   0.079936
 H 0.6297 0.0673 0.4057   0.101926
 H 0.506 0.0398 0.468   0.087278
 H 0.4779 0.2294 0.512   -0.020583
 H 0.5859 0.2622 0.4478   0.09456
 C 0.0054 0.1877 0.406   0.170745
 C 0.0577 0.1776 0.3604   -0.258636
 C 0.06 0.1154 0.336   0.165509
 C 0.0052 0.0658 0.3634   -0.251611
 C 0.9552 0.0817 0.4106   0.173949
 C 0.113 0.1022 0.282   -0.18762
 C 0.0407 0.1071 0.2317   -0.089834
 C 0.0973 0.099 0.1755   -0.176523
 C 0.0263 0.0986 0.1268   0.14812
 C 0.9909 0.0428 0.1049   -0.247243
 C 0.9236 0.0427 0.0588   0.140803
 C 0.9257 0.16 0.0585   0.115438
 C 0.9926 0.1598 0.101   -0.21378
 C 0.7519 0.0522 0.5466   0.174476
 C 0.6818 0.0235 0.5848   -0.20195
 C 0.62 0.0624 0.6159   0.150974
 C 0.6283 0.1313 0.6111   -0.23205
 C 0.6966 0.158 0.5738   0.186648
 C 0.5509 0.0309 0.6603   -0.184235
 C 0.6063 0.0373 0.7177   -0.077233
 C 0.54 0.0283 0.7668   -0.178638
 C 0.5981 0.0438 0.8183   0.161231
 C 0.6481 0.9953 0.849   -0.217675
 C 0.7098 0.013 0.8937   0.147323
 C 0.6749 0.1244 0.8798   0.191968
 C 0.6142 0.1081 0.8349   -0.237705
 C 0.7063 0.6939 0.3643   0.152608
 C 0.7404 0.7111 0.3114   -0.217234
 C 0.7615 0.6607 0.2742   0.143066
 C 0.7497 0.5945 0.2934   -0.214445
 C 0.7187 0.5822 0.3442   0.18205
 C 0.7876 0.6773 0.2152   -0.187792
 C 0.6912 0.6711 0.1788   -0.075812
 C 0.7121 0.69 0.1183   -0.170508
 C 0.6248 0.6723 0.0808   0.129374
 C 0.5975 0.6011 0.0736   -0.221908
 C 0.5239 0.5852 0.0358   0.179074
 C 0.5067 0.6966 0.0111   0.156844
 C 0.5734 0.7159 0.0482   -0.191418
 C 0.9946 0.6877 0.594   0.170745
 C 0.9423 0.6776 0.6396   -0.258636
 C 0.94 0.6154 0.664   0.165509
 C 0.9948 0.5658 0.6366   -0.251611
 C 0.0448 0.5817 0.5894   0.173949
 C 0.887 0.6022 0.718   -0.18762
 C 0.9593 0.6071 0.7683   -0.089834
 C 0.9027 0.599 0.8245   -0.176523
 C 0.9737 0.5986 0.8732   0.14812
 C 0.0091 0.5428 0.8951   -0.247243
 C 0.0764 0.5427 0.9412   0.140803
 C 0.0743 0.66 0.9415   0.115438
 C 0.0074 0.6598 0.899   -0.21378
 C 0.2481 0.5522 0.4534   0.174476
 C 0.3182 0.5235 0.4152   -0.20195
 C 0.38 0.5624 0.3841   0.150974
 C 0.3717 0.6313 0.3889   -0.23205
 C 0.3034 0.658 0.4262   0.186648
 C 0.4491 0.5309 0.3397   -0.184235
 C 0.3937 0.5373 0.2823   -0.077233
 C 0.46 0.5283 0.2332   -0.178638
 C 0.4019 0.5438 0.1817   0.161231
 C 0.3519 0.4953 0.151   -0.217675
 C 0.2902 0.513 0.1063   0.147323
 C 0.3251 0.6244 0.1202   0.191968
 C 0.3858 0.6081 0.1651   -0.237705
 C 0.2937 0.1939 0.6357   0.152608
 C 0.2596 0.2111 0.6886   -0.217234
 C 0.2385 0.1607 0.7258   0.143066
 C 0.2503 0.0945 0.7066   -0.214445
 C 0.2813 0.0822 0.6558   0.18205
 C 0.2124 0.1773 0.7848   -0.187792
 C 0.3088 0.1711 0.8212   -0.075813
 C 0.2879 0.19 0.8817   -0.170508
 C 0.3752 0.1723 0.9192   0.129374
 C 0.4025 0.1011 0.9264   -0.221908
 C 0.4761 0.0852 0.9642   0.179074
 C 0.4933 0.1966 0.9889   0.156844
 C 0.4266 0.2159 0.9518   -0.191418
 C 0.9946 0.1877 0.906   0.170745
 C 0.9423 0.1776 0.8604   -0.258636
 C 0.94 0.1154 0.836   0.165509
 C 0.9948 0.0658 0.8634   -0.251611
 C 0.0448 0.0817 0.9106   0.173949
 C 0.887 0.1022 0.782   -0.18762
 C 0.9593 0.1071 0.7317   -0.089834
 C 0.9027 0.099 0.6755   -0.176523
 C 0.9737 0.0986 0.6268   0.14812
 C 0.0091 0.0428 0.6049   -0.247243
 C 0.0764 0.0427 0.5588   0.140803
 C 0.0743 0.16 0.5585   0.115438
 C 0.0074 0.1598 0.601   -0.21378
 C 0.2481 0.0522 0.0466   0.174476
 C 0.3182 0.0235 0.0848   -0.20195
 C 0.38 0.0624 0.1159   0.150974
 C 0.3717 0.1313 0.1111   -0.23205
 C 0.3034 0.158 0.0738   0.186648
 C 0.4491 0.0309 0.1603   -0.184235
 C 0.3937 0.0373 0.2177   -0.077233
 C 0.46 0.0283 0.2668   -0.178638
 C 0.4019 0.0438 0.3183   0.161231
 C 0.3519 0.9953 0.349   -0.217675
 C 0.2902 0.013 0.3937   0.147323
 C 0.3251 0.1244 0.3798   0.191968
 C 0.3858 0.1081 0.3349   -0.237705
 C 0.2937 0.6939 0.8643   0.152608
 C 0.2596 0.7111 0.8114   -0.217234
 C 0.2385 0.6607 0.7742   0.143066
 C 0.2503 0.5945 0.7934   -0.214445
 C 0.2813 0.5822 0.8442   0.18205
 C 0.2124 0.6773 0.7152   -0.187792
 C 0.3088 0.6711 0.6788   -0.075812
 C 0.2879 0.69 0.6183   -0.170508
 C 0.3752 0.6723 0.5808   0.129374
 C 0.4025 0.6011 0.5736   -0.221908
 C 0.4761 0.5852 0.5358   0.179074
 C 0.4933 0.6966 0.5111   0.156844
 C 0.4266 0.7159 0.5482   -0.191418
 C 0.0054 0.6877 0.094   0.170745
 C 0.0577 0.6776 0.1396   -0.258636
 C 0.06 0.6154 0.164   0.165509
 C 0.0052 0.5658 0.1366   -0.251611
 C 0.9552 0.5817 0.0894   0.173949
 C 0.113 0.6022 0.218   -0.18762
 C 0.0407 0.6071 0.2683   -0.089834
 C 0.0973 0.599 0.3245   -0.176523
 C 0.0263 0.5986 0.3732   0.14812
 C 0.9909 0.5428 0.3951   -0.247243
 C 0.9236 0.5427 0.4412   0.140803
 C 0.9257 0.66 0.4415   0.115438
 C 0.9926 0.6598 0.399   -0.21378
 C 0.7519 0.5522 0.9534   0.174476
 C 0.6818 0.5235 0.9152   -0.20195
 C 0.62 0.5624 0.8841   0.150974
 C 0.6283 0.6313 0.8889   -0.23205
 C 0.6966 0.658 0.9262   0.186648
 C 0.5509 0.5309 0.8397   -0.184235
 C 0.6063 0.5373 0.7823   -0.077233
 C 0.54 0.5283 0.7332   -0.178638
 C 0.5981 0.5438 0.6817   0.161231
 C 0.6481 0.4953 0.651   -0.217675
 C 0.7098 0.513 0.6063   0.147323
 C 0.6749 0.6244 0.6202   0.191968
 C 0.6142 0.6081 0.6651   -0.237705
 C 0.7063 0.1939 0.1357   0.152608
 C 0.7404 0.2111 0.1886   -0.217234
 C 0.7615 0.1607 0.2258   0.143066
 C 0.7497 0.0945 0.2066   -0.214445
 C 0.7187 0.0822 0.1558   0.18205
 C 0.7876 0.1773 0.2848   -0.187792
 C 0.6912 0.1711 0.3212   -0.075813
 C 0.7121 0.19 0.3817   -0.170508
 C 0.6248 0.1723 0.4192   0.129374
 C 0.5975 0.1011 0.4264   -0.221908
 C 0.5239 0.0852 0.4642   0.179074
 C 0.5067 0.1966 0.4889   0.156844
 C 0.5734 0.2159 0.4518   -0.191418
 N 0.9512 0.1414 0.4339   -0.335251
 N 0.8914 0.0998 0.0362   -0.246628
 N 0.7615 0.1194 0.5444   -0.351651
 N 0.7228 0.0781 0.9091   -0.246429
 N 0.6944 0.6296 0.3804   -0.295685
 N 0.4762 0.6297 0.0043   -0.328724
 N 0.0488 0.6414 0.5661   -0.335251
 N 0.1086 0.5998 0.9638   -0.246628
 N 0.2385 0.6194 0.4556   -0.351651
 N 0.2772 0.5781 0.0909   -0.246429
 N 0.3056 0.1296 0.6196   -0.295685
 N 0.5238 0.1297 0.9957   -0.328724
 N 0.0488 0.1414 0.9339   -0.335251
 N 0.1086 0.0998 0.5362   -0.246627
 N 0.2385 0.1194 0.0444   -0.351651
 N 0.2772 0.0781 0.4091   -0.246429
 N 0.3056 0.6296 0.8804   -0.295685
 N 0.5238 0.6297 0.5043   -0.328724
 N 0.9512 0.6414 0.0661   -0.335251
 N 0.8914 0.5998 0.4638   -0.246627
 N 0.7615 0.6194 0.9556   -0.351651
 N 0.7228 0.5781 0.5909   -0.246429
 N 0.6944 0.1296 0.1196   -0.295685
 N 0.4762 0.1297 0.4957   -0.328724
 O 0.8575 0.2658 0.5034   -0.751219
 O 0.9608 0.3722 0.5575   -0.85092
 O 0.756 0.3923 0.5082   -0.845896
 O 0.6815 0.5092 0.4659   -0.697
 O 0.5383 0.4148 0.4958   -0.822339
 O 0.3604 0.3386 0.4866   -0.76638
 O 0.3734 0.4376 0.5725   -0.75167
 O 0.1416 0.3127 0.5077   -0.787793
 O 0.1502 0.4392 0.5647   -0.734995
 O 0.1425 0.7658 0.4966   -0.751219
 O 0.0392 0.8722 0.4425   -0.85092
 O 0.244 0.8923 0.4918   -0.845896
 O 0.3185 0.0092 0.5341   -0.697
 O 0.4617 0.9148 0.5042   -0.822339
 O 0.6396 0.8386 0.5134   -0.76638
 O 0.6266 0.9376 0.4275   -0.75167
 O 0.8584 0.8127 0.4923   -0.787793
 O 0.8498 0.9392 0.4353   -0.734995
 O 0.1425 0.2658 0.0034   -0.751219
 O 0.0392 0.3722 0.0575   -0.85092
 O 0.244 0.3923 0.0082   -0.845896
 O 0.3185 0.5092 0.9659   -0.697
 O 0.4617 0.4148 0.9958   -0.822339
 O 0.6396 0.3386 0.9866   -0.76638
 O 0.6266 0.4376 0.0725   -0.75167
 O 0.8584 0.3127 0.0077   -0.787793
 O 0.8498 0.4392 0.0647   -0.734995
 O 0.8575 0.7658 0.9966   -0.751219
 O 0.9608 0.8722 0.9425   -0.85092
 O 0.756 0.8923 0.9918   -0.845896
 O 0.6815 0.0092 0.0341   -0.697
 O 0.5383 0.9148 0.0042   -0.822339
 O 0.3604 0.8386 0.0134   -0.76638
 O 0.3734 0.9376 0.9275   -0.75167
 O 0.1416 0.8127 0.9923   -0.787793
 O 0.1502 0.9392 0.9353   -0.734995
