{'_ref': 'TBD', '_srcid': 'CAKYAQ_clean', 'submitters': [{'name': 'Dalar Nazarian Jeff Camp and David Sholl', 'email': 'dalar@gatech.edu jcamp6@gatech.edu'}], '_method': 'VASP DFT with PBE;DDEC'}
data_Dy2Co3H18C42(NO4)6
_symmetry_space_group_name_H-M   'P 1'
_cell_length_a   15.14730000
_cell_length_b   15.14730035
_cell_length_c   15.47660000
_cell_angle_alpha   90.00000000
_cell_angle_beta   90.00000000
_cell_angle_gamma   119.99999924
_symmetry_Int_Tables_number   1
_chemical_formula_structural   Dy2Co3H18C42(NO4)6
_chemical_formula_sum   'Dy4 Co6 H36 C84 N12 O48'
_cell_volume   3075.22330359
_cell_formula_units_Z   2
loop_
 _symmetry_equiv_pos_site_id
 _symmetry_equiv_pos_as_xyz
  1  'x, y, z'
loop_
 _atom_site_label
 _atom_site_fract_x
 _atom_site_fract_y
 _atom_site_fract_z
 _atom_site_charge
 Dy 0.66667 0.33334 0.75   2.113824
 Dy 0.33333 0.66666 0.75   2.113824
 Dy 0.33333 0.66666 0.25   2.11384
 Dy 0.66667 0.33334 0.25   2.11384
 Co 0.5 0.5 0.5   1.116779
 Co 0.0 0.5 0.5   0.997458
 Co 0.5 0.0 0.5   1.120903
 Co 0.0 0.5 0.0   1.116777
 Co 0.5 0.5 0.0   0.997458
 Co 0.5 0.0 0.0   1.120892
 H 0.2867 0.2331 0.655   0.117787
 H 0.9464 0.7133 0.655   0.118928
 H 0.7669 0.0536 0.655   0.118102
 H 0.7133 0.7669 0.655   0.117789
 H 0.0536 0.2867 0.655   0.118931
 H 0.2331 0.9464 0.655   0.118103
 H 0.0536 0.7669 0.845   0.117786
 H 0.2331 0.2867 0.845   0.118933
 H 0.7133 0.9464 0.845   0.1181
 H 0.9464 0.2331 0.845   0.11779
 H 0.7669 0.7133 0.845   0.118937
 H 0.2867 0.0536 0.845   0.118104
 H 0.7133 0.7669 0.345   0.117789
 H 0.0536 0.2867 0.345   0.118935
 H 0.2331 0.9464 0.345   0.118104
 H 0.2867 0.2331 0.345   0.117791
 H 0.9464 0.7133 0.345   0.118937
 H 0.7669 0.0536 0.345   0.118104
 H 0.9464 0.2331 0.155   0.117788
 H 0.7669 0.7133 0.155   0.11894
 H 0.2867 0.0536 0.155   0.118102
 H 0.0536 0.7669 0.155   0.117791
 H 0.2331 0.2867 0.155   0.118944
 H 0.7133 0.9464 0.155   0.118105
 H 0.1993 0.09965 0.75   0.078423
 H 0.90035 0.8007 0.75   0.079285
 H 0.90035 0.09965 0.75   0.078426
 H 0.8007 0.90035 0.75   0.078442
 H 0.09965 0.1993 0.75   0.079308
 H 0.09965 0.90035 0.75   0.078443
 H 0.8007 0.90035 0.25   0.078423
 H 0.09965 0.1993 0.25   0.079285
 H 0.09965 0.90035 0.25   0.078426
 H 0.1993 0.09965 0.25   0.078442
 H 0.90035 0.8007 0.25   0.079308
 H 0.90035 0.09965 0.25   0.078443
 C 0.4924 0.3544 0.6392   0.664973
 C 0.4266 0.2651 0.6961   0.149963
 C 0.3214 0.2142 0.6936   -0.125979
 C 0.862 0.5076 0.6392   0.655002
 C 0.8385 0.5734 0.6961   0.152902
 C 0.8928 0.6786 0.6936   -0.126925
 C 0.6456 0.138 0.6392   0.665094
 C 0.7349 0.1615 0.6961   0.150363
 C 0.7858 0.1072 0.6936   -0.125428
 C 0.5076 0.6456 0.6392   0.664975
 C 0.5734 0.7349 0.6961   0.149963
 C 0.6786 0.7858 0.6936   -0.125978
 C 0.138 0.4924 0.6392   0.655004
 C 0.1615 0.4266 0.6961   0.152902
 C 0.1072 0.3214 0.6936   -0.126923
 C 0.3544 0.862 0.6392   0.665094
 C 0.2651 0.8385 0.6961   0.150362
 C 0.2142 0.8928 0.6936   -0.125426
 C 0.138 0.6456 0.8608   0.664984
 C 0.1615 0.7349 0.8039   0.149963
 C 0.1072 0.7858 0.8064   -0.125976
 C 0.3544 0.4924 0.8608   0.655008
 C 0.2651 0.4266 0.8039   0.152904
 C 0.2142 0.3214 0.8064   -0.126925
 C 0.5076 0.862 0.8608   0.665091
 C 0.5734 0.8385 0.8039   0.150363
 C 0.6786 0.8928 0.8064   -0.125428
 C 0.862 0.3544 0.8608   0.664986
 C 0.8385 0.2651 0.8039   0.149964
 C 0.8928 0.2142 0.8064   -0.12598
 C 0.6456 0.5076 0.8608   0.655009
 C 0.7349 0.5734 0.8039   0.152905
 C 0.7858 0.6786 0.8064   -0.126929
 C 0.4924 0.138 0.8608   0.665092
 C 0.4266 0.1615 0.8039   0.150364
 C 0.3214 0.1072 0.8064   -0.125431
 C 0.5076 0.6456 0.3608   0.664973
 C 0.5734 0.7349 0.3039   0.149964
 C 0.6786 0.7858 0.3064   -0.125981
 C 0.138 0.4924 0.3608   0.655018
 C 0.1615 0.4266 0.3039   0.152901
 C 0.1072 0.3214 0.3064   -0.126927
 C 0.3544 0.862 0.3608   0.665096
 C 0.2651 0.8385 0.3039   0.150363
 C 0.2142 0.8928 0.3064   -0.125429
 C 0.4924 0.3544 0.3608   0.664975
 C 0.4266 0.2651 0.3039   0.149964
 C 0.3214 0.2142 0.3064   -0.12598
 C 0.862 0.5076 0.3608   0.655019
 C 0.8385 0.5734 0.3039   0.152901
 C 0.8928 0.6786 0.3064   -0.126925
 C 0.6456 0.138 0.3608   0.665097
 C 0.7349 0.1615 0.3039   0.150363
 C 0.7858 0.1072 0.3064   -0.125428
 C 0.862 0.3544 0.1392   0.664984
 C 0.8385 0.2651 0.1961   0.149964
 C 0.8928 0.2142 0.1936   -0.125978
 C 0.6456 0.5076 0.1392   0.655024
 C 0.7349 0.5734 0.1961   0.152904
 C 0.7858 0.6786 0.1936   -0.126926
 C 0.4924 0.138 0.1392   0.665094
 C 0.4266 0.1615 0.1961   0.150364
 C 0.3214 0.1072 0.1936   -0.12543
 C 0.138 0.6456 0.1392   0.664986
 C 0.1615 0.7349 0.1961   0.149964
 C 0.1072 0.7858 0.1936   -0.125981
 C 0.3544 0.4924 0.1392   0.655025
 C 0.2651 0.4266 0.1961   0.152904
 C 0.2142 0.3214 0.1936   -0.12693
 C 0.5076 0.862 0.1392   0.665095
 C 0.5734 0.8385 0.1961   0.150364
 C 0.6786 0.8928 0.1936   -0.125433
 C 0.2702 0.1351 0.75   -0.014248
 C 0.8649 0.7298 0.75   -0.010557
 C 0.8649 0.1351 0.75   -0.014249
 C 0.7298 0.8649 0.75   -0.014255
 C 0.1351 0.2702 0.75   -0.010566
 C 0.1351 0.8649 0.75   -0.014256
 C 0.7298 0.8649 0.25   -0.014247
 C 0.1351 0.2702 0.25   -0.010556
 C 0.1351 0.8649 0.25   -0.014248
 C 0.2702 0.1351 0.25   -0.014255
 C 0.8649 0.7298 0.25   -0.010564
 C 0.8649 0.1351 0.25   -0.014255
 N 0.4781 0.23905 0.75   -0.412869
 N 0.76095 0.5219 0.75   -0.410139
 N 0.76095 0.23905 0.75   -0.412869
 N 0.5219 0.76095 0.75   -0.412868
 N 0.23905 0.4781 0.75   -0.410138
 N 0.23905 0.76095 0.75   -0.412868
 N 0.5219 0.76095 0.25   -0.412869
 N 0.23905 0.4781 0.25   -0.410139
 N 0.23905 0.76095 0.25   -0.412869
 N 0.4781 0.23905 0.25   -0.412869
 N 0.76095 0.5219 0.25   -0.410138
 N 0.76095 0.23905 0.25   -0.412869
 O 0.5877 0.3889 0.6436   -0.668775
 O 0.4484 0.3869 0.592   -0.601961
 O 0.8012 0.4123 0.6436   -0.661577
 O 0.9385 0.5516 0.592   -0.559859
 O 0.6111 0.1988 0.6436   -0.667126
 O 0.6131 0.0615 0.592   -0.601824
 O 0.4123 0.6111 0.6436   -0.668775
 O 0.5516 0.6131 0.592   -0.601962
 O 0.1988 0.5877 0.6436   -0.661577
 O 0.0615 0.4484 0.592   -0.559858
 O 0.3889 0.8012 0.6436   -0.667126
 O 0.3869 0.9385 0.592   -0.601824
 O 0.1988 0.6111 0.8564   -0.668775
 O 0.0615 0.6131 0.908   -0.601962
 O 0.3889 0.5877 0.8564   -0.661578
 O 0.3869 0.4484 0.908   -0.559858
 O 0.4123 0.8012 0.8564   -0.667126
 O 0.5516 0.9385 0.908   -0.601825
 O 0.8012 0.3889 0.8564   -0.668775
 O 0.9385 0.3869 0.908   -0.601962
 O 0.6111 0.4123 0.8564   -0.661577
 O 0.6131 0.5516 0.908   -0.559856
 O 0.5877 0.1988 0.8564   -0.667126
 O 0.4484 0.0615 0.908   -0.601825
 O 0.4123 0.6111 0.3564   -0.668775
 O 0.5516 0.6131 0.408   -0.601963
 O 0.1988 0.5877 0.3564   -0.661579
 O 0.0615 0.4484 0.408   -0.559853
 O 0.3889 0.8012 0.3564   -0.667127
 O 0.3869 0.9385 0.408   -0.601823
 O 0.5877 0.3889 0.3564   -0.668775
 O 0.4484 0.3869 0.408   -0.601963
 O 0.8012 0.4123 0.3564   -0.661578
 O 0.9385 0.5516 0.408   -0.559852
 O 0.6111 0.1988 0.3564   -0.667127
 O 0.6131 0.0615 0.408   -0.601823
 O 0.8012 0.3889 0.1436   -0.668775
 O 0.9385 0.3869 0.092   -0.601964
 O 0.6111 0.4123 0.1436   -0.661579
 O 0.6131 0.5516 0.092   -0.559852
 O 0.5877 0.1988 0.1436   -0.667127
 O 0.4484 0.0615 0.092   -0.601824
 O 0.1988 0.6111 0.1436   -0.668775
 O 0.0615 0.6131 0.092   -0.601964
 O 0.3889 0.5877 0.1436   -0.661579
 O 0.3869 0.4484 0.092   -0.55985
 O 0.4123 0.8012 0.1436   -0.667127
 O 0.5516 0.9385 0.092   -0.601823
