{'_ref': 'TBD', '_srcid': 'CAKYAQ_clean', 'submitters': [{'name': 'Dalar Nazarian Jeff Camp and David Sholl', 'email': 'dalar@gatech.edu jcamp6@gatech.edu'}], '_method': 'VASP DFT with PBE;DDEC'}
data_ZnH24C24SN4O7
_symmetry_space_group_name_H-M   'P 1'
_cell_length_a   9.85609954
_cell_length_b   11.95380000
_cell_length_c   22.84630000
_cell_angle_alpha   90.00000000
_cell_angle_beta   95.50600205
_cell_angle_gamma   90.00000000
_symmetry_Int_Tables_number   1
_chemical_formula_structural   ZnH24C24SN4O7
_chemical_formula_sum   'Zn4 H96 C96 S4 N16 O28'
_cell_volume   2679.28267778
_cell_formula_units_Z   4
loop_
 _symmetry_equiv_pos_site_id
 _symmetry_equiv_pos_as_xyz
  1  'x, y, z'
loop_
 _atom_site_label
 _atom_site_fract_x
 _atom_site_fract_y
 _atom_site_fract_z
 _atom_site_charge
 Zn 0.73465 0.2199 0.96334   0.912119
 Zn 0.23465 0.2801 0.46335   0.912199
 Zn 0.76535 0.7199 0.53666   0.912118
 Zn 0.26535 0.7801 0.03666   0.912119
 H 0.406 0.548 0.7426   0.274839
 H 0.5766 0.9887 0.7855   0.124583
 H 0.5913 0.1432 0.8465   0.08551
 H 0.8708 0.997 0.9553   0.083133
 H 0.8628 0.838 0.8971   0.128669
 H 0.7499 0.7284 0.8191   0.079097
 H 0.7768 0.8065 0.7646   0.105195
 H 0.648 0.728 0.6896   0.106362
 H 0.636 0.6219 0.7316   0.062387
 H 0.4075 0.7358 0.6725   0.135711
 H 0.4634 0.6171 0.6524   0.11471
 H 0.5445 0.6447 0.8254   0.067984
 H 0.4884 0.7645 0.8433   0.098507
 H 0.3071 0.7518 0.7684   0.092031
 H 0.3048 0.6442 0.8102   0.129009
 H 0.1865 0.5279 0.7317   0.128485
 H 0.175 0.6402 0.6935   0.133248
 H 0.1143 0.6091 0.5949   0.131971
 H 0.1216 0.5048 0.5095   0.073678
 H 0.3574 0.3766 0.6804   0.123438
 H 0.4318 0.4834 0.0803   0.095483
 H 0.2844 0.2349 0.9711   0.070696
 H 0.0248 0.4298 0.0531   0.109166
 H 0.3548 0.2785 0.5932   0.095927
 H 0.906 0.952 0.2426   0.274839
 H 0.0766 0.5113 0.2855   0.124582
 H 0.0913 0.3568 0.3465   0.085506
 H 0.3708 0.503 0.4553   0.083126
 H 0.3628 0.662 0.3971   0.128667
 H 0.2499 0.7716 0.3191   0.079096
 H 0.2768 0.6935 0.2646   0.105194
 H 0.148 0.772 0.1896   0.106361
 H 0.136 0.8781 0.2316   0.062387
 H 0.9075 0.7642 0.1725   0.135711
 H 0.9634 0.8829 0.1524   0.11471
 H 0.0445 0.8553 0.3254   0.067984
 H 0.9884 0.7355 0.3433   0.098505
 H 0.8071 0.7482 0.2684   0.09203
 H 0.8048 0.8558 0.3102   0.129007
 H 0.6865 0.9721 0.2317   0.128484
 H 0.675 0.8598 0.1935   0.133246
 H 0.6143 0.8909 0.0949   0.131968
 H 0.6216 0.9952 0.0095   0.073674
 H 0.8574 0.1234 0.1804   0.123436
 H 0.9318 0.0166 0.5803   0.095483
 H 0.7844 0.2651 0.4711   0.070698
 H 0.5248 0.0702 0.5531   0.109169
 H 0.8548 0.2215 0.0932   0.095928
 H 0.094 0.048 0.7574   0.274838
 H 0.9234 0.4887 0.7145   0.124585
 H 0.9087 0.6432 0.6535   0.08551
 H 0.6292 0.497 0.5447   0.083134
 H 0.6372 0.338 0.6029   0.12867
 H 0.7501 0.2284 0.6809   0.079098
 H 0.7232 0.3065 0.7354   0.105198
 H 0.852 0.228 0.8104   0.106362
 H 0.864 0.1219 0.7684   0.062388
 H 0.0925 0.2358 0.8275   0.135711
 H 0.0366 0.1171 0.8476   0.114711
 H 0.9555 0.1447 0.6746   0.067983
 H 0.0116 0.2645 0.6567   0.098504
 H 0.1929 0.2518 0.7316   0.092027
 H 0.1952 0.1442 0.6898   0.129009
 H 0.3135 0.0279 0.7683   0.128482
 H 0.325 0.1402 0.8065   0.133245
 H 0.3857 0.1091 0.9051   0.131968
 H 0.3784 0.0048 0.9905   0.073675
 H 0.1426 0.8766 0.8196   0.123433
 H 0.0682 0.9834 0.4197   0.095482
 H 0.2156 0.7349 0.5289   0.070695
 H 0.4752 0.9298 0.4469   0.109166
 H 0.1452 0.7785 0.9068   0.095928
 H 0.594 0.452 0.2574   0.274838
 H 0.4234 0.0113 0.2145   0.124585
 H 0.4087 0.8568 0.1535   0.08551
 H 0.1292 0.003 0.0447   0.083132
 H 0.1372 0.162 0.1029   0.12867
 H 0.2501 0.2716 0.1809   0.079098
 H 0.2232 0.1935 0.2354   0.105199
 H 0.352 0.272 0.3104   0.106364
 H 0.364 0.3781 0.2684   0.062387
 H 0.5925 0.2642 0.3275   0.135711
 H 0.5366 0.3829 0.3476   0.114711
 H 0.4555 0.3553 0.1746   0.067982
 H 0.5116 0.2355 0.1567   0.098505
 H 0.6929 0.2482 0.2316   0.092028
 H 0.6952 0.3558 0.1898   0.12901
 H 0.8135 0.4721 0.2683   0.128484
 H 0.825 0.3598 0.3065   0.133247
 H 0.8857 0.3909 0.4051   0.131969
 H 0.8784 0.4952 0.4905   0.073672
 H 0.6426 0.6234 0.3196   0.123435
 H 0.5682 0.5166 0.9197   0.095481
 H 0.7156 0.7651 0.0289   0.070698
 H 0.9752 0.5702 0.9469   0.109168
 H 0.6452 0.7215 0.4068   0.095931
 C 0.6374 0.9879 0.8204   -0.219112
 C 0.6467 0.08 0.85711   0.159076
 C 0.8095 0.995 0.92059   0.175861
 C 0.8053 0.8998 0.88591   -0.23299
 C 0.7169 0.8946 0.83463   0.143439
 C 0.7148 0.7936 0.79555   -0.01927
 C 0.5908 0.6922 0.71761   -0.011045
 C 0.4533 0.6659 0.68677   -0.123869
 C 0.4976 0.7133 0.80985   -0.015353
 C 0.357 0.6829 0.78128   -0.125566
 C 0.2312 0.5726 0.70257   -0.148085
 C 0.2359 0.5048 0.64728   0.101577
 C 0.1652 0.5415 0.59565   -0.189858
 C 0.1697 0.4782 0.54479   0.196646
 C 0.3077 0.4047 0.64586   -0.242894
 C 0.2248 0.4683 0.07258   -0.223085
 C 0.3572 0.4424 0.06169   0.015553
 C 0.3796 0.3553 0.02294   -0.150087
 C 0.5239 0.3258 0.01226   0.651665
 C 0.2692 0.295 0.99684   -0.01094
 C 0.1374 0.3217 0.00802   -0.14093
 C 0.0169 0.2532 0.9825   0.659525
 C 0.115 0.41 0.04582   0.013713
 C 0.3057 0.3468 0.59359   0.199143
 C 0.1374 0.5121 0.3204   -0.219119
 C 0.1467 0.42 0.35711   0.159092
 C 0.3095 0.505 0.42059   0.175863
 C 0.3053 0.6002 0.38591   -0.232994
 C 0.2169 0.6054 0.33463   0.143437
 C 0.2148 0.7064 0.29555   -0.019268
 C 0.0908 0.8078 0.21761   -0.011046
 C 0.9533 0.8341 0.18677   -0.123869
 C 0.9976 0.7867 0.30985   -0.015352
 C 0.857 0.8171 0.28128   -0.125565
 C 0.7312 0.9274 0.20257   -0.148084
 C 0.7359 0.9952 0.14728   0.101572
 C 0.6652 0.9585 0.09565   -0.189862
 C 0.6697 0.0218 0.04479   0.196632
 C 0.8077 0.0953 0.14586   -0.242897
 C 0.7248 0.0317 0.57258   -0.223084
 C 0.8572 0.0576 0.56169   0.015552
 C 0.8796 0.1447 0.52294   -0.150084
 C 0.0239 0.1742 0.51226   0.651658
 C 0.7692 0.205 0.49684   -0.010938
 C 0.6374 0.1783 0.50802   -0.140928
 C 0.5169 0.2468 0.4825   0.659535
 C 0.615 0.09 0.54582   0.013714
 C 0.8057 0.1532 0.09359   0.199134
 C 0.8626 0.4879 0.6796   -0.219113
 C 0.8533 0.58 0.64289   0.159076
 C 0.6905 0.495 0.57941   0.175861
 C 0.6947 0.3998 0.61409   -0.23299
 C 0.7831 0.3946 0.66537   0.14344
 C 0.7852 0.2936 0.70445   -0.019271
 C 0.9092 0.1922 0.78239   -0.011046
 C 0.0467 0.1659 0.81323   -0.123869
 C 0.0024 0.2133 0.69015   -0.015352
 C 0.143 0.1829 0.71872   -0.125566
 C 0.2688 0.0726 0.79743   -0.148083
 C 0.2641 0.0048 0.85272   0.10157
 C 0.3348 0.0415 0.90435   -0.189861
 C 0.3303 0.9782 0.95521   0.196633
 C 0.1923 0.9047 0.85414   -0.242898
 C 0.2752 0.9683 0.42742   -0.223083
 C 0.1428 0.9424 0.43831   0.015551
 C 0.1204 0.8553 0.47706   -0.150089
 C 0.9761 0.8258 0.48774   0.651666
 C 0.2308 0.795 0.50316   -0.01094
 C 0.3626 0.8217 0.49198   -0.140932
 C 0.4831 0.7532 0.5175   0.659527
 C 0.385 0.91 0.45418   0.013713
 C 0.1943 0.8468 0.90641   0.199134
 C 0.3626 0.0121 0.1796   -0.219111
 C 0.3533 0.92 0.14289   0.159076
 C 0.1905 0.005 0.07941   0.17586
 C 0.1947 0.1002 0.11409   -0.232989
 C 0.2831 0.1054 0.16537   0.143441
 C 0.2852 0.2064 0.20445   -0.019272
 C 0.4092 0.3078 0.28239   -0.011046
 C 0.5467 0.3341 0.31323   -0.123868
 C 0.5024 0.2867 0.19015   -0.015353
 C 0.643 0.3171 0.21872   -0.125566
 C 0.7688 0.4274 0.29743   -0.148084
 C 0.7641 0.4952 0.35272   0.101573
 C 0.8348 0.4585 0.40435   -0.189862
 C 0.8303 0.5218 0.45521   0.196631
 C 0.6923 0.5953 0.35414   -0.242895
 C 0.7752 0.5317 0.92742   -0.223085
 C 0.6428 0.5576 0.93831   0.015551
 C 0.6204 0.6447 0.97706   -0.150086
 C 0.4761 0.6742 0.98774   0.651665
 C 0.7308 0.705 0.00316   -0.010938
 C 0.8626 0.6783 0.99198   -0.140928
 C 0.9831 0.7468 0.0175   0.659524
 C 0.885 0.59 0.95418   0.013712
 C 0.6943 0.6532 0.40641   0.199134
 S 0.19425 0.56961 0.12673   1.354909
 S 0.69425 0.93039 0.62673   1.35491
 S 0.30575 0.06961 0.37327   1.354908
 S 0.80575 0.43039 0.87327   1.354911
 N 0.7301 0.0846 0.907   -0.337855
 N 0.5792 0.7671 0.7677   -0.306662
 N 0.3694 0.6078 0.72907   0.080959
 N 0.2374 0.3826 0.54293   -0.319173
 N 0.2301 0.4154 0.407   -0.33789
 N 0.0792 0.7329 0.2677   -0.306662
 N 0.8694 0.8922 0.22907   0.080959
 N 0.7374 0.1174 0.04293   -0.319134
 N 0.7699 0.5846 0.593   -0.337855
 N 0.9208 0.2671 0.7323   -0.306662
 N 0.1306 0.1078 0.77093   0.080959
 N 0.2626 0.8826 0.95707   -0.319132
 N 0.2699 0.9154 0.093   -0.337857
 N 0.4208 0.2329 0.2323   -0.306661
 N 0.6306 0.3922 0.27093   0.080959
 N 0.7626 0.6174 0.45707   -0.319133
 O 0.9014 0.29328 0.99319   -0.599373
 O 0.0365 0.16595 0.95603   -0.607426
 O 0.5384 0.26113 0.96791   -0.630989
 O 0.6202 0.36281 0.04492   -0.591576
 O 0.2789 0.66721 0.11618   -0.695113
 O 0.0495 0.59198 0.12091   -0.65561
 O 0.2407 0.51665 0.18281   -0.717139
 O 0.4014 0.20672 0.49319   -0.599413
 O 0.5365 0.33405 0.45603   -0.607418
 O 0.0384 0.23887 0.46791   -0.630992
 O 0.1202 0.13719 0.54492   -0.591573
 O 0.7789 0.83279 0.61618   -0.695112
 O 0.5495 0.90802 0.62091   -0.65561
 O 0.7407 0.98335 0.68281   -0.717143
 O 0.5986 0.79328 0.50681   -0.599373
 O 0.4635 0.66595 0.54397   -0.607428
 O 0.9616 0.76113 0.53209   -0.630992
 O 0.8798 0.86281 0.45508   -0.591576
 O 0.2211 0.16721 0.38382   -0.69511
 O 0.4505 0.09198 0.37909   -0.655616
 O 0.2593 0.01665 0.31719   -0.717151
 O 0.0986 0.70672 0.00681   -0.599374
 O 0.9635 0.83405 0.04397   -0.607424
 O 0.4616 0.73887 0.03209   -0.630988
 O 0.3798 0.63719 0.95508   -0.591578
 O 0.7211 0.33279 0.88382   -0.695113
 O 0.9505 0.40802 0.87909   -0.65561
 O 0.7593 0.48335 0.81719   -0.717145
