{'_ref': 'TBD', '_srcid': 'CAKYAQ_clean', 'submitters': [{'name': 'Dalar Nazarian Jeff Camp and David Sholl', 'email': 'dalar@gatech.edu jcamp6@gatech.edu'}], '_method': 'VASP DFT with PBE;DDEC'}
data_CoH(C2N3)3
_symmetry_space_group_name_H-M   'P 1'
_cell_length_a   6.93999955
_cell_length_b   12.69810008
_cell_length_c   12.69810000
_cell_angle_alpha   82.56709906
_cell_angle_beta   83.69769980
_cell_angle_gamma   83.69769925
_symmetry_Int_Tables_number   1
_chemical_formula_structural   CoH(C2N3)3
_chemical_formula_sum   'Co4 H4 C24 N36'
_cell_volume   1097.71108553
_cell_formula_units_Z   4
loop_
 _symmetry_equiv_pos_site_id
 _symmetry_equiv_pos_as_xyz
  1  'x, y, z'
loop_
 _atom_site_label
 _atom_site_fract_x
 _atom_site_fract_y
 _atom_site_fract_z
 _atom_site_charge
 Co 0.9087 0.32046 0.94668   1.046616
 Co 0.5913 0.05332 0.67954   1.046606
 Co 0.0913 0.67954 0.05332   1.046607
 Co 0.4087 0.94668 0.32046   1.046597
 H 0.4301 0.423 0.4516   0.308266
 H 0.0699 0.5484 0.577   0.308266
 H 0.5699 0.577 0.5484   0.308266
 H 0.9301 0.4516 0.423   0.308266
 C 0.4438 0.5363 0.3343   0.684342
 C 0.3641 0.3597 0.3309   0.677859
 C 0.3312 0.4863 0.1881   0.760065
 C 0.5184 0.7016 0.3502   0.655944
 C 0.3141 0.184 0.3468   0.66033
 C 0.2017 0.4478 0.04   0.648826
 C 0.0562 0.6657 0.4637   0.684342
 C 0.1359 0.6691 0.6403   0.677859
 C 0.1688 0.8119 0.5137   0.760065
 C 0.9816 0.6498 0.2984   0.655944
 C 0.1859 0.6532 0.816   0.66033
 C 0.2983 0.96 0.5522   0.648826
 C 0.5562 0.4637 0.6657   0.684341
 C 0.6359 0.6403 0.6691   0.677858
 C 0.6688 0.5137 0.8119   0.760066
 C 0.4816 0.2984 0.6498   0.655943
 C 0.6859 0.816 0.6532   0.660331
 C 0.7983 0.5522 0.96   0.648826
 C 0.9438 0.3343 0.5363   0.684341
 C 0.8641 0.3309 0.3597   0.677858
 C 0.8312 0.1881 0.4863   0.760065
 C 0.0184 0.3502 0.7016   0.655944
 C 0.8141 0.3468 0.184   0.660331
 C 0.7017 0.04 0.4478   0.648826
 N 0.4155 0.4371 0.3847   -0.473495
 N 0.3244 0.3825 0.2295   -0.646073
 N 0.3981 0.5625 0.2341   -0.653098
 N 0.5093 0.6018 0.392   -0.587301
 N 0.5285 0.7905 0.3215   -0.635681
 N 0.3508 0.2663 0.3905   -0.559932
 N 0.2854 0.1038 0.3186   -0.66553
 N 0.2594 0.5201 0.0923   -0.624619
 N 0.1449 0.393 0.9878   -0.596514
 N 0.0845 0.6153 0.5629   -0.473495
 N 0.1756 0.7705 0.6175   -0.646073
 N 0.1019 0.7659 0.4375   -0.653097
 N 0.9907 0.608 0.3982   -0.587301
 N 0.9715 0.6785 0.2095   -0.63568
 N 0.1492 0.6095 0.7337   -0.559932
 N 0.2146 0.6814 0.8962   -0.665531
 N 0.2406 0.9077 0.4799   -0.624619
 N 0.3551 0.0122 0.607   -0.596514
 N 0.5845 0.5629 0.6153   -0.473495
 N 0.6756 0.6175 0.7705   -0.646072
 N 0.6019 0.4375 0.7659   -0.653095
 N 0.4907 0.3982 0.608   -0.587301
 N 0.4715 0.2095 0.6785   -0.635679
 N 0.6492 0.7337 0.6095   -0.559932
 N 0.7146 0.8962 0.6814   -0.66553
 N 0.7406 0.4799 0.9077   -0.624619
 N 0.8551 0.607 0.0122   -0.59651
 N 0.9155 0.3847 0.4371   -0.473495
 N 0.8244 0.2295 0.3825   -0.646072
 N 0.8981 0.2341 0.5625   -0.653094
 N 0.0093 0.392 0.6018   -0.587301
 N 0.0285 0.3215 0.7905   -0.635679
 N 0.8508 0.3905 0.2663   -0.559932
 N 0.7854 0.3186 0.1038   -0.66553
 N 0.7594 0.0923 0.5201   -0.624619
 N 0.6449 0.9878 0.393   -0.596509
