{'_ref': 'TBD', '_srcid': 'CAKYAQ_clean', 'submitters': [{'name': 'Dalar Nazarian Jeff Camp and David Sholl', 'email': 'dalar@gatech.edu jcamp6@gatech.edu'}], '_method': 'VASP DFT with PBE;DDEC'}
data_CuH(C2N3)3
_symmetry_space_group_name_H-M   'P 1'
_cell_length_a   6.94200042
_cell_length_b   12.58399988
_cell_length_c   12.58400000
_cell_angle_alpha   84.64719986
_cell_angle_beta   83.28480286
_cell_angle_gamma   83.28480050
_symmetry_Int_Tables_number   1
_chemical_formula_structural   CuH(C2N3)3
_chemical_formula_sum   'Cu4 H4 C24 N36'
_cell_volume   1080.74508498
_cell_formula_units_Z   4
loop_
 _symmetry_equiv_pos_site_id
 _symmetry_equiv_pos_as_xyz
  1  'x, y, z'
loop_
 _atom_site_label
 _atom_site_fract_x
 _atom_site_fract_y
 _atom_site_fract_z
 _atom_site_charge
 Cu 0.93301 0.31335 0.94217   0.941332
 Cu 0.43301 0.94217 0.31335   0.941335
 Cu 0.56699 0.05783 0.68665   0.941338
 Cu 0.06699 0.68665 0.05783   0.941341
 H 0.4357 0.42264 0.45064   0.306667
 H 0.9357 0.45064 0.42264   0.306667
 H 0.0643 0.54936 0.57736   0.306667
 H 0.5643 0.57736 0.54936   0.306667
 C 0.4477 0.5325 0.3321   0.666226
 C 0.3766 0.3538 0.328   0.670271
 C 0.3501 0.474 0.1828   0.738932
 C 0.517 0.7006 0.3502   0.64728
 C 0.338 0.1751 0.3441   0.659269
 C 0.221 0.4361 0.0331   0.629749
 C 0.9477 0.3321 0.5325   0.666226
 C 0.8766 0.328 0.3538   0.670269
 C 0.8501 0.1828 0.474   0.738932
 C 0.017 0.3502 0.7006   0.64728
 C 0.838 0.3441 0.1751   0.659267
 C 0.721 0.0331 0.4361   0.629748
 C 0.0523 0.6679 0.4675   0.666225
 C 0.1234 0.672 0.6462   0.67027
 C 0.1499 0.8172 0.526   0.738932
 C 0.983 0.6498 0.2994   0.64728
 C 0.162 0.6559 0.8249   0.659269
 C 0.279 0.9669 0.5639   0.629748
 C 0.5523 0.4675 0.6679   0.666225
 C 0.6234 0.6462 0.672   0.670269
 C 0.6499 0.526 0.8172   0.738931
 C 0.483 0.2994 0.6498   0.64728
 C 0.662 0.8249 0.6559   0.659267
 C 0.779 0.5639 0.9669   0.629747
 N 0.4226 0.43426 0.38326   -0.466575
 N 0.344 0.3716 0.2256   -0.636585
 N 0.4096 0.555 0.2314   -0.616347
 N 0.5078 0.6021 0.3921   -0.582512
 N 0.5293 0.7899 0.3221   -0.625777
 N 0.3623 0.2611 0.3879   -0.545079
 N 0.317 0.0929 0.3151   -0.638013
 N 0.2912 0.5052 0.0854   -0.572106
 N 0.1528 0.3853 0.9787   -0.576737
 N 0.9226 0.38326 0.43426   -0.466575
 N 0.844 0.2256 0.3716   -0.636584
 N 0.9096 0.2314 0.555   -0.616347
 N 0.0078 0.3921 0.6021   -0.582512
 N 0.0293 0.3221 0.7899   -0.625775
 N 0.8623 0.3879 0.2611   -0.545079
 N 0.817 0.3151 0.0929   -0.638012
 N 0.7912 0.0854 0.5052   -0.572106
 N 0.6528 0.9787 0.3853   -0.576737
 N 0.0774 0.61674 0.56574   -0.466575
 N 0.156 0.7744 0.6284   -0.636585
 N 0.0904 0.7686 0.445   -0.616345
 N 0.9922 0.6079 0.3979   -0.582511
 N 0.9707 0.6779 0.2101   -0.625777
 N 0.1377 0.6121 0.7389   -0.545078
 N 0.183 0.6849 0.9071   -0.638014
 N 0.2088 0.9146 0.4948   -0.572106
 N 0.3472 0.0213 0.6147   -0.576736
 N 0.5774 0.56574 0.61674   -0.466575
 N 0.656 0.6284 0.7744   -0.636584
 N 0.5904 0.445 0.7686   -0.616345
 N 0.4922 0.3979 0.6079   -0.582511
 N 0.4707 0.2101 0.6779   -0.625775
 N 0.6377 0.7389 0.6121   -0.545078
 N 0.683 0.9071 0.6849   -0.638013
 N 0.7088 0.4948 0.9146   -0.572106
 N 0.8472 0.6147 0.0213   -0.576735
