{'_ref': 'TBD', '_srcid': 'CAKYAQ_clean', 'submitters': [{'name': 'Dalar Nazarian Jeff Camp and David Sholl', 'email': 'dalar@gatech.edu jcamp6@gatech.edu'}], '_method': 'VASP DFT with PBE;DDEC'}
data_CdH(C2N3)3
_symmetry_space_group_name_H-M   'P 1'
_cell_length_a   7.07299975
_cell_length_b   12.99929968
_cell_length_c   12.99930000
_cell_angle_alpha   82.22419791
_cell_angle_beta   84.40139857
_cell_angle_gamma   84.40139748
_symmetry_Int_Tables_number   1
_chemical_formula_structural   CdH(C2N3)3
_chemical_formula_sum   'Cd4 H4 C24 N36'
_cell_volume   1174.24856923
_cell_formula_units_Z   4
loop_
 _symmetry_equiv_pos_site_id
 _symmetry_equiv_pos_as_xyz
  1  'x, y, z'
loop_
 _atom_site_label
 _atom_site_fract_x
 _atom_site_fract_y
 _atom_site_fract_z
 _atom_site_charge
 Cd 0.90525 0.32258 0.94758   1.168163
 Cd 0.59475 0.05242 0.67742   1.168162
 Cd 0.09475 0.67742 0.05242   1.168165
 Cd 0.40525 0.94758 0.32258   1.168163
 H 0.4357 0.4239 0.4523   0.310124
 H 0.0643 0.5477 0.5761   0.310124
 H 0.5643 0.5761 0.5477   0.310124
 H 0.9357 0.4523 0.4239   0.310124
 C 0.4395 0.5342 0.337   0.694061
 C 0.3636 0.3609 0.3355   0.688282
 C 0.3348 0.4829 0.1939   0.769779
 C 0.5187 0.6961 0.3503   0.665384
 C 0.3103 0.1903 0.3511   0.666428
 C 0.219 0.4442 0.046   0.647827
 C 0.0605 0.663 0.4658   0.694061
 C 0.1364 0.6645 0.6391   0.688283
 C 0.1652 0.8061 0.5171   0.769779
 C 0.9813 0.6497 0.3039   0.665384
 C 0.1897 0.6489 0.8097   0.666429
 C 0.281 0.954 0.5558   0.647827
 C 0.5605 0.4658 0.663   0.694061
 C 0.6364 0.6391 0.6645   0.688282
 C 0.6652 0.5171 0.8061   0.769779
 C 0.4813 0.3039 0.6497   0.665384
 C 0.6897 0.8097 0.6489   0.666428
 C 0.781 0.5558 0.954   0.647826
 C 0.9395 0.337 0.5342   0.694061
 C 0.8636 0.3355 0.3609   0.688282
 C 0.8348 0.1939 0.4829   0.769779
 C 0.0187 0.3503 0.6961   0.665384
 C 0.8103 0.3511 0.1903   0.666429
 C 0.719 0.046 0.4442   0.647826
 N 0.4168 0.4376 0.3874   -0.471637
 N 0.3249 0.3825 0.2367   -0.659543
 N 0.3969 0.5596 0.239   -0.670802
 N 0.5042 0.5999 0.3935   -0.60326
 N 0.5348 0.7823 0.3191   -0.656343
 N 0.3512 0.2694 0.394   -0.578983
 N 0.2742 0.1146 0.3222   -0.678965
 N 0.2742 0.5143 0.0979   -0.655123
 N 0.1659 0.3918 0.992   -0.635394
 N 0.0832 0.6126 0.5624   -0.471637
 N 0.1751 0.7633 0.6175   -0.659543
 N 0.1031 0.761 0.4404   -0.670802
 N 0.9958 0.6065 0.4001   -0.60326
 N 0.9652 0.6809 0.2177   -0.656343
 N 0.1488 0.606 0.7306   -0.578983
 N 0.2258 0.6778 0.8854   -0.678967
 N 0.2258 0.9021 0.4857   -0.655123
 N 0.3341 0.008 0.6082   -0.635394
 N 0.5832 0.5624 0.6126   -0.471637
 N 0.6751 0.6175 0.7633   -0.659543
 N 0.6031 0.4404 0.761   -0.670801
 N 0.4958 0.4001 0.6065   -0.60326
 N 0.4652 0.2177 0.6809   -0.656342
 N 0.6488 0.7306 0.606   -0.578982
 N 0.7258 0.8854 0.6778   -0.678964
 N 0.7258 0.4857 0.9021   -0.655123
 N 0.8341 0.6082 0.008   -0.635393
 N 0.9168 0.3874 0.4376   -0.471637
 N 0.8249 0.2367 0.3825   -0.659543
 N 0.8969 0.239 0.5596   -0.6708
 N 0.0042 0.3935 0.5999   -0.60326
 N 0.0348 0.3191 0.7823   -0.656342
 N 0.8512 0.394 0.2694   -0.578982
 N 0.7742 0.3222 0.1146   -0.678967
 N 0.7742 0.0979 0.5143   -0.655123
 N 0.6659 0.992 0.3918   -0.635392
