{'_ref': 'TBD', '_srcid': 'CAKYAQ_clean', 'submitters': [{'name': 'Dalar Nazarian Jeff Camp and David Sholl', 'email': 'dalar@gatech.edu jcamp6@gatech.edu'}], '_method': 'VASP DFT with PBE;DDEC'}
data_Zn2H9C17N2O9
_symmetry_space_group_name_H-M   'P 1'
_cell_length_a   13.95170025
_cell_length_b   16.54740021
_cell_length_c   16.54740000
_cell_angle_alpha   103.39500152
_cell_angle_beta   110.00900077
_cell_angle_gamma   110.00899971
_symmetry_Int_Tables_number   1
_chemical_formula_structural   Zn2H9C17N2O9
_chemical_formula_sum   'Zn8 H36 C68 N8 O36'
_cell_volume   3098.67626106
_cell_formula_units_Z   4
loop_
 _symmetry_equiv_pos_site_id
 _symmetry_equiv_pos_as_xyz
  1  'x, y, z'
loop_
 _atom_site_label
 _atom_site_fract_x
 _atom_site_fract_y
 _atom_site_fract_z
 _atom_site_charge
 Zn 0.28775 0.34755 0.20573   1.013814
 Zn 0.53922 0.35932 0.27862   1.040608
 Zn 0.21225 0.79427 0.65245   1.013814
 Zn 0.96078 0.72138 0.64068   1.040608
 Zn 0.71225 0.65245 0.79427   1.013814
 Zn 0.46078 0.64068 0.72138   1.040608
 Zn 0.78775 0.20573 0.34755   1.013814
 Zn 0.03922 0.27862 0.35932   1.040608
 H 0.6544 0.5059 0.1161   0.139748
 H 0.1334 0.0572 0.0364   0.126322
 H 0.3631 0.482 0.5532   0.130385
 H 0.0554 0.349 0.1554   0.091836
 H 0.8646 0.2582 0.0372   0.153289
 H 0.9789 0.1252 0.8808   0.17029
 H 0.1569 0.2171 0.000900000000001   0.075739
 H 0.2781 0.3933 0.0171   0.378714
 H 0.5071 0.1575 0.1309   0.404242
 H 0.8456 0.8839 0.4941   0.139748
 H 0.3666 0.9636 0.9428   0.126321
 H 0.1369 0.4468 0.518   0.130385
 H 0.4446 0.8446 0.651   0.091836
 H 0.6354 0.9628 0.7418   0.153292
 H 0.5211 0.1192 0.8748   0.170289
 H 0.3431 0.9991 0.7829   0.075739
 H 0.2219 0.9829 0.6067   0.378714
 H 0.9929 0.8691 0.8425   0.404243
 H 0.3456 0.4941 0.8839   0.139744
 H 0.8666 0.9428 0.9636   0.126322
 H 0.6369 0.518 0.4468   0.130385
 H 0.9446 0.651 0.8446   0.091836
 H 0.1354 0.7418 0.9628   0.153289
 H 0.0211 0.8748 0.1192   0.17029
 H 0.8431 0.7829 0.9991   0.075739
 H 0.7219 0.6067 0.9829   0.378714
 H 0.4929 0.8425 0.8691   0.404242
 H 0.1544 0.1161 0.5059   0.139744
 H 0.6334 0.0364 0.0572   0.12632
 H 0.8631 0.5532 0.482   0.130385
 H 0.5554 0.1554 0.349   0.091836
 H 0.3646 0.0372 0.2582   0.153292
 H 0.4789 0.8808 0.1252   0.170289
 H 0.6569 0.000900000000001 0.2171   0.075739
 H 0.7781 0.0171 0.3933   0.378714
 H 0.0071 0.1309 0.1575   0.404243
 C 0.4635 0.4173 0.1285   0.753255
 C 0.4819 0.4603 0.0623   -0.254061
 C 0.5908 0.5039 0.0681   -0.15044
 C 0.3912 0.4575 0.9903   0.333546
 C 0.3468 0.1842 0.1474   0.709173
 C 0.3007 0.0929 0.0671   -0.253515
 C 0.181 0.0389 0.0151   -0.157702
 C 0.3688 0.064 0.0382   0.317555
 C 0.2577 0.3709 0.3781   0.707526
 C 0.3847 0.4383 0.4383   -0.251576
 C 0.4682 0.4454 0.4044   0.350676
 C 0.42 0.4909 0.5323   -0.178503
 C 0.0383 0.3018 0.0998   0.189292
 C 0.9253 0.2489 0.0303   -0.229032
 C 0.9055 0.182 0.9504   0.23104
 C 0.9921 0.1693 0.9367   -0.220932
 C 0.0955 0.2242 0.0088   0.223646
 C 0.0365 0.8715 0.5827   0.753255
 C 0.0181 0.9377 0.5397   -0.254061
 C 0.9092 0.9319 0.4961   -0.15044
 C 0.1088 0.0097 0.5425   0.333546
 C 0.1532 0.8526 0.8158   0.709174
 C 0.1993 0.9329 0.9071   -0.253521
 C 0.319 0.9849 0.9611   -0.157687
 C 0.1312 0.9618 0.936   0.317571
 C 0.2423 0.6219 0.6291   0.707526
 C 0.1153 0.5617 0.5617   -0.251576
 C 0.0318 0.5956 0.5546   0.350676
 C 0.08 0.4677 0.5091   -0.178503
 C 0.4617 0.9002 0.6982   0.18929
 C 0.5747 0.9697 0.7511   -0.229027
 C 0.5945 0.0496 0.818   0.231023
 C 0.5079 0.0633 0.8307   -0.220934
 C 0.4045 0.9912 0.7758   0.223648
 C 0.5365 0.5827 0.8715   0.753257
 C 0.5181 0.5397 0.9377   -0.254074
 C 0.4092 0.4961 0.9319   -0.150403
 C 0.6088 0.5425 0.0097   0.333579
 C 0.6532 0.8158 0.8526   0.709173
 C 0.6993 0.9071 0.9329   -0.253515
 C 0.819 0.9611 0.9849   -0.157702
 C 0.6312 0.936 0.9618   0.317555
 C 0.7423 0.6291 0.6219   0.707526
 C 0.6153 0.5617 0.5617   -0.251578
 C 0.5318 0.5546 0.5956   0.350681
 C 0.58 0.5091 0.4677   -0.178498
 C 0.9617 0.6982 0.9002   0.189292
 C 0.0747 0.7511 0.9697   -0.229032
 C 0.0945 0.818 0.0496   0.23104
 C 0.0079 0.8307 0.0633   -0.220932
 C 0.9045 0.7758 0.9912   0.223646
 C 0.9635 0.1285 0.4173   0.753257
 C 0.9819 0.0623 0.4603   -0.254073
 C 0.0908 0.0681 0.5039   -0.150403
 C 0.8912 0.9903 0.4575   0.333579
 C 0.8468 0.1474 0.1842   0.709174
 C 0.8007 0.0671 0.0929   -0.253521
 C 0.681 0.0151 0.0389   -0.157687
 C 0.8688 0.0382 0.064   0.317571
 C 0.7577 0.3781 0.3709   0.707526
 C 0.8847 0.4383 0.4383   -0.251578
 C 0.9682 0.4044 0.4454   0.350681
 C 0.92 0.5323 0.4909   -0.178498
 C 0.5383 0.0998 0.3018   0.189291
 C 0.4253 0.0303 0.2489   -0.229026
 C 0.4055 0.9504 0.182   0.231023
 C 0.4921 0.9367 0.1693   -0.220934
 C 0.5955 0.0088 0.2242   0.223648
 N 0.1254 0.2879 0.0907   -0.364461
 N 0.7846 0.1113 0.8751   -0.115958
 N 0.3746 0.9093 0.7121   -0.36446
 N 0.7154 0.1249 0.8887   -0.115783
 N 0.8746 0.7121 0.9093   -0.364461
 N 0.2154 0.8887 0.1249   -0.115958
 N 0.6254 0.0907 0.2879   -0.36446
 N 0.2846 0.8751 0.1113   -0.115783
 O 0.3652 0.3782 0.1188   -0.656855
 O 0.5481 0.4219 0.1901   -0.601968
 O 0.28 0.4154 0.9764   -0.548918
 O 0.2824 0.2119 0.1635   -0.565824
 O 0.4584 0.2299 0.1931   -0.6573
 O 0.4853 0.1095 0.0845   -0.511542
 O 0.4403 0.3952 0.3172   -0.653954
 O 0.2176 0.3273 0.2925   -0.602585
 O 0.1982 0.3624 0.421   -0.565693
 O 0.1348 0.8812 0.6218   -0.656855
 O 0.9519 0.8099 0.5781   -0.601968
 O 0.22 0.0236 0.5846   -0.548918
 O 0.2176 0.8365 0.7881   -0.565824
 O 0.0416 0.8069 0.7701   -0.6573
 O 0.0147 0.9155 0.8905   -0.511544
 O 0.0597 0.6828 0.6048   -0.653954
 O 0.2824 0.7075 0.6727   -0.602585
 O 0.3018 0.579 0.6376   -0.565693
 O 0.6348 0.6218 0.8812   -0.656855
 O 0.4519 0.5781 0.8099   -0.601969
 O 0.72 0.5846 0.0236   -0.54892
 O 0.7176 0.7881 0.8365   -0.565824
 O 0.5416 0.7701 0.8069   -0.6573
 O 0.5147 0.8905 0.9155   -0.511542
 O 0.5597 0.6048 0.6828   -0.653954
 O 0.7824 0.6727 0.7075   -0.602585
 O 0.8018 0.6376 0.579   -0.565693
 O 0.8652 0.1188 0.3782   -0.656855
 O 0.0481 0.1901 0.4219   -0.601969
 O 0.78 0.9764 0.4154   -0.54892
 O 0.7824 0.1635 0.2119   -0.565824
 O 0.9584 0.1931 0.2299   -0.6573
 O 0.9853 0.0845 0.1095   -0.511544
 O 0.9403 0.3172 0.3952   -0.653954
 O 0.7176 0.2925 0.3273   -0.602585
 O 0.6982 0.421 0.3624   -0.565693
