{'_ref': 'TBD', '_srcid': 'CAKYAQ_clean', 'submitters': [{'name': 'Dalar Nazarian Jeff Camp and David Sholl', 'email': 'dalar@gatech.edu jcamp6@gatech.edu'}], '_method': 'VASP DFT with PBE;DDEC'}
data_ZnH6(CN2)4
_symmetry_space_group_name_H-M   'P 1'
_cell_length_a   10.78680000
_cell_length_b   13.98059986
_cell_length_c   17.90660000
_cell_angle_alpha   111.60499818
_cell_angle_beta   90.00000000
_cell_angle_gamma   90.00000000
_symmetry_Int_Tables_number   1
_chemical_formula_structural   ZnH6(CN2)4
_chemical_formula_sum   'Zn8 H48 C32 N64'
_cell_volume   2510.7017291
_cell_formula_units_Z   8
loop_
 _symmetry_equiv_pos_site_id
 _symmetry_equiv_pos_as_xyz
  1  'x, y, z'
loop_
 _atom_site_label
 _atom_site_fract_x
 _atom_site_fract_y
 _atom_site_fract_z
 _atom_site_charge
 Zn 0.72189 0.26942 0.17631   0.787631
 Zn 0.76695 0.75925 0.33053   0.819825
 Zn 0.22189 0.23058 0.32369   0.787631
 Zn 0.26695 0.74075 0.16947   0.819825
 Zn 0.27811 0.73058 0.82369   0.787631
 Zn 0.23305 0.24075 0.66947   0.819825
 Zn 0.77811 0.76942 0.67631   0.787631
 Zn 0.73305 0.25925 0.83053   0.819825
 H 0.9642 0.5597 0.2704   0.140558
 H 0.944 0.4531 0.1967   0.131901
 H 0.9525 0.4548 0.2864   0.141082
 H 0.4924 0.3672 0.3857   0.156057
 H 0.6254 0.3222 0.3504   0.142484
 H 0.5311 0.2536 0.3784   0.155983
 H 0.9455 0.7356 0.132   0.161786
 H 0.8733 0.6512 0.1562   0.148306
 H 0.0083 0.6263 0.1167   0.149199
 H 0.6715 0.0844 0.9439   0.156107
 H 0.5698 0.157 0.9266   0.152045
 H 0.5764 0.1478 0.013   0.134025
 H 0.4642 0.9403 0.2296   0.140558
 H 0.444 0.0469 0.3033   0.131901
 H 0.4525 0.0452 0.2136   0.141082
 H 0.9924 0.1328 0.1143   0.156057
 H 0.1254 0.1778 0.1496   0.142484
 H 0.0311 0.2464 0.1216   0.155983
 H 0.4455 0.7644 0.368   0.161786
 H 0.3733 0.8488 0.3438   0.148306
 H 0.5083 0.8737 0.3833   0.149199
 H 0.1715 0.4156 0.5561   0.156108
 H 0.0698 0.343 0.5734   0.152045
 H 0.0764 0.3522 0.487   0.134025
 H 0.0358 0.4403 0.7296   0.140558
 H 0.056 0.5469 0.8033   0.131901
 H 0.0475 0.5452 0.7136   0.141082
 H 0.5076 0.6328 0.6143   0.156058
 H 0.3746 0.6778 0.6496   0.142485
 H 0.4689 0.7464 0.6216   0.155983
 H 0.0545 0.2644 0.868   0.161786
 H 0.1267 0.3488 0.8438   0.148306
 H 0.9917 0.3737 0.8833   0.149199
 H 0.3285 0.9156 0.0561   0.156108
 H 0.4302 0.843 0.0734   0.152045
 H 0.4236 0.8522 0.987   0.134026
 H 0.5358 0.0597 0.7704   0.140558
 H 0.556 0.9531 0.6967   0.131901
 H 0.5475 0.9548 0.7864   0.141082
 H 0.0076 0.8672 0.8857   0.156058
 H 0.8746 0.8222 0.8504   0.142485
 H 0.9689 0.7536 0.8784   0.155983
 H 0.5545 0.2356 0.632   0.161786
 H 0.6267 0.1512 0.6562   0.148306
 H 0.4917 0.1263 0.6167   0.149199
 H 0.8285 0.5844 0.4439   0.156108
 H 0.9302 0.657 0.4266   0.152045
 H 0.9236 0.6478 0.513   0.134026
 C 0.78656 0.50673 0.26177   0.412071
 C 0.92358 0.49236 0.25308   -0.436437
 C 0.48459 0.26272 0.27104   0.432447
 C 0.53791 0.30505 0.35342   -0.448668
 C 0.01163 0.72201 0.23381   0.434992
 C 0.95488 0.68023 0.1528   -0.467478
 C 0.71381 0.23679 0.99489   0.442746
 C 0.62533 0.14898 0.96724   -0.444273
 C 0.28656 0.99327 0.23823   0.412071
 C 0.42358 0.00764 0.24692   -0.436437
 C 0.98459 0.23728 0.22896   0.432447
 C 0.03791 0.19495 0.14658   -0.448668
 C 0.51163 0.77799 0.26619   0.434992
 C 0.45488 0.81977 0.3472   -0.467478
 C 0.21381 0.26321 0.50511   0.442746
 C 0.12533 0.35102 0.53276   -0.444273
 C 0.21344 0.49327 0.73823   0.412071
 C 0.07642 0.50764 0.74692   -0.436438
 C 0.51541 0.73728 0.72896   0.432447
 C 0.46209 0.69495 0.64658   -0.448668
 C 0.98837 0.27799 0.76619   0.434992
 C 0.04512 0.31977 0.8472   -0.467478
 C 0.28619 0.76321 0.00511   0.442746
 C 0.37467 0.85102 0.03276   -0.444273
 C 0.71344 0.00673 0.76177   0.412071
 C 0.57642 0.99236 0.75308   -0.436438
 C 0.01541 0.76272 0.77104   0.432447
 C 0.96209 0.80505 0.85342   -0.448668
 C 0.48837 0.22201 0.73381   0.434992
 C 0.54512 0.18023 0.6528   -0.467478
 C 0.78619 0.73679 0.49489   0.442746
 C 0.87467 0.64898 0.46724   -0.444273
 N 0.72871 0.59715 0.29365   -0.348262
 N 0.60592 0.57468 0.29386   -0.106931
 N 0.59125 0.47538 0.26293   -0.108661
 N 0.70379 0.42985 0.24166   -0.324648
 N 0.54799 0.23904 0.20241   -0.319651
 N 0.46388 0.20212 0.14189   -0.079693
 N 0.35474 0.20283 0.17287   -0.071697
 N 0.36536 0.24068 0.25424   -0.332326
 N 0.94981 0.7511 0.30302   -0.32517
 N 0.0362 0.78449 0.36218   -0.106847
 N 0.14553 0.77547 0.32935   -0.058208
 N 0.13265 0.73603 0.24828   -0.331252
 N 0.75596 0.28268 0.06971   -0.332985
 N 0.83424 0.3585 0.06842   -0.054978
 N 0.83857 0.35863 0.99613   -0.088661
 N 0.76297 0.2827 0.94817   -0.31242
 N 0.22871 0.90285 0.20635   -0.348262
 N 0.10592 0.92532 0.20614   -0.106931
 N 0.09125 0.02462 0.23707   -0.108661
 N 0.20379 0.07015 0.25834   -0.324648
 N 0.04799 0.26096 0.29759   -0.319651
 N 0.96388 0.29788 0.35811   -0.079693
 N 0.85474 0.29717 0.32713   -0.071697
 N 0.86536 0.25932 0.24576   -0.332326
 N 0.44981 0.7489 0.19698   -0.32517
 N 0.5362 0.71551 0.13782   -0.106847
 N 0.64553 0.72453 0.17065   -0.058208
 N 0.63265 0.76397 0.25172   -0.331252
 N 0.25596 0.21732 0.43029   -0.332985
 N 0.33424 0.1415 0.43158   -0.054978
 N 0.33857 0.14137 0.50387   -0.088661
 N 0.26297 0.2173 0.55183   -0.31242
 N 0.27129 0.40285 0.70635   -0.348262
 N 0.39408 0.42532 0.70614   -0.106931
 N 0.40875 0.52462 0.73707   -0.108661
 N 0.29621 0.57015 0.75834   -0.324648
 N 0.45201 0.76096 0.79759   -0.319651
 N 0.53612 0.79788 0.85811   -0.079693
 N 0.64526 0.79717 0.82713   -0.071697
 N 0.63464 0.75932 0.74576   -0.332326
 N 0.05019 0.2489 0.69698   -0.32517
 N 0.9638 0.21551 0.63782   -0.106847
 N 0.85447 0.22453 0.67065   -0.058208
 N 0.86735 0.26397 0.75172   -0.331252
 N 0.24404 0.71732 0.93029   -0.332985
 N 0.16576 0.6415 0.93158   -0.054978
 N 0.16143 0.64137 0.00387   -0.088661
 N 0.23703 0.7173 0.05183   -0.31242
 N 0.77129 0.09715 0.79365   -0.348262
 N 0.89408 0.07468 0.79386   -0.106931
 N 0.90875 0.97538 0.76293   -0.108661
 N 0.79621 0.92985 0.74166   -0.324648
 N 0.95201 0.73904 0.70241   -0.319651
 N 0.03612 0.70212 0.64189   -0.079693
 N 0.14526 0.70283 0.67287   -0.071697
 N 0.13464 0.74068 0.75424   -0.332326
 N 0.55019 0.2511 0.80302   -0.32517
 N 0.4638 0.28449 0.86218   -0.106847
 N 0.35447 0.27547 0.82935   -0.058208
 N 0.36735 0.23603 0.74828   -0.331252
 N 0.74404 0.78268 0.56971   -0.332985
 N 0.66576 0.8585 0.56842   -0.054978
 N 0.66143 0.85863 0.49613   -0.088661
 N 0.73703 0.7827 0.44817   -0.31242
