{'_ref': 'TBD', '_srcid': 'CAKYAQ_clean', 'submitters': [{'name': 'Dalar Nazarian Jeff Camp and David Sholl', 'email': 'dalar@gatech.edu jcamp6@gatech.edu'}], '_method': 'VASP DFT with PBE;DDEC'}
data_ZnH15C18N3O5
_symmetry_space_group_name_H-M   'P 1'
_cell_length_a   11.38700039
_cell_length_b   14.69140050
_cell_length_c   14.69140000
_cell_angle_alpha   119.74900102
_cell_angle_beta   95.32209885
_cell_angle_gamma   95.32210140
_symmetry_Int_Tables_number   1
_chemical_formula_structural   ZnH15C18N3O5
_chemical_formula_sum   'Zn4 H60 C72 N12 O20'
_cell_volume   2097.07095966
_cell_formula_units_Z   4
loop_
 _symmetry_equiv_pos_site_id
 _symmetry_equiv_pos_as_xyz
  1  'x, y, z'
loop_
 _atom_site_label
 _atom_site_fract_x
 _atom_site_fract_y
 _atom_site_fract_z
 _atom_site_charge
 Zn 0.59577 0.16522 0.7336   0.950847
 Zn 0.90423 0.2664 0.83478   0.950847
 Zn 0.40423 0.83478 0.2664   0.950847
 Zn 0.09577 0.7336 0.16522   0.950847
 H 0.5912 0.441 0.6714   0.085735
 H 0.602 0.5237 0.5749   0.123778
 H 0.6278 0.2489 0.3149   0.119714
 H 0.6124 0.1636 0.4108   0.078242
 H 0.5083 0.2669 0.0425   0.060541
 H 0.4791 0.3347 0.2175   0.12872
 H 0.8225 0.4724 0.3182   0.132487
 H 0.8517 0.4031 0.1435   0.089353
 H 0.3739 0.0449 0.5475   0.129923
 H 0.3803 0.0991 0.8347   0.066358
 H 0.1661 0.9209 0.4633   0.125707
 H 0.1011 0.8962 0.5402   0.087587
 H 0.0346 0.063 0.6116   0.076919
 H 0.0955 0.0834 0.5304   0.083971
 H 0.1904 0.0055 0.7391   0.313697
 H 0.9088 0.3286 0.559   0.085735
 H 0.898 0.4251 0.4763   0.123778
 H 0.8722 0.6851 0.7511   0.119714
 H 0.8876 0.5892 0.8364   0.078242
 H 0.9917 0.9575 0.7331   0.060539
 H 0.0209 0.7825 0.6653   0.128719
 H 0.6775 0.6818 0.5276   0.132487
 H 0.6483 0.8565 0.5969   0.089353
 H 0.1261 0.4525 0.9551   0.129923
 H 0.1197 0.1653 0.9009   0.066357
 H 0.3339 0.5367 0.0791   0.125707
 H 0.3989 0.4598 0.1038   0.087587
 H 0.4654 0.3884 0.937   0.076919
 H 0.4045 0.4696 0.9166   0.083971
 H 0.3096 0.2609 0.9945   0.313694
 H 0.4088 0.559 0.3286   0.085735
 H 0.398 0.4763 0.4251   0.123778
 H 0.3722 0.7511 0.6851   0.119714
 H 0.3876 0.8364 0.5892   0.078242
 H 0.4917 0.7331 0.9575   0.060541
 H 0.5209 0.6653 0.7825   0.12872
 H 0.1775 0.5276 0.6818   0.132487
 H 0.1483 0.5969 0.8565   0.089353
 H 0.6261 0.9551 0.4525   0.129923
 H 0.6197 0.9009 0.1653   0.066358
 H 0.8339 0.0791 0.5367   0.125707
 H 0.8989 0.1038 0.4598   0.087587
 H 0.9654 0.937 0.3884   0.076919
 H 0.9045 0.9166 0.4696   0.083971
 H 0.8096 0.9945 0.2609   0.313697
 H 0.0912 0.6714 0.441   0.085736
 H 0.102 0.5749 0.5237   0.123778
 H 0.1278 0.3149 0.2489   0.119714
 H 0.1124 0.4108 0.1636   0.078242
 H 0.0083 0.0425 0.2669   0.060539
 H 0.9791 0.2175 0.3347   0.128719
 H 0.3225 0.3182 0.4724   0.132487
 H 0.3517 0.1435 0.4031   0.089353
 H 0.8739 0.5475 0.0449   0.129923
 H 0.8803 0.8347 0.0991   0.066357
 H 0.6661 0.4633 0.9209   0.125707
 H 0.6011 0.5402 0.8962   0.087587
 H 0.5346 0.6116 0.063   0.076919
 H 0.5955 0.5304 0.0834   0.083971
 H 0.6904 0.7391 0.0055   0.313694
 C 0.6021 0.2937 0.5521   -0.18994
 C 0.5985 0.40222 0.59998   0.024294
 C 0.6057 0.45153 0.54267   -0.236282
 C 0.6186 0.39492 0.43648   0.288009
 C 0.6206 0.28686 0.38634   -0.272974
 C 0.6119 0.23643 0.44397   0.02007
 C 0.5973 0.23841 0.61359   0.647548
 C 0.6836 0.32811 0.07549   -0.205577
 C 0.5716 0.30762 0.09758   -0.015043
 C 0.554 0.34815 0.20225   -0.255046
 C 0.6483 0.40821 0.28319   0.273272
 C 0.7598 0.43045 0.26275   -0.227299
 C 0.7767 0.38936 0.15824   0.003535
 C 0.7039 0.28455 0.96245   0.687309
 C 0.3528 0.04812 0.60868   0.146485
 C 0.3542 0.0763 0.7637   0.09555
 C 0.1417 0.95266 0.53274   -0.068196
 C 0.0561 0.02881 0.54099   -0.146466
 C 0.8979 0.4479 0.7063   -0.18994
 C 0.9015 0.40002 0.59778   0.024293
 C 0.8943 0.45733 0.54847   -0.236282
 C 0.8814 0.56352 0.60508   0.288009
 C 0.8794 0.61366 0.71314   -0.272975
 C 0.8881 0.55603 0.76357   0.02007
 C 0.9027 0.38641 0.76159   0.647548
 C 0.8164 0.92451 0.67189   -0.205578
 C 0.9284 0.90242 0.69238   -0.015042
 C 0.946 0.79775 0.65185   -0.255046
 C 0.8517 0.71681 0.59179   0.273272
 C 0.7402 0.73725 0.56955   -0.227298
 C 0.7233 0.84176 0.61064   0.003535
 C 0.7961 0.03755 0.71545   0.687312
 C 0.1472 0.39132 0.95188   0.146485
 C 0.1458 0.2363 0.9237   0.09555
 C 0.3583 0.46726 0.04734   -0.068197
 C 0.4439 0.45901 0.97119   -0.146465
 C 0.3979 0.7063 0.4479   -0.18994
 C 0.4015 0.59778 0.40002   0.024294
 C 0.3943 0.54847 0.45733   -0.236282
 C 0.3814 0.60508 0.56352   0.288009
 C 0.3794 0.71314 0.61366   -0.272974
 C 0.3881 0.76357 0.55603   0.02007
 C 0.4027 0.76159 0.38641   0.647549
 C 0.3164 0.67189 0.92451   -0.205577
 C 0.4284 0.69238 0.90242   -0.015043
 C 0.446 0.65185 0.79775   -0.255046
 C 0.3517 0.59179 0.71681   0.273272
 C 0.2402 0.56955 0.73725   -0.227298
 C 0.2233 0.61064 0.84176   0.003535
 C 0.2961 0.71545 0.03755   0.687309
 C 0.6472 0.95188 0.39132   0.146485
 C 0.6458 0.9237 0.2363   0.09555
 C 0.8583 0.04734 0.46726   -0.068196
 C 0.9439 0.97119 0.45901   -0.146466
 C 0.1021 0.5521 0.2937   -0.18994
 C 0.0985 0.59998 0.40222   0.024293
 C 0.1057 0.54267 0.45153   -0.236282
 C 0.1186 0.43648 0.39492   0.288009
 C 0.1206 0.38634 0.28686   -0.272974
 C 0.1119 0.44397 0.23643   0.02007
 C 0.0973 0.61359 0.23841   0.647549
 C 0.1836 0.07549 0.32811   -0.205578
 C 0.0716 0.09758 0.30762   -0.015042
 C 0.054 0.20225 0.34815   -0.255045
 C 0.1483 0.28319 0.40821   0.273272
 C 0.2598 0.26275 0.43045   -0.227298
 C 0.2767 0.15824 0.38936   0.003535
 C 0.2039 0.96245 0.28455   0.687312
 C 0.8528 0.60868 0.04812   0.146485
 C 0.8542 0.7637 0.0763   0.09555
 C 0.6417 0.53274 0.95266   -0.068197
 C 0.5561 0.54099 0.02881   -0.146465
 N 0.424 0.09408 0.70212   -0.386493
 N 0.2474 0.02446 0.71454   -0.253524
 N 0.2482 0.00771 0.61549   0.100748
 N 0.076 0.29788 0.90592   -0.386493
 N 0.2526 0.28546 0.97554   -0.253522
 N 0.2518 0.38451 0.99229   0.100747
 N 0.576 0.90592 0.29788   -0.386493
 N 0.7526 0.97554 0.28546   -0.253523
 N 0.7518 0.99229 0.38451   0.100747
 N 0.924 0.70212 0.09408   -0.386493
 N 0.7474 0.71454 0.02446   -0.253522
 N 0.7482 0.61549 0.00771   0.100747
 O 0.5846 0.13953 0.56747   -0.589455
 O 0.6083 0.29332 0.71468   -0.616407
 O 0.6322 0.45607 0.38923   -0.249994
 O 0.6153 0.23137 0.89071   -0.625065
 O 0.8067 0.30617 0.94863   -0.602638
 O 0.9154 0.43253 0.86047   -0.589455
 O 0.8917 0.28532 0.70668   -0.616407
 O 0.8678 0.61077 0.54393   -0.249995
 O 0.8847 0.10929 0.76863   -0.625065
 O 0.6933 0.05137 0.69383   -0.602638
 O 0.4154 0.86047 0.43253   -0.589455
 O 0.3917 0.70668 0.28532   -0.616407
 O 0.3678 0.54393 0.61077   -0.249994
 O 0.3847 0.76863 0.10929   -0.625065
 O 0.1933 0.69383 0.05137   -0.602638
 O 0.0846 0.56747 0.13953   -0.589455
 O 0.1083 0.71468 0.29332   -0.616407
 O 0.1322 0.38923 0.45607   -0.249995
 O 0.1153 0.89071 0.23137   -0.625065
 O 0.3067 0.94863 0.30617   -0.602638
