{'_ref': 'TBD', '_srcid': 'CAKYAQ_clean', 'submitters': [{'name': 'Dalar Nazarian Jeff Camp and David Sholl', 'email': 'dalar@gatech.edu jcamp6@gatech.edu'}], '_method': 'VASP DFT with PBE;DDEC'}
data_Nd2Ru3H6(C4N3)6
_symmetry_space_group_name_H-M   'P 1'
_cell_length_a   8.77310000
_cell_length_b   11.03299980
_cell_length_c   25.68900000
_cell_angle_alpha   90.00000000
_cell_angle_beta   90.00000000
_cell_angle_gamma   101.83399863
_symmetry_Int_Tables_number   1
_chemical_formula_structural   Nd2Ru3H6(C4N3)6
_chemical_formula_sum   'Nd4 Ru6 H12 C48 N36'
_cell_volume   2433.68200959
_cell_formula_units_Z   2
loop_
 _symmetry_equiv_pos_site_id
 _symmetry_equiv_pos_as_xyz
  1  'x, y, z'
loop_
 _atom_site_label
 _atom_site_fract_x
 _atom_site_fract_y
 _atom_site_fract_z
 _atom_site_charge
 Nd 0.69631 0.68673 0.58976   2.246637
 Nd 0.30369 0.31327 0.08976   2.246637
 Nd 0.30369 0.31327 0.41024   2.246645
 Nd 0.69631 0.68673 0.91024   2.246645
 H 0.3228 0.1591 0.5825   0.114428
 H 0.4531 0.0305 0.6269   0.128357
 H 0.9728 0.5173 0.7045   0.109119
 H 0.6772 0.8409 0.0825   0.114428
 H 0.5469 0.9695 0.1269   0.128357
 H 0.0272 0.4827 0.2045   0.109119
 H 0.6772 0.8409 0.4175   0.114428
 H 0.5469 0.9695 0.3731   0.128357
 H 0.0272 0.4827 0.2955   0.10912
 H 0.3228 0.1591 0.9175   0.114428
 H 0.4531 0.0305 0.8731   0.128357
 H 0.9728 0.5173 0.7955   0.10912
 Ru 0.11571 0.3646 0.61407   -0.31615
 Ru 0.88429 0.6354 0.11407   -0.31615
 Ru 0.88429 0.6354 0.38593   -0.31615
 Ru 0.11571 0.3646 0.88593   -0.31615
 Ru 0.50474 0.97072 0.75   -0.249123
 Ru 0.49526 0.02928 0.25   -0.249123
 C 0.2508 0.2351 0.6952   0.083352
 C 0.3224 0.1609 0.6187   0.031539
 C 0.4013 0.0817 0.6458   0.044703
 C 0.3283 0.1573 0.7225   0.076389
 C 0.1704 0.3151 0.7228   0.085332
 C 0.0241 0.4638 0.7222   0.080121
 C 0.5862 0.8805 0.6937   0.374909
 C 0.9208 0.2278 0.609   0.11665
 C 0.986 0.4865 0.5975   0.355957
 C 0.8467 0.6727 0.4594   0.348309
 C 0.3033 0.5021 0.6115   0.281503
 C 0.7492 0.7649 0.1952   0.083352
 C 0.6776 0.8391 0.1187   0.031539
 C 0.5987 0.9183 0.1458   0.044703
 C 0.6717 0.8427 0.2225   0.076389
 C 0.8296 0.6849 0.2228   0.085332
 C 0.9759 0.5362 0.2222   0.080121
 C 0.4138 0.1195 0.1937   0.374909
 C 0.0792 0.7722 0.109   0.11665
 C 0.014 0.5135 0.0975   0.355957
 C 0.1533 0.3273 0.9594   0.348309
 C 0.6967 0.4979 0.1115   0.281503
 C 0.7492 0.7649 0.3048   0.083351
 C 0.6776 0.8391 0.3813   0.031539
 C 0.5987 0.9183 0.3542   0.044703
 C 0.6717 0.8427 0.2775   0.076389
 C 0.8296 0.6849 0.2772   0.085334
 C 0.9759 0.5362 0.2778   0.080123
 C 0.4138 0.1195 0.3063   0.374911
 C 0.0792 0.7722 0.391   0.116649
 C 0.014 0.5135 0.4025   0.355956
 C 0.1533 0.3273 0.5406   0.348309
 C 0.6967 0.4979 0.3885   0.281503
 C 0.2508 0.2351 0.8048   0.083351
 C 0.3224 0.1609 0.8813   0.031539
 C 0.4013 0.0817 0.8542   0.044703
 C 0.3283 0.1573 0.7775   0.076389
 C 0.1704 0.3151 0.7772   0.085334
 C 0.0241 0.4638 0.7778   0.080123
 C 0.5862 0.8805 0.8063   0.374911
 C 0.9208 0.2278 0.891   0.116649
 C 0.986 0.4865 0.9025   0.355956
 C 0.8467 0.6727 0.0406   0.348309
 C 0.3033 0.5021 0.8885   0.281503
 C 0.308 0.8363 0.75   0.091063
 C 0.7002 0.1048 0.75   0.094739
 C 0.692 0.1637 0.25   0.091063
 C 0.2998 0.8952 0.25   0.094739
 N 0.2476 0.2382 0.6423   -0.019664
 N 0.4039 0.0778 0.6975   0.001294
 N 0.0952 0.3896 0.695   0.002756
 N 0.6262 0.8286 0.6583   -0.808129
 N 0.8088 0.1528 0.6019   -0.513689
 N 0.908 0.5584 0.5908   -0.760302
 N 0.8241 0.7012 0.5013   -0.77597
 N 0.4114 0.5841 0.6088   -0.755248
 N 0.7524 0.7618 0.1423   -0.019664
 N 0.5961 0.9222 0.1975   0.001294
 N 0.9048 0.6104 0.195   0.002756
 N 0.3738 0.1714 0.1583   -0.808129
 N 0.1912 0.8472 0.1019   -0.513689
 N 0.092 0.4416 0.0908   -0.760302
 N 0.1759 0.2988 0.0013   -0.77597
 N 0.5886 0.4159 0.1088   -0.755248
 N 0.7524 0.7618 0.3577   -0.019664
 N 0.5961 0.9222 0.3025   0.001294
 N 0.9048 0.6104 0.305   0.002755
 N 0.3738 0.1714 0.3417   -0.808129
 N 0.1912 0.8472 0.3981   -0.513689
 N 0.092 0.4416 0.4092   -0.760302
 N 0.1759 0.2988 0.4987   -0.77597
 N 0.5886 0.4159 0.3912   -0.755248
 N 0.2476 0.2382 0.8577   -0.019664
 N 0.4039 0.0778 0.8025   0.001294
 N 0.0952 0.3896 0.805   0.002755
 N 0.6262 0.8286 0.8417   -0.808129
 N 0.8088 0.1528 0.8981   -0.513689
 N 0.908 0.5584 0.9092   -0.760302
 N 0.8241 0.7012 0.9987   -0.77597
 N 0.4114 0.5841 0.8912   -0.755248
 N 0.1988 0.7574 0.75   -0.512341
 N 0.8073 0.1875 0.75   -0.488753
 N 0.8012 0.2426 0.25   -0.512341
 N 0.1927 0.8125 0.25   -0.488753
