{'_ref': 'TBD', '_srcid': 'CAKYAQ_clean', 'submitters': [{'name': 'Dalar Nazarian Jeff Camp and David Sholl', 'email': 'dalar@gatech.edu jcamp6@gatech.edu'}], '_method': 'VASP DFT with PBE;DDEC'}
data_Zn4H36C53(N2O5)4
_symmetry_space_group_name_H-M   'P 1'
_cell_length_a   17.51760038
_cell_length_b   17.51760006
_cell_length_c   17.51760000
_cell_angle_alpha   95.71879984
_cell_angle_beta   116.75500114
_cell_angle_gamma   116.75500057
_symmetry_Int_Tables_number   1
_chemical_formula_structural   Zn4H36C53(N2O5)4
_chemical_formula_sum   'Zn8 H72 C106 N16 O40'
_cell_volume   3966.14702047
_cell_formula_units_Z   2
loop_
 _symmetry_equiv_pos_site_id
 _symmetry_equiv_pos_as_xyz
  1  'x, y, z'
loop_
 _atom_site_label
 _atom_site_fract_x
 _atom_site_fract_y
 _atom_site_fract_z
 _atom_site_charge
 Zn 0.01132 0.45092 0.77238   0.850829
 Zn 0.48868 0.26106 0.4396   0.850829
 Zn 0.67854 0.22762 0.73894   0.850823
 Zn 0.82146 0.5604 0.54908   0.850828
 Zn 0.32146 0.77238 0.26106   0.850823
 Zn 0.17854 0.4396 0.45092   0.850828
 Zn 0.98868 0.54908 0.22762   0.850829
 Zn 0.51132 0.73894 0.5604   0.850829
 H 0.8734 0.5341 0.9311   0.12306
 H 0.0142 0.6839 0.0243   0.109578
 H 0.1495 0.7411 0.999   0.124154
 H 0.1883 0.4446 0.8137   0.085903
 H 0.25 0.3519 0.8443   0.163827
 H 0.9969 0.1766 0.8337   0.169839
 H 0.9457 0.2736 0.8001   0.06796
 H 0.3023 0.2636 0.9101   0.074557
 H 0.2357 0.2098 0.8025   0.076784
 H 0.6266 0.5577 0.6607   0.123064
 H 0.4858 0.5101 0.6697   0.109573
 H 0.3505 0.3495 0.5916   0.124155
 H 0.3117 0.1254 0.2563   0.085903
 H 0.25 0.0943 0.1019   0.16383
 H 0.5031 0.3368 0.1797   0.169836
 H 0.5543 0.3544 0.3279   0.067962
 H 0.1977 0.1078 0.9613   0.074559
 H 0.2643 0.0668 0.9741   0.076782
 H 0.603 0.0689 0.4423   0.123057
 H 0.6596 0.9757 0.4899   0.109572
 H 0.7421 0.000999999999998 0.6505   0.124143
 H 0.6309 0.1863 0.8746   0.085906
 H 0.5076 0.1557 0.9057   0.163828
 H 0.3429 0.1663 0.6632   0.169843
 H 0.4735 0.1999 0.6456   0.06796
 H 0.3535 0.0899 0.8922   0.074556
 H 0.4073 0.1975 0.9332   0.076771
 H 0.897 0.3393 0.4659   0.123058
 H 0.8404 0.3303 0.3161   0.109574
 H 0.7579 0.4084 0.2589   0.124143
 H 0.8691 0.7437 0.5554   0.085905
 H 0.9924 0.8981 0.6481   0.163827
 H 0.1571 0.8203 0.8234   0.169846
 H 0.0265 0.6721 0.7264   0.067958
 H 0.1465 0.0387 0.7364   0.074559
 H 0.0927 0.0259 0.7902   0.076769
 H 0.397 0.9311 0.5577   0.123057
 H 0.3404 0.0243 0.5101   0.109572
 H 0.2579 0.999 0.3495   0.124143
 H 0.3691 0.8137 0.1254   0.085905
 H 0.4924 0.8443 0.0943   0.163828
 H 0.6571 0.8337 0.3368   0.169844
 H 0.5265 0.8001 0.3544   0.06796
 H 0.6465 0.9101 0.1078   0.074555
 H 0.5927 0.8025 0.0668   0.07677
 H 0.103 0.6607 0.5341   0.123058
 H 0.1596 0.6697 0.6839   0.109574
 H 0.2421 0.5916 0.7411   0.124143
 H 0.1309 0.2563 0.4446   0.085904
 H 0.0076 0.1019 0.3519   0.163827
 H 0.8429 0.1797 0.1766   0.169847
 H 0.9735 0.3279 0.2736   0.067958
 H 0.8535 0.9613 0.2636   0.074558
 H 0.9073 0.9741 0.2098   0.076768
 H 0.1266 0.4659 0.0689   0.12306
 H 0.9858 0.3161 0.9757   0.109579
 H 0.8505 0.2589 0.000999999999998   0.124153
 H 0.8117 0.5554 0.1863   0.085902
 H 0.75 0.6481 0.1557   0.163827
 H 0.0031 0.8234 0.1663   0.169839
 H 0.0543 0.7264 0.1999   0.06796
 H 0.6977 0.7364 0.0899   0.074558
 H 0.7643 0.7902 0.1975   0.076784
 H 0.3734 0.4423 0.3393   0.123064
 H 0.5142 0.4899 0.3303   0.109574
 H 0.6495 0.6505 0.4084   0.124154
 H 0.6883 0.8746 0.7437   0.085902
 H 0.75 0.9057 0.8981   0.16383
 H 0.4969 0.6632 0.8203   0.169835
 H 0.4457 0.6456 0.6721   0.067962
 H 0.8023 0.8922 0.0387   0.074561
 H 0.7357 0.9332 0.0259   0.076782
 C 0.8508 0.3983 0.8113   0.605998
 C 0.932 0.5001 0.8693   0.111678
 C 0.9306 0.5569 0.9277   -0.124294
 C 0.012 0.6463 0.9809   -0.012506
 C 0.094 0.6797 0.9669   -0.080638
 C 0.0892 0.6204 0.9062   0.093659
 C 0.169 0.6428 0.886   0.603332
 C 0.1494 0.3898 0.8182   0.235492
 C 0.1871 0.3341 0.8356   -0.344713
 C 0.1285 0.2522 0.8395   0.353001
 C 0.0375 0.2304 0.8289   -0.300016
 C 0.0093 0.2906 0.8111   0.196758
 C 0.2416 0.206 0.8596   0.064679
 C 0.6492 0.4605 0.5475   0.60599
 C 0.568 0.4373 0.5681   0.11168
 C 0.5694 0.4971 0.6263   -0.124299
 C 0.488 0.4689 0.6343   -0.012502
 C 0.406 0.3729 0.5857   -0.080637
 C 0.4108 0.317 0.5312   0.093653
 C 0.331 0.217 0.4738   0.603316
 C 0.3506 0.1688 0.2404   0.235492
 C 0.3129 0.1485 0.147   -0.344722
 C 0.3715 0.211 0.1237   0.353025
 C 0.4625 0.2914 0.1929   -0.300015
 C 0.4907 0.3018 0.2813   0.196751
 C 0.2584 0.118 0.9644   0.064679
 C 0.587 0.1887 0.5395   0.605995
 C 0.6308 0.1307 0.5627   0.111676
 C 0.6292 0.0723 0.5029   -0.124285
 C 0.6654 0.0191 0.5311   -0.012507
 C 0.7128 0.0331 0.6271   -0.08064
 C 0.7142 0.0938 0.683   0.093655
 C 0.7568 0.114 0.783   0.603316
 C 0.5716 0.1818 0.8312   0.235487
 C 0.4985 0.1644 0.8515   -0.344722
 C 0.4127 0.1605 0.789   0.353018
 C 0.4015 0.1711 0.7086   -0.300013
 C 0.4795 0.1889 0.6982   0.19676
 C 0.3464 0.1404 0.882   0.064684
 C 0.913 0.4525 0.6017   0.605995
 C 0.8692 0.4319 0.4999   0.111677
 C 0.8708 0.3737 0.4431   -0.124281
 C 0.8346 0.3657 0.3537   -0.012513
 C 0.7872 0.4143 0.3203   -0.080637
 C 0.7858 0.4688 0.3796   0.093664
 C 0.7432 0.5262 0.3572   0.603333
 C 0.9284 0.7596 0.6102   0.235491
 C 0.0015 0.853 0.6659   -0.344726
 C 0.0873 0.8763 0.7478   0.353021
 C 0.0985 0.8071 0.7696   -0.300016
 C 0.0205 0.7187 0.7094   0.196761
 C 0.1536 0.0356 0.794   0.064686
 C 0.25 0.125 0.875   -0.047686
 C 0.413 0.8113 0.4605   0.605995
 C 0.3692 0.8693 0.4373   0.111676
 C 0.3708 0.9277 0.4971   -0.124285
 C 0.3346 0.9809 0.4689   -0.012506
 C 0.2872 0.9669 0.3729   -0.08064
 C 0.2858 0.9062 0.317   0.093655
 C 0.2432 0.886 0.217   0.603316
 C 0.4284 0.8182 0.1688   0.235487
 C 0.5015 0.8356 0.1485   -0.344723
 C 0.5873 0.8395 0.211   0.353018
 C 0.5985 0.8289 0.2914   -0.300012
 C 0.5205 0.8111 0.3018   0.19676
 C 0.6536 0.8596 0.118   0.064684
 C 0.087 0.5475 0.3983   0.605995
 C 0.1308 0.5681 0.5001   0.111677
 C 0.1292 0.6263 0.5569   -0.124282
 C 0.1654 0.6343 0.6463   -0.012512
 C 0.2128 0.5857 0.6797   -0.080637
 C 0.2142 0.5312 0.6204   0.093663
 C 0.2568 0.4738 0.6428   0.603332
 C 0.0716 0.2404 0.3898   0.235491
 C 0.9985 0.147 0.3341   -0.344727
 C 0.9127 0.1237 0.2522   0.353022
 C 0.9015 0.1929 0.2304   -0.300015
 C 0.9795 0.2813 0.2906   0.196761
 C 0.8464 0.9644 0.206   0.064686
 C 0.1492 0.6017 0.1887   0.605997
 C 0.068 0.4999 0.1307   0.111678
 C 0.0694 0.4431 0.0723   -0.124294
 C 0.988 0.3537 0.0191   -0.012509
 C 0.906 0.3203 0.0331   -0.080637
 C 0.9108 0.3796 0.0938   0.093658
 C 0.831 0.3572 0.114   0.603331
 C 0.8506 0.6102 0.1818   0.235491
 C 0.8129 0.6659 0.1644   -0.344714
 C 0.8715 0.7478 0.1605   0.353
 C 0.9625 0.7696 0.1711   -0.300017
 C 0.9907 0.7094 0.1889   0.196758
 C 0.7584 0.794 0.1404   0.064679
 C 0.3508 0.5395 0.4525   0.60599
 C 0.432 0.5627 0.4319   0.11168
 C 0.4306 0.5029 0.3737   -0.124299
 C 0.512 0.5311 0.3657   -0.012505
 C 0.594 0.6271 0.4143   -0.080636
 C 0.5892 0.683 0.4688   0.093653
 C 0.669 0.783 0.5262   0.603315
 C 0.6494 0.8312 0.7596   0.235491
 C 0.6871 0.8515 0.853   -0.344723
 C 0.6285 0.789 0.8763   0.353024
 C 0.5375 0.7086 0.8071   -0.300015
 C 0.5093 0.6982 0.7187   0.19675
 C 0.7416 0.882 0.0356   0.064679
 C 0.75 0.875 0.125   -0.047686
 N 0.0638 0.3707 0.8079   -0.351018
 N 0.0087 0.5322 0.8601   -0.309626
 N 0.4362 0.2441 0.3069   -0.351013
 N 0.4913 0.3514 0.5235   -0.309619
 N 0.5628 0.1921 0.7559   -0.351004
 N 0.6721 0.1399 0.6486   -0.309621
 N 0.9372 0.6931 0.6293   -0.351013
 N 0.8279 0.4765 0.4678   -0.309632
 N 0.4372 0.8079 0.2441   -0.351004
 N 0.3279 0.8601 0.3514   -0.309621
 N 0.0628 0.3069 0.3707   -0.351013
 N 0.1721 0.5235 0.5322   -0.309632
 N 0.9362 0.6293 0.1921   -0.351018
 N 0.9913 0.4678 0.1399   -0.309626
 N 0.5638 0.7559 0.6931   -0.351013
 N 0.5087 0.6486 0.4765   -0.309619
 O 0.8644 0.35837 0.76177   -0.553212
 O 0.7738 0.36117 0.81677   -0.55841
 O 0.1516 0.5785 0.8279   -0.592235
 O 0.2448 0.7258 0.9246   -0.614538
 O 0.1533 0.19036 0.85506   -0.257965
 O 0.6356 0.39737 0.49397   -0.553208
 O 0.7262 0.54297 0.58737   -0.558404
 O 0.3484 0.1763 0.4269   -0.592235
 O 0.2552 0.1798 0.481   -0.614518
 O 0.3467 0.20176 0.03706   -0.257982
 O 0.5966 0.23823 0.60263   -0.553221
 O 0.5444 0.18323 0.45703   -0.5584
 O 0.7506 0.1721 0.8237   -0.592234
 O 0.8012 0.0754 0.8202   -0.614499
 O 0.3353 0.14494 0.79824   -0.257982
 O 0.9034 0.50603 0.64163   -0.553219
 O 0.9556 0.41263 0.63883   -0.558395
 O 0.7494 0.5731 0.4215   -0.592231
 O 0.6988 0.519 0.2742   -0.614516
 O 0.1647 0.96294 0.80964   -0.257983
 O 0.4034 0.76177 0.39737   -0.553221
 O 0.4556 0.81677 0.54297   -0.5584
 O 0.2494 0.8279 0.1763   -0.592233
 O 0.1988 0.9246 0.1798   -0.614499
 O 0.6647 0.85506 0.20176   -0.257982
 O 0.0966 0.49397 0.35837   -0.553219
 O 0.0444 0.58737 0.36117   -0.558395
 O 0.2506 0.4269 0.5785   -0.592231
 O 0.3012 0.481 0.7258   -0.614516
 O 0.8353 0.03706 0.19036   -0.257984
 O 0.1356 0.64163 0.23823   -0.553211
 O 0.2262 0.63883 0.18323   -0.55841
 O 0.8484 0.4215 0.1721   -0.592235
 O 0.7552 0.2742 0.0754   -0.614538
 O 0.8467 0.80964 0.14494   -0.257965
 O 0.3644 0.60263 0.50603   -0.553208
 O 0.2738 0.45703 0.41263   -0.558404
 O 0.6516 0.8237 0.5731   -0.592235
 O 0.7448 0.8202 0.519   -0.614518
 O 0.6533 0.79824 0.96294   -0.257982
