{'_ref': 'TBD', '_srcid': 'CAKYAQ_clean', 'submitters': [{'name': 'Dalar Nazarian Jeff Camp and David Sholl', 'email': 'dalar@gatech.edu jcamp6@gatech.edu'}], '_method': 'VASP DFT with PBE;DDEC'}
data_ZnH9C11N7O2
_symmetry_space_group_name_H-M   'P 1'
_cell_length_a   9.16630000
_cell_length_b   10.34960000
_cell_length_c   18.22660000
_cell_angle_alpha   90.00000000
_cell_angle_beta   90.00000000
_cell_angle_gamma   90.00000000
_symmetry_Int_Tables_number   1
_chemical_formula_structural   ZnH9C11N7O2
_chemical_formula_sum   'Zn4 H36 C44 N28 O8'
_cell_volume   1729.11267686
_cell_formula_units_Z   4
loop_
 _symmetry_equiv_pos_site_id
 _symmetry_equiv_pos_as_xyz
  1  'x, y, z'
loop_
 _atom_site_label
 _atom_site_fract_x
 _atom_site_fract_y
 _atom_site_fract_z
 _atom_site_charge
 Zn 0.87822 0.52837 0.09975   0.835462
 Zn 0.37822 0.47163 0.90025   0.835462
 Zn 0.87822 0.97163 0.59975   0.835462
 Zn 0.37822 0.02837 0.40025   0.835462
 H 0.462 0.1395 0.116   0.030472
 H 0.962 0.8605 0.884   0.030472
 H 0.462 0.3605 0.616   0.030472
 H 0.962 0.6395 0.384   0.030472
 H 0.0815 0.5506 0.9735   0.060507
 H 0.5815 0.4494 0.0265   0.060507
 H 0.0815 0.9494 0.4735   0.060507
 H 0.5815 0.0506 0.5265   0.060507
 H 0.9349 0.9638 0.2184   0.136501
 H 0.4349 0.0362 0.7816   0.136501
 H 0.9349 0.5362 0.7184   0.136501
 H 0.4349 0.4638 0.2816   0.136501
 H 0.2225 0.6947 0.2809   0.126305
 H 0.7225 0.3053 0.7191   0.126305
 H 0.2225 0.8053 0.7809   0.126305
 H 0.7225 0.1947 0.2191   0.126305
 H 0.104 0.5507 0.2067   0.061629
 H 0.604 0.4493 0.7933   0.061629
 H 0.104 0.9493 0.7067   0.061629
 H 0.604 0.0507 0.2933   0.061629
 H 0.0603 0.205 0.2364   0.346225
 H 0.5603 0.795 0.7636   0.346225
 H 0.0603 0.295 0.7364   0.346225
 H 0.5603 0.705 0.2636   0.346225
 H 0.9772 0.3069 0.1966   0.323858
 H 0.4772 0.6931 0.8034   0.323858
 H 0.9772 0.1931 0.6966   0.323858
 H 0.4772 0.8069 0.3034   0.323858
 H 0.748 0.8928 0.1356   0.361555
 H 0.248 0.1072 0.8644   0.361555
 H 0.748 0.6072 0.6356   0.361555
 H 0.248 0.3928 0.3644   0.361555
 H 0.7461 0.7588 0.1058   0.344462
 H 0.2461 0.2412 0.8942   0.344462
 H 0.7461 0.7412 0.6058   0.344462
 H 0.2461 0.2588 0.3942   0.344462
 C 0.2758 0.345 0.0419   0.428463
 C 0.7758 0.655 0.9581   0.428463
 C 0.2758 0.155 0.5419   0.428463
 C 0.7758 0.845 0.4581   0.428463
 C 0.1601 0.3515 0.0892   -0.115996
 C 0.6601 0.6485 0.9108   -0.115996
 C 0.1601 0.1485 0.5892   -0.115996
 C 0.6601 0.8515 0.4108   -0.115996
 C 0.1593 0.2671 0.1515   0.483083
 C 0.6593 0.7329 0.8485   0.483083
 C 0.1593 0.2329 0.6515   0.483083
 C 0.6593 0.7671 0.3485   0.483083
 C 0.3841 0.1956 0.1086   0.425264
 C 0.8841 0.8044 0.8914   0.425264
 C 0.3841 0.3044 0.6086   0.425264
 C 0.8841 0.6956 0.3914   0.425264
 C 0.1231 0.4861 0.0023   0.320023
 C 0.6231 0.5139 0.9977   0.320023
 C 0.1231 0.0139 0.5023   0.320023
 C 0.6231 0.9861 0.4977   0.320023
 C 0.9035 0.7892 0.1712   0.523175
 C 0.4035 0.2108 0.8288   0.523175
 C 0.9035 0.7108 0.6712   0.523175
 C 0.4035 0.2892 0.3288   0.523175
 C 0.9711 0.8799 0.2162   -0.271102
 C 0.4711 0.1201 0.7838   -0.271102
 C 0.9711 0.6201 0.7162   -0.271102
 C 0.4711 0.3799 0.2838   -0.271102
 C 0.0904 0.8466 0.2574   0.033802
 C 0.5904 0.1534 0.7426   0.033802
 C 0.0904 0.6534 0.7574   0.033802
 C 0.5904 0.3466 0.2426   0.033802
 C 0.142 0.7206 0.2536   -0.223748
 C 0.642 0.2794 0.7464   -0.223748
 C 0.142 0.7794 0.7536   -0.223748
 C 0.642 0.2206 0.2464   -0.223748
 C 0.0709 0.6355 0.2085   0.191812
 C 0.5709 0.3645 0.7915   0.191812
 C 0.0709 0.8645 0.7085   0.191812
 C 0.5709 0.1355 0.2915   0.191812
 C 0.1616 0.9423 0.3073   0.638602
 C 0.6616 0.0577 0.6927   0.638602
 C 0.1616 0.5577 0.8073   0.638602
 C 0.6616 0.4423 0.1927   0.638602
 N 0.2531 0.4295 0.9857   -0.525761
 N 0.7531 0.5705 0.0143   -0.525761
 N 0.2531 0.0705 0.4857   -0.525761
 N 0.7531 0.9295 0.5143   -0.525761
 N 0.0608 0.4415 0.0629   -0.406061
 N 0.5608 0.5585 0.9371   -0.406061
 N 0.0608 0.0585 0.5629   -0.406061
 N 0.5608 0.9415 0.4371   -0.406061
 N 0.3943 0.2688 0.0502   -0.5733
 N 0.8943 0.7312 0.9498   -0.5733
 N 0.3943 0.2312 0.5502   -0.5733
 N 0.8943 0.7688 0.4498   -0.5733
 N 0.2793 0.1895 0.1588   -0.579307
 N 0.7793 0.8105 0.8412   -0.579307
 N 0.2793 0.3105 0.6588   -0.579307
 N 0.7793 0.6895 0.3412   -0.579307
 N 0.0532 0.2587 0.2006   -0.649702
 N 0.5532 0.7413 0.7994   -0.649702
 N 0.0532 0.2413 0.7006   -0.649702
 N 0.5532 0.7587 0.2994   -0.649702
 N 0.9563 0.6677 0.1668   -0.454462
 N 0.4563 0.3323 0.8332   -0.454462
 N 0.9563 0.8323 0.6668   -0.454462
 N 0.4563 0.1677 0.3332   -0.454462
 N 0.7856 0.8168 0.1332   -0.684233
 N 0.2856 0.1832 0.8668   -0.684233
 N 0.7856 0.6832 0.6332   -0.684233
 N 0.2856 0.3168 0.3668   -0.684233
 O 0.11 0.0498 0.3186   -0.574506
 O 0.61 0.9502 0.6814   -0.574506
 O 0.11 0.4502 0.8186   -0.574506
 O 0.61 0.5498 0.1814   -0.574506
 O 0.2834 0.9027 0.33672   -0.613022
 O 0.7834 0.0973 0.66328   -0.613022
 O 0.2834 0.5973 0.83672   -0.613022
 O 0.7834 0.4027 0.16328   -0.613022
