{'_ref': 'TBD', '_srcid': 'CAKYAQ_clean', 'submitters': [{'name': 'Dalar Nazarian Jeff Camp and David Sholl', 'email': 'dalar@gatech.edu jcamp6@gatech.edu'}], '_method': 'VASP DFT with PBE;DDEC'}
data_CdH14C20S2(NO)4
_symmetry_space_group_name_H-M   'P 1'
_cell_length_a   9.20670004
_cell_length_b   16.82500000
_cell_length_c   19.01700000
_cell_angle_alpha   90.00000000
_cell_angle_beta   90.00000000
_cell_angle_gamma   100.56000197
_symmetry_Int_Tables_number   1
_chemical_formula_structural   CdH14C20S2(NO)4
_chemical_formula_sum   'Cd4 H56 C80 S8 N16 O16'
_cell_volume   2895.8939662
_cell_formula_units_Z   4
loop_
 _symmetry_equiv_pos_site_id
 _symmetry_equiv_pos_as_xyz
  1  'x, y, z'
loop_
 _atom_site_label
 _atom_site_fract_x
 _atom_site_fract_y
 _atom_site_fract_z
 _atom_site_charge
 Cd 0.18226 0.017154 0.44027   0.976665
 Cd 0.81774 0.482846 0.94027   0.976665
 Cd 0.81774 0.982846 0.55973   0.976665
 Cd 0.18226 0.517154 0.05973   0.976665
 H 0.1744 0.3344 0.1159   0.08089
 H 0.8256 0.1656 0.6159   0.08089
 H 0.8256 0.6656 0.8841   0.08089
 H 0.1744 0.8344 0.3841   0.08089
 H 0.083 0.2468 0.2045   0.119937
 H 0.917 0.2532 0.7045   0.119937
 H 0.917 0.7532 0.7955   0.119937
 H 0.083 0.7468 0.2955   0.119937
 H 0.8285 0.4031 0.2655   0.131275
 H 0.1715 0.0969 0.7655   0.131275
 H 0.1715 0.5969 0.7345   0.131275
 H 0.8285 0.9031 0.2345   0.131275
 H 0.9235 0.4848 0.1739   0.0633
 H 0.0765 0.0152 0.6739   0.0633
 H 0.0765 0.5152 0.8261   0.0633
 H 0.9235 0.9848 0.3261   0.0633
 H 0.6452 0.2415 0.4894   0.133922
 H 0.3548 0.2585 0.9894   0.133922
 H 0.3548 0.7585 0.5106   0.133922
 H 0.6452 0.7415 0.0106   0.133922
 H 0.5505 0.1712 0.4462   0.132754
 H 0.4495 0.3288 0.9462   0.132754
 H 0.4495 0.8288 0.5538   0.132754
 H 0.5505 0.6712 0.0538   0.132754
 H 0.5547 0.2614 0.424   0.137703
 H 0.4453 0.2386 0.924   0.137703
 H 0.4453 0.7386 0.576   0.137703
 H 0.5547 0.7614 0.076   0.137703
 H 0.5744 0.4456 0.0667   0.090289
 H 0.4256 0.0544 0.5667   0.090289
 H 0.4256 0.5544 0.9333   0.090289
 H 0.5744 0.9456 0.4333   0.090289
 H 0.4891 0.352 0.1523   0.128553
 H 0.5109 0.148 0.6523   0.128553
 H 0.5109 0.648 0.8477   0.128553
 H 0.4891 0.852 0.3477   0.128553
 H 0.7615 0.2113 0.0759   0.135855
 H 0.2385 0.2887 0.5759   0.135855
 H 0.2385 0.7887 0.9241   0.135855
 H 0.7615 0.7113 0.4241   0.135855
 H 0.8446 0.3106 0.9949   0.079311
 H 0.1554 0.1894 0.4949   0.079311
 H 0.1554 0.6894 0.0051   0.079311
 H 0.8446 0.8106 0.5051   0.079311
 H 0.5983 0.9816 0.2326   0.14334
 H 0.4017 0.5184 0.7326   0.14334
 H 0.4017 0.0184 0.7674   0.14334
 H 0.5983 0.4816 0.2674   0.14334
 H 0.7492 0.0372 0.2514   0.123494
 H 0.2508 0.4628 0.7514   0.123494
 H 0.2508 0.9628 0.7486   0.123494
 H 0.7492 0.5372 0.2486   0.123494
 H 0.6291 0.013 0.3097   0.12746
 H 0.3709 0.487 0.8097   0.12746
 H 0.3709 0.987 0.6903   0.12746
 H 0.6291 0.513 0.1903   0.12746
 C 0.1052 0.3488 0.1467   0.16777
 C 0.8948 0.1512 0.6467   0.16777
 C 0.8948 0.6512 0.8533   0.16777
 C 0.1052 0.8488 0.3533   0.16777
 C 0.0507 0.2958 0.1999   -0.202903
 C 0.9493 0.2042 0.6999   -0.202903
 C 0.9493 0.7042 0.8001   -0.202903
 C 0.0507 0.7958 0.3001   -0.202903
 C 0.9478 0.316 0.24655   0.099986
 C 0.0522 0.184 0.74655   0.099986
 C 0.0522 0.684 0.75345   0.099986
 C 0.9478 0.816 0.25345   0.099986
 C 0.8995 0.3879 0.2361   -0.176669
 C 0.1005 0.1121 0.7361   -0.176669
 C 0.1005 0.6121 0.7639   -0.176669
 C 0.8995 0.8879 0.2639   -0.176669
 C 0.9586 0.437 0.181   0.174329
 C 0.0414 0.063 0.681   0.174329
 C 0.0414 0.563 0.819   0.174329
 C 0.9586 0.937 0.319   0.174329
 C 0.8886 0.264 0.30602   0.140836
 C 0.1114 0.236 0.80602   0.140836
 C 0.1114 0.736 0.69398   0.140836
 C 0.8886 0.764 0.19398   0.140836
 C 0.8372 0.1664 0.40036   -0.337264
 C 0.1628 0.3336 0.90036   -0.337264
 C 0.1628 0.8336 0.59964   -0.337264
 C 0.8372 0.6664 0.09964   -0.337264
 C 0.7424 0.2205 0.39648   0.36402
 C 0.2576 0.2795 0.89648   0.36402
 C 0.2576 0.7795 0.60352   0.36402
 C 0.7424 0.7205 0.10352   0.36402
 C 0.843 0.0998 0.45189   0.701585
 C 0.157 0.4002 0.95189   0.701585
 C 0.157 0.9002 0.54811   0.701585
 C 0.843 0.5998 0.04811   0.701585
 C 0.6113 0.224 0.4433   -0.40611
 C 0.3887 0.276 0.9433   -0.40611
 C 0.3887 0.776 0.5567   -0.40611
 C 0.6113 0.724 0.0567   -0.40611
 C 0.6135 0.3985 0.06949   0.186779
 C 0.3865 0.1015 0.56949   0.186779
 C 0.3865 0.6015 0.93051   0.186779
 C 0.6135 0.8985 0.43051   0.186779
 C 0.5614 0.3423 0.12101   -0.193204
 C 0.4386 0.1577 0.62101   -0.193204
 C 0.4386 0.6577 0.87899   -0.193204
 C 0.5614 0.8423 0.37899   -0.193204
 C 0.618 0.2711 0.12576   0.079264
 C 0.382 0.2289 0.62576   0.079264
 C 0.382 0.7289 0.87424   0.079264
 C 0.618 0.7711 0.37424   0.079264
 C 0.7239 0.259 0.076   -0.174424
 C 0.2761 0.241 0.576   -0.174424
 C 0.2761 0.741 0.924   -0.174424
 C 0.7239 0.759 0.424   -0.174424
 C 0.7721 0.3185 0.0269   0.169436
 C 0.2279 0.1815 0.5269   0.169436
 C 0.2279 0.6815 0.9731   0.169436
 C 0.7721 0.8185 0.4731   0.169436
 C 0.572 0.209 0.18003   0.150307
 C 0.428 0.291 0.68003   0.150307
 C 0.428 0.791 0.81997   0.150307
 C 0.572 0.709 0.31997   0.150307
 C 0.4609 0.1231 0.27531   -0.274728
 C 0.5391 0.3769 0.77531   -0.274728
 C 0.5391 0.8769 0.72469   -0.274728
 C 0.4609 0.6231 0.22469   -0.274728
 C 0.5802 0.0999 0.2438   0.340286
 C 0.4198 0.4001 0.7438   0.340286
 C 0.4198 0.9001 0.7562   0.340286
 C 0.5802 0.5999 0.2562   0.340286
 C 0.3653 0.0846 0.3342   0.676901
 C 0.6347 0.4154 0.8342   0.676901
 C 0.6347 0.9154 0.6658   0.676901
 C 0.3653 0.5846 0.1658   0.676901
 C 0.6451 0.0262 0.2609   -0.397509
 C 0.3549 0.4738 0.7609   -0.397509
 C 0.3549 0.9738 0.7391   -0.397509
 C 0.6451 0.5262 0.2391   -0.397509
 S 0.96875 0.18486 0.33444   0.177072
 S 0.03125 0.31514 0.83444   0.177072
 S 0.03125 0.81514 0.66556   0.177072
 S 0.96875 0.68486 0.16556   0.177072
 S 0.4251 0.20953 0.23636   0.112968
 S 0.5749 0.29047 0.73636   0.112968
 S 0.5749 0.79047 0.76364   0.112968
 S 0.4251 0.70953 0.26364   0.112968
 N 0.0625 0.42045 0.13751   -0.351381
 N 0.9375 0.07955 0.63751   -0.351381
 N 0.9375 0.57955 0.86249   -0.351381
 N 0.0625 0.92045 0.36249   -0.351381
 N 0.7725 0.27558 0.34286   -0.426086
 N 0.2275 0.22442 0.84286   -0.426086
 N 0.2275 0.72442 0.65714   -0.426086
 N 0.7725 0.77558 0.15714   -0.426086
 N 0.7183 0.38731 0.02351   -0.362246
 N 0.2817 0.11269 0.52351   -0.362246
 N 0.2817 0.61269 0.97649   -0.362246
 N 0.7183 0.88731 0.47649   -0.362246
 N 0.6429 0.14847 0.18966   -0.419202
 N 0.3571 0.35153 0.68966   -0.419202
 N 0.3571 0.85153 0.81034   -0.419202
 N 0.6429 0.64847 0.31034   -0.419202
 O 0.9483 0.06179 0.44821   -0.646385
 O 0.0517 0.43821 0.94821   -0.646385
 O 0.0517 0.93821 0.55179   -0.646385
 O 0.9483 0.56179 0.05179   -0.646385
 O 0.7421 0.08532 0.49689   -0.563562
 O 0.2579 0.41468 0.99689   -0.563562
 O 0.2579 0.91468 0.50311   -0.563562
 O 0.7421 0.58532 0.00311   -0.563562
 O 0.2544 0.11539 0.35116   -0.637276
 O 0.7456 0.38461 0.85116   -0.637276
 O 0.7456 0.88461 0.64884   -0.637276
 O 0.2544 0.61539 0.14884   -0.637276
 O 0.397 0.02319 0.36343   -0.577337
 O 0.603 0.47681 0.86343   -0.577337
 O 0.603 0.97681 0.63657   -0.577337
 O 0.397 0.52319 0.13657   -0.577337
