{'_ref': 'TBD', '_srcid': 'CAKYAQ_clean', 'submitters': [{'name': 'Dalar Nazarian Jeff Camp and David Sholl', 'email': 'dalar@gatech.edu jcamp6@gatech.edu'}], '_method': 'VASP DFT with PBE;DDEC'}
data_Zn2H21RhC36(NO2)4
_symmetry_space_group_name_H-M   'P 1'
_cell_length_a   14.08689978
_cell_length_b   15.13330026
_cell_length_c   15.14020000
_cell_angle_alpha   86.51700028
_cell_angle_beta   87.28600036
_cell_angle_gamma   86.89599944
_symmetry_Int_Tables_number   1
_chemical_formula_structural   Zn2H21RhC36(NO2)4
_chemical_formula_sum   'Zn4 H42 Rh2 C72 N8 O16'
_cell_volume   3213.77403988
_cell_formula_units_Z   2
loop_
 _symmetry_equiv_pos_site_id
 _symmetry_equiv_pos_as_xyz
  1  'x, y, z'
loop_
 _atom_site_label
 _atom_site_fract_x
 _atom_site_fract_y
 _atom_site_fract_z
 _atom_site_charge
 Zn 0.904 0.60357 0.83905   0.924732
 Zn 0.69397 0.61283 0.84721   0.926481
 Zn 0.096 0.39643 0.16095   0.924732
 Zn 0.30603 0.38717 0.15279   0.926481
 H 0.2196 0.6056 0.9753   0.127796
 H 0.0708 0.6201 0.7119   0.097776
 H 0.2338 0.6231 0.7103   0.132447
 H 0.0571 0.602 0.9706   0.090105
 H 0.6581 0.6262 0.287   0.120742
 H 0.6545 0.6261 0.1369   0.089981
 H 0.9386 0.5984 0.1209   0.071672
 H 0.6702 0.6456 0.5639   0.090034
 H 0.6664 0.6431 0.4143   0.094695
 H 0.939 0.5781 0.4004   0.101675
 H 0.9436 0.5765 0.5503   0.095069
 H 0.6616 0.3282 0.8512   0.082899
 H 0.6541 0.905 0.8494   0.089676
 H 0.9404 0.3137 0.8272   0.086316
 H 0.9381 0.1657 0.8133   0.094032
 H 0.9301 0.8835 0.7954   0.103115
 H 0.9336 0.0352 0.7907   0.129467
 H 0.5373 0.6776 0.7317   0.09457
 H 0.5293 0.5466 0.9596   0.07059
 H 0.3677 0.5463 0.9599   0.125688
 H 0.3747 0.6775 0.7253   0.134401
 H 0.7804 0.3944 0.0247   0.127796
 H 0.9292 0.3799 0.2881   0.097776
 H 0.7662 0.3769 0.2897   0.132447
 H 0.9429 0.398 0.0294   0.090105
 H 0.3419 0.3738 0.713   0.120743
 H 0.3455 0.3739 0.8631   0.089981
 H 0.0614 0.4016 0.8791   0.071672
 H 0.3298 0.3544 0.4361   0.090033
 H 0.3336 0.3569 0.5857   0.094695
 H 0.061 0.4219 0.5996   0.101674
 H 0.0564 0.4235 0.4497   0.095069
 H 0.3384 0.6718 0.1488   0.082899
 H 0.3459 0.095 0.1506   0.089676
 H 0.0596 0.6863 0.1728   0.086316
 H 0.0619 0.8343 0.1867   0.094032
 H 0.0699 0.1165 0.2046   0.103115
 H 0.0664 0.9648 0.2093   0.129467
 H 0.4627 0.3224 0.2683   0.09457
 H 0.4707 0.4534 0.0404   0.07059
 H 0.6323 0.4537 0.0401   0.125688
 H 0.6253 0.3225 0.2747   0.134401
 Rh 0.6221 0.1218 0.8436   0.035035
 Rh 0.3779 0.8782 0.1564   0.035036
 C 0.2457 0.6127 0.843   0.088362
 C 0.19097 0.6078 0.921   -0.178694
 C 0.801 0.33931 0.838   -0.115792
 C 0.1011 0.6167 0.76532   0.171058
 C 0.7957 0.61161 0.11145   -0.255375
 C 0.8066 0.6089 0.57487   -0.124196
 C 0.19916 0.6183 0.764   -0.198398
 C 0.09314 0.6062 0.9176   0.179851
 C 0.79427 0.6091 0.01316   0.699193
 C 0.80202 0.43704 0.84571   0.675711
 C 0.7147 0.6207 0.25319   -0.220151
 C 0.7887 0.77816 0.8323   0.706139
 C 0.7128 0.6203 0.1637   0.044375
 C 0.8817 0.6042 0.15432   0.218184
 C 0.80786 0.6079 0.67356   0.690555
 C 0.35144 0.6119 0.84399   0.107021
 C 0.8007 0.6128 0.2944   0.256332
 C 0.8028 0.6115 0.3918   0.001844
 C 0.7257 0.6303 0.5314   -0.043301
 C 0.7908 0.8771 0.8266   -0.192138
 C 0.7236 0.6301 0.4416   -0.124936
 C 0.8834 0.5915 0.4336   -0.09578
 C 0.8862 0.5903 0.5236   -0.042441
 C 0.7189 0.2956 0.8433   -0.02876
 C 0.7123 0.9307 0.8389   0.124375
 C 0.8821 0.2875 0.8286   -0.068097
 C 0.7167 0.2063 0.8376   -0.183893
 C 0.7981 0.1573 0.825   0.005065
 C 0.7958 0.0597 0.8205   0.213437
 C 0.881 0.1986 0.8211   -0.095839
 C 0.8745 0.9176 0.8069   0.017041
 C 0.8764 0.0083 0.8041   -0.196875
 C 0.5025 0.65 0.7783   0.157216
 C 0.4982 0.5738 0.9116   0.173672
 C 0.4006 0.5735 0.9119   -0.191397
 C 0.4046 0.6509 0.7743   -0.200221
 C 0.7543 0.3873 0.157   0.088362
 C 0.80903 0.3922 0.079   -0.178694
 C 0.199 0.66069 0.162   -0.115792
 C 0.8989 0.3833 0.23468   0.171058
 C 0.2043 0.38839 0.88855   -0.255374
 C 0.1934 0.3911 0.42513   -0.124196
 C 0.80084 0.3817 0.236   -0.198398
 C 0.90686 0.3938 0.0824   0.179851
 C 0.20573 0.3909 0.98684   0.699194
 C 0.19798 0.56296 0.15429   0.675711
 C 0.2853 0.3793 0.74681   -0.220151
 C 0.2113 0.22184 0.1677   0.706139
 C 0.2872 0.3797 0.8363   0.044375
 C 0.1183 0.3958 0.84568   0.218184
 C 0.19214 0.3921 0.32644   0.690555
 C 0.64856 0.3881 0.15601   0.107021
 C 0.1993 0.3872 0.7056   0.256332
 C 0.1972 0.3885 0.6082   0.001844
 C 0.2743 0.3697 0.4686   -0.043301
 C 0.2092 0.1229 0.1734   -0.192138
 C 0.2764 0.3699 0.5584   -0.124936
 C 0.1166 0.4085 0.5664   -0.09578
 C 0.1138 0.4097 0.4764   -0.042441
 C 0.2811 0.7044 0.1567   -0.02876
 C 0.2877 0.0693 0.1611   0.124375
 C 0.1179 0.7125 0.1714   -0.068097
 C 0.2833 0.7937 0.1624   -0.183893
 C 0.2019 0.8427 0.175   0.005065
 C 0.2042 0.9403 0.1795   0.213437
 C 0.119 0.8014 0.1789   -0.095838
 C 0.1255 0.0824 0.1931   0.017041
 C 0.1236 0.9917 0.1959   -0.196875
 C 0.4975 0.35 0.2217   0.157216
 C 0.5018 0.4262 0.0884   0.173672
 C 0.5994 0.4265 0.0881   -0.191397
 C 0.5954 0.3491 0.2257   -0.200222
 N 0.04798 0.61032 0.84197   -0.309196
 N 0.54933 0.61109 0.84627   -0.290733
 N 0.8839 0.6052 0.24409   -0.418737
 N 0.7141 0.0206 0.8367   -0.184088
 N 0.95202 0.38968 0.15803   -0.309196
 N 0.45067 0.38891 0.15373   -0.290733
 N 0.1161 0.3948 0.75591   -0.418737
 N 0.2859 0.9794 0.1633   -0.184088
 O 0.87314 0.60592 0.97089   -0.595068
 O 0.72983 0.61621 0.71541   -0.604677
 O 0.71503 0.6083 0.97927   -0.597549
 O 0.72285 0.47907 0.8496   -0.61691
 O 0.88791 0.59877 0.70721   -0.589596
 O 0.88119 0.47062 0.84777   -0.572549
 O 0.70905 0.74517 0.84335   -0.602622
 O 0.867 0.73559 0.82582   -0.600417
 O 0.12686 0.39408 0.02911   -0.595068
 O 0.27017 0.38379 0.28459   -0.604677
 O 0.28497 0.3917 0.02073   -0.597549
 O 0.27715 0.52093 0.1504   -0.61691
 O 0.11209 0.40123 0.29279   -0.589596
 O 0.11881 0.52938 0.15223   -0.572549
 O 0.29095 0.25483 0.15665   -0.602622
 O 0.133 0.26441 0.17418   -0.600417
