{'_ref': 'TBD', '_srcid': 'CAKYAQ_clean', 'submitters': [{'name': 'Dalar Nazarian Jeff Camp and David Sholl', 'email': 'dalar@gatech.edu jcamp6@gatech.edu'}], '_method': 'VASP DFT with PBE;DDEC'}
data_ZnH9IrC17N3O4
_symmetry_space_group_name_H-M   'P 1'
_cell_length_a   14.03680001
_cell_length_b   15.11889979
_cell_length_c   15.12420000
_cell_angle_alpha   85.35800079
_cell_angle_beta   85.55500125
_cell_angle_gamma   86.34999866
_symmetry_Int_Tables_number   1
_chemical_formula_structural   ZnH9IrC17N3O4
_chemical_formula_sum   'Zn4 H36 Ir4 C68 N12 O16'
_cell_volume   3184.19832139
_cell_formula_units_Z   4
loop_
 _symmetry_equiv_pos_site_id
 _symmetry_equiv_pos_as_xyz
  1  'x, y, z'
loop_
 _atom_site_label
 _atom_site_fract_x
 _atom_site_fract_y
 _atom_site_fract_z
 _atom_site_charge
 Zn 0.30756 0.38485 0.65272   0.927081
 Zn 0.09796 0.39539 0.66631   0.930121
 Zn 0.69244 0.61515 0.34728   0.927081
 Zn 0.90204 0.60461 0.33369   0.930121
 H 0.7889 0.3903 0.5275   0.124776
 H 0.9504 0.3949 0.533   0.089274
 H 0.9238 0.3793 0.7938   0.098787
 H 0.7631 0.3759 0.7933   0.131844
 H 0.0554 0.4217 0.9555   0.097772
 H 0.3346 0.3604 0.9335   0.099145
 H 0.3434 0.6689 0.65   0.097865
 H 0.0595 0.6829 0.689   0.091881
 H 0.3471 0.0938 0.6521   0.105125
 H 0.0698 0.1117 0.7211   0.105768
 H 0.483 0.4076 0.5288   0.075882
 H 0.6413 0.4163 0.5298   0.122572
 H 0.6205 0.3691 0.7852   0.116986
 H 0.4549 0.3694 0.7844   0.096443
 H 0.3512 0.3771 0.3608   0.077413
 H 0.0645 0.394 0.3871   0.073663
 H 0.3334 0.347 0.0827   0.089335
 H 0.0617 0.4261 0.1075   0.103694
 H 0.2111 0.6097 0.4725   0.124776
 H 0.0496 0.6051 0.467   0.089274
 H 0.0762 0.6207 0.2062   0.098786
 H 0.2369 0.6241 0.2067   0.131844
 H 0.9446 0.5783 0.0445   0.097772
 H 0.6654 0.6396 0.0665   0.099144
 H 0.6566 0.3311 0.35   0.097864
 H 0.9405 0.3171 0.311   0.091881
 H 0.6529 0.9062 0.3479   0.105125
 H 0.9302 0.8883 0.2789   0.105768
 H 0.517 0.5924 0.4712   0.075882
 H 0.3587 0.5837 0.4702   0.122573
 H 0.3795 0.6309 0.2148   0.116986
 H 0.5451 0.6306 0.2156   0.096443
 H 0.6488 0.6229 0.6392   0.077413
 H 0.9355 0.606 0.6129   0.073663
 H 0.6666 0.653 0.9173   0.089335
 H 0.9383 0.5739 0.8925   0.103694
 Ir 0.3829 0.881 0.6628   -0.093324
 Ir 0.0354 0.909 0.671   -0.047239
 Ir 0.6171 0.119 0.3372   -0.093323
 Ir 0.9646 0.091 0.329   -0.047238
 C 0.7573 0.3842 0.6603   0.09466
 C 0.8155 0.3889 0.5828   -0.177188
 C 0.2126 0.389 0.4886   0.708768
 C 0.1924 0.3909 0.8301   0.686542
 C 0.9116 0.3913 0.5866   0.18033
 C 0.1979 0.5641 0.6545   0.666413
 C 0.8958 0.3824 0.739   0.172766
 C 0.1935 0.3922 0.9291   -0.105338
 C 0.2007 0.3888 0.1107   -0.056438
 C 0.1999 0.6603 0.6612   -0.088156
 C 0.8006 0.3802 0.739   -0.187346
 C 0.2093 0.1217 0.6804   -0.231174
 C 0.1141 0.4097 0.9812   -0.054025
 C 0.2773 0.3714 0.9683   -0.065343
 C 0.2848 0.7023 0.6572   -0.083812
 C 0.2108 0.2183 0.6736   0.713541
 C 0.1178 0.7106 0.6785   -0.077828
 C 0.2034 0.8407 0.6762   -0.041037
 C 0.2045 0.9378 0.6802   0.321121
 C 0.2877 0.0682 0.6632   0.118578
 C 0.1265 0.0782 0.7053   0.114095
 C 0.6491 0.3859 0.6587   0.107455
 C 0.5104 0.3991 0.5838   0.167382
 C 0.6052 0.4023 0.5835   -0.170179
 C 0.5928 0.3763 0.7302   -0.178492
 C 0.493 0.376 0.7306   0.161364
 C 0.2112 0.3852 0.3888   -0.319978
 C 0.2919 0.3803 0.3355   0.26346
 C 0.1219 0.3915 0.3508   0.273362
 C 0.2038 0.3879 0.2086   0.459785
 C 0.2765 0.3669 0.0567   -0.060678
 C 0.1173 0.4105 0.0722   -0.078534
 C 0.2845 0.7922 0.6636   -0.076385
 C 0.1183 0.8012 0.681   -0.060138
 C 0.2427 0.6158 0.3397   0.09466
 C 0.1845 0.6111 0.4172   -0.177188
 C 0.7874 0.611 0.5114   0.708769
 C 0.8076 0.6091 0.1699   0.686542
 C 0.0884 0.6087 0.4134   0.180331
 C 0.8021 0.4359 0.3455   0.666413
 C 0.1042 0.6176 0.261   0.172766
 C 0.8065 0.6078 0.0709   -0.105338
 C 0.7993 0.6112 0.8893   -0.056439
 C 0.8001 0.3397 0.3388   -0.088156
 C 0.1994 0.6198 0.261   -0.187346
 C 0.7907 0.8783 0.3196   -0.231174
 C 0.8859 0.5903 0.0188   -0.054025
 C 0.7227 0.6286 0.0317   -0.065343
 C 0.7152 0.2977 0.3428   -0.083812
 C 0.7892 0.7817 0.3264   0.713541
 C 0.8822 0.2894 0.3215   -0.077828
 C 0.7966 0.1593 0.3238   -0.041037
 C 0.7955 0.0622 0.3198   0.321121
 C 0.7123 0.9318 0.3368   0.118578
 C 0.8735 0.9218 0.2947   0.114096
 C 0.3509 0.6141 0.3413   0.107455
 C 0.4896 0.6009 0.4162   0.167382
 C 0.3948 0.5977 0.4165   -0.170179
 C 0.4072 0.6237 0.2698   -0.178492
 C 0.507 0.624 0.2694   0.161364
 C 0.7888 0.6148 0.6112   -0.319978
 C 0.7081 0.6197 0.6645   0.26346
 C 0.8781 0.6085 0.6492   0.273362
 C 0.7962 0.6121 0.7914   0.459785
 C 0.7235 0.6331 0.9433   -0.060678
 C 0.8827 0.5895 0.9278   -0.078534
 C 0.7155 0.2078 0.3364   -0.076385
 C 0.8817 0.1988 0.319   -0.060138
 N 0.9531 0.3889 0.6631   -0.309536
 N 0.454 0.3851 0.6538   -0.279866
 N 0.1252 0.989 0.7075   -0.154079
 N 0.2904 0.3798 0.2452   -0.494813
 N 0.2845 0.9786 0.6614   -0.122768
 N 0.1206 0.3938 0.2628   -0.455823
 N 0.0469 0.6111 0.3369   -0.309536
 N 0.546 0.6149 0.3462   -0.279866
 N 0.8748 0.011 0.2925   -0.154079
 N 0.7096 0.6202 0.7548   -0.494813
 N 0.7155 0.0214 0.3386   -0.122768
 N 0.8794 0.6062 0.7372   -0.455823
 O 0.27 0.3827 0.7857   -0.600654
 O 0.2917 0.3887 0.5192   -0.586449
 O 0.1336 0.3904 0.5347   -0.610078
 O 0.1116 0.4029 0.7988   -0.592616
 O 0.2791 0.5193 0.6476   -0.625959
 O 0.1312 0.2619 0.6837   -0.60263
 O 0.1186 0.5282 0.6534   -0.578738
 O 0.2912 0.2527 0.6596   -0.598412
 O 0.73 0.6173 0.2143   -0.600654
 O 0.7083 0.6113 0.4808   -0.586449
 O 0.8664 0.6096 0.4653   -0.610078
 O 0.8884 0.5971 0.2012   -0.592616
 O 0.7209 0.4807 0.3524   -0.625959
 O 0.8688 0.7381 0.3163   -0.60263
 O 0.8814 0.4718 0.3466   -0.578738
 O 0.7088 0.7473 0.3404   -0.598412
