{'_ref': 'TBD', '_srcid': 'CAKYAQ_clean', 'submitters': [{'name': 'Dalar Nazarian Jeff Camp and David Sholl', 'email': 'dalar@gatech.edu jcamp6@gatech.edu'}], '_method': 'VASP DFT with PBE;DDEC'}
data_ZnH2(CO2)2
_symmetry_space_group_name_H-M   'P 1'
_cell_length_a   9.82740000
_cell_length_b   11.31079993
_cell_length_c   14.50720000
_cell_angle_alpha   91.51769907
_cell_angle_beta   90.00000000
_cell_angle_gamma   90.00000000
_symmetry_Int_Tables_number   1
_chemical_formula_structural   ZnH2(CO2)2
_chemical_formula_sum   'Zn12 H24 C24 O48'
_cell_volume   1611.99307223
_cell_formula_units_Z   12
loop_
 _symmetry_equiv_pos_site_id
 _symmetry_equiv_pos_as_xyz
  1  'x, y, z'
loop_
 _atom_site_label
 _atom_site_fract_x
 _atom_site_fract_y
 _atom_site_fract_z
 _atom_site_charge
 Zn 0.91929 0.75787 0.1325   1.085114
 Zn 0.10555 0.7414 0.31324   1.064287
 Zn 0.41929 0.74213 0.3675   1.085114
 Zn 0.60555 0.7586 0.18676   1.064287
 Zn 0.08071 0.24213 0.8675   1.085114
 Zn 0.89445 0.2586 0.68676   1.064287
 Zn 0.58071 0.25787 0.6325   1.085114
 Zn 0.39445 0.2414 0.81324   1.064287
 Zn 0.0 0.5 0.0   1.081995
 Zn 0.5 0.0 0.5   1.081995
 Zn 0.0 0.0 0.0   1.094878
 Zn 0.5 0.5 0.5   1.094878
 H 0.7518 0.8628 0.3669   0.001694
 H 0.0359 0.4781 0.2658   0.01585
 H 0.6158 0.5572 0.0438   0.007704
 H 0.1846 0.9861 0.234   0.005697
 H 0.1547 0.6961 0.9276   0.01021
 H 0.7011 0.9906 0.0088   0.01518
 H 0.2518 0.6372 0.1331   0.001694
 H 0.5359 0.0219 0.2342   0.01585
 H 0.1158 0.9428 0.4562   0.007704
 H 0.6846 0.5139 0.266   0.005697
 H 0.6547 0.8039 0.5724   0.01021
 H 0.2011 0.5094 0.4912   0.01518
 H 0.2482 0.1372 0.6331   0.001694
 H 0.9641 0.5219 0.7342   0.01585
 H 0.3842 0.4428 0.9562   0.007704
 H 0.8154 0.0139 0.766   0.005697
 H 0.8453 0.3039 0.0724   0.010209
 H 0.2989 0.0094 0.9912   0.015181
 H 0.7482 0.3628 0.8669   0.001694
 H 0.4641 0.9781 0.7658   0.01585
 H 0.8842 0.0572 0.5438   0.007704
 H 0.3154 0.4861 0.734   0.005697
 H 0.3453 0.1961 0.4276   0.010209
 H 0.7989 0.4906 0.5088   0.015181
 C 0.8239 0.8321 0.3299   0.682573
 C 0.0148 0.5196 0.2116   0.671532
 C 0.7101 0.5732 0.051   0.677385
 C 0.125 0.9569 0.1871   0.675701
 C 0.1019 0.7417 0.9704   0.690655
 C 0.7188 0.9296 0.051   0.682827
 C 0.3239 0.6679 0.1701   0.682573
 C 0.5148 0.9804 0.2884   0.671532
 C 0.2101 0.9268 0.449   0.677385
 C 0.625 0.5431 0.3129   0.675701
 C 0.6019 0.7583 0.5296   0.690656
 C 0.2188 0.5704 0.449   0.682827
 C 0.1761 0.1679 0.6701   0.682573
 C 0.9852 0.4804 0.7884   0.671532
 C 0.2899 0.4268 0.949   0.677385
 C 0.875 0.0431 0.8129   0.675701
 C 0.8981 0.2583 0.0296   0.690655
 C 0.2812 0.0704 0.949   0.682827
 C 0.6761 0.3321 0.8299   0.682573
 C 0.4852 0.0196 0.7116   0.671532
 C 0.7899 0.0732 0.551   0.677385
 C 0.375 0.4569 0.6871   0.675701
 C 0.3981 0.2417 0.4704   0.690655
 C 0.7812 0.4296 0.551   0.682827
 O 0.797 0.8094 0.2456   -0.642429
 O 0.9362 0.8179 0.3689   -0.585921
 O 0.0034 0.6309 0.2196   -0.644121
 O 0.000799999999998 0.4597 0.1392   -0.588632
 O 0.7423 0.6526 0.1102   -0.645221
 O 0.7891 0.5144 0.0016   -0.576417
 O 0.0806 0.8515 0.1958   -0.65258
 O 0.0986 0.0251 0.1241   -0.576958
 O 0.0225 0.6845 0.0234   -0.648306
 O 0.1166 0.8499 0.9695   -0.591095
 O 0.8432 0.8978 0.0598   -0.642586
 O 0.6194 0.8886 0.0918   -0.58058
 O 0.297 0.6906 0.2544   -0.642429
 O 0.4362 0.6821 0.1311   -0.58592
 O 0.5034 0.8691 0.2804   -0.644121
 O 0.5008 0.0403 0.3608   -0.588632
 O 0.2423 0.8474 0.3898   -0.645221
 O 0.2891 0.9856 0.4984   -0.576417
 O 0.5806 0.6485 0.3042   -0.65258
 O 0.5986 0.4749 0.3759   -0.576958
 O 0.5225 0.8155 0.4766   -0.648306
 O 0.6166 0.6501 0.5305   -0.591095
 O 0.3432 0.6022 0.4402   -0.642586
 O 0.1194 0.6114 0.4082   -0.58058
 O 0.203 0.1906 0.7544   -0.642429
 O 0.0638 0.1821 0.6311   -0.585921
 O 0.9966 0.3691 0.7804   -0.644121
 O 0.9992 0.5403 0.8608   -0.588632
 O 0.2577 0.3474 0.8898   -0.645221
 O 0.2109 0.4856 0.9984   -0.576417
 O 0.9194 0.1485 0.8042   -0.65258
 O 0.9014 0.9749 0.8759   -0.576959
 O 0.9775 0.3155 0.9766   -0.648307
 O 0.8834 0.1501 0.0305   -0.591095
 O 0.1568 0.1022 0.9402   -0.642586
 O 0.3806 0.1114 0.9082   -0.58058
 O 0.703 0.3094 0.7456   -0.642429
 O 0.5638 0.3179 0.8689   -0.58592
 O 0.4966 0.1309 0.7196   -0.644121
 O 0.4992 0.9597 0.6392   -0.588632
 O 0.7577 0.1526 0.6102   -0.645221
 O 0.7109 0.0144 0.5016   -0.576417
 O 0.4194 0.3515 0.6958   -0.65258
 O 0.4014 0.5251 0.6241   -0.576959
 O 0.4775 0.1845 0.5234   -0.648307
 O 0.3834 0.3499 0.4695   -0.591095
 O 0.6568 0.3978 0.5598   -0.642586
 O 0.8806 0.3886 0.5918   -0.58058
