{'_ref': 'TBD', '_srcid': 'CAKYAQ_clean', 'submitters': [{'name': 'Dalar Nazarian Jeff Camp and David Sholl', 'email': 'dalar@gatech.edu jcamp6@gatech.edu'}], '_method': 'VASP DFT with PBE;DDEC'}
data_ZnH2(CO2)2
_symmetry_space_group_name_H-M   'P 1'
_cell_length_a   9.77440000
_cell_length_b   11.20650004
_cell_length_c   14.72010000
_cell_angle_alpha   91.05980100
_cell_angle_beta   90.00000000
_cell_angle_gamma   90.00000000
_symmetry_Int_Tables_number   1
_chemical_formula_structural   ZnH2(CO2)2
_chemical_formula_sum   'Zn12 H24 C24 O48'
_cell_volume   1612.11703163
_cell_formula_units_Z   12
loop_
 _symmetry_equiv_pos_site_id
 _symmetry_equiv_pos_as_xyz
  1  'x, y, z'
loop_
 _atom_site_label
 _atom_site_fract_x
 _atom_site_fract_y
 _atom_site_fract_z
 _atom_site_charge
 Zn 0.92099 0.75574 0.13235   1.086687
 Zn 0.10828 0.73768 0.31052   1.064876
 Zn 0.42099 0.74426 0.36765   1.086687
 Zn 0.60828 0.76232 0.18948   1.064876
 Zn 0.07901 0.24426 0.86765   1.086687
 Zn 0.89172 0.26232 0.68948   1.064876
 Zn 0.57901 0.25574 0.63235   1.086687
 Zn 0.39172 0.23768 0.81052   1.064876
 Zn 0.0 0.5 0.0   1.079606
 Zn 0.5 0.0 0.5   1.079606
 Zn 0.0 0.0 0.0   1.087929
 Zn 0.5 0.5 0.5   1.087929
 H 0.7575 0.8665 0.3647   0.000841
 H 0.0389 0.4706 0.2626   0.018285
 H 0.6153 0.5559 0.0478   0.010604
 H 0.1978 0.9798 0.227   0.003398
 H 0.1624 0.6952 0.9311   0.008318
 H 0.701 0.9885 0.0079   0.01419
 H 0.2575 0.6335 0.1353   0.000841
 H 0.5389 0.0294 0.2374   0.018285
 H 0.1153 0.9441 0.4522   0.010604
 H 0.6978 0.5202 0.273   0.003398
 H 0.6624 0.8048 0.5689   0.008318
 H 0.201 0.5115 0.4921   0.01419
 H 0.2425 0.1335 0.6353   0.000841
 H 0.9611 0.5294 0.7374   0.018285
 H 0.3847 0.4441 0.9522   0.010605
 H 0.8022 0.0202 0.773   0.003398
 H 0.8376 0.3048 0.0689   0.008317
 H 0.299 0.0115 0.9921   0.014191
 H 0.7425 0.3665 0.8647   0.000841
 H 0.4611 0.9706 0.7626   0.018285
 H 0.8847 0.0559 0.5478   0.010605
 H 0.3022 0.4798 0.727   0.003398
 H 0.3376 0.1952 0.4311   0.008317
 H 0.799 0.4885 0.5079   0.014191
 C 0.8287 0.8333 0.3283   0.683261
 C 0.018 0.5138 0.2094   0.668243
 C 0.7101 0.5727 0.0545   0.675892
 C 0.1338 0.9527 0.1827   0.677487
 C 0.1061 0.742 0.9705   0.693305
 C 0.7192 0.9301 0.0523   0.681076
 C 0.3287 0.6667 0.1717   0.683261
 C 0.518 0.9862 0.2906   0.668243
 C 0.2101 0.9273 0.4455   0.675892
 C 0.6338 0.5473 0.3173   0.677487
 C 0.6061 0.758 0.5295   0.693305
 C 0.2192 0.5699 0.4477   0.681076
 C 0.1713 0.1667 0.6717   0.683261
 C 0.982 0.4862 0.7906   0.668243
 C 0.2899 0.4273 0.9455   0.675892
 C 0.8662 0.0473 0.8173   0.677487
 C 0.8939 0.258 0.0295   0.693305
 C 0.2808 0.0699 0.9477   0.681076
 C 0.6713 0.3333 0.8283   0.683261
 C 0.482 0.0138 0.7094   0.668243
 C 0.7899 0.0727 0.5545   0.675892
 C 0.3662 0.4527 0.6827   0.677487
 C 0.3939 0.242 0.4705   0.693305
 C 0.7808 0.4301 0.5523   0.681076
 O 0.801 0.81216 0.2452   -0.643877
 O 0.94017 0.8149 0.3667   -0.584201
 O 0.00515 0.62662 0.2183   -0.648461
 O 0.00571 0.45544 0.13754   -0.584927
 O 0.743 0.65239 0.11424   -0.653219
 O 0.78892 0.51565 0.00495   -0.567099
 O 0.08479 0.84842 0.19325   -0.653987
 O 0.10713 0.02202 0.12102   -0.576223
 O 0.02672 0.68498 0.02416   -0.656436
 O 0.11646 0.85063 0.96514   -0.582314
 O 0.84434 0.89723 0.06095   -0.642817
 O 0.61969 0.89336 0.09599   -0.576671
 O 0.301 0.68784 0.2548   -0.643877
 O 0.44017 0.6851 0.1333   -0.584201
 O 0.50515 0.87338 0.2817   -0.648461
 O 0.50571 0.04456 0.36246   -0.584927
 O 0.243 0.84761 0.38576   -0.653219
 O 0.28892 0.98435 0.49505   -0.567099
 O 0.58479 0.65158 0.30675   -0.653987
 O 0.60713 0.47798 0.37898   -0.576223
 O 0.52672 0.81502 0.47584   -0.656436
 O 0.61646 0.64937 0.53486   -0.582314
 O 0.34434 0.60277 0.43905   -0.642817
 O 0.11969 0.60664 0.40401   -0.576671
 O 0.199 0.18784 0.7548   -0.643877
 O 0.05983 0.1851 0.6333   -0.584201
 O 0.99485 0.37338 0.7817   -0.648461
 O 0.99429 0.54456 0.86246   -0.584927
 O 0.257 0.34761 0.88576   -0.653219
 O 0.21108 0.48435 0.99505   -0.567099
 O 0.91521 0.15158 0.80675   -0.653987
 O 0.89287 0.97798 0.87898   -0.576223
 O 0.97328 0.31502 0.97584   -0.656436
 O 0.88354 0.14937 0.03486   -0.582314
 O 0.15566 0.10277 0.93905   -0.642817
 O 0.38031 0.10664 0.90401   -0.576671
 O 0.699 0.31216 0.7452   -0.643877
 O 0.55983 0.3149 0.8667   -0.584201
 O 0.49485 0.12662 0.7183   -0.648461
 O 0.49429 0.95544 0.63754   -0.584927
 O 0.757 0.15239 0.61424   -0.653219
 O 0.71108 0.01565 0.50495   -0.567099
 O 0.41521 0.34842 0.69325   -0.653987
 O 0.39287 0.52202 0.62102   -0.576223
 O 0.47328 0.18498 0.52416   -0.656436
 O 0.38354 0.35063 0.46514   -0.582314
 O 0.65566 0.39723 0.56095   -0.642817
 O 0.88031 0.39336 0.59599   -0.576671
