{'_ref': 'TBD', '_srcid': 'CAKYAQ_clean', 'submitters': [{'name': 'Dalar Nazarian Jeff Camp and David Sholl', 'email': 'dalar@gatech.edu jcamp6@gatech.edu'}], '_method': 'VASP DFT with PBE;DDEC'}
data_ZnH2(CO2)2
_symmetry_space_group_name_H-M   'P 1'
_cell_length_a   9.97810000
_cell_length_b   11.36469977
_cell_length_c   15.05480000
_cell_angle_alpha   90.99620132
_cell_angle_beta   90.00000000
_cell_angle_gamma   90.00000000
_symmetry_Int_Tables_number   1
_chemical_formula_structural   ZnH2(CO2)2
_chemical_formula_sum   'Zn12 H24 C24 O48'
_cell_volume   1706.92783761
_cell_formula_units_Z   12
loop_
 _symmetry_equiv_pos_site_id
 _symmetry_equiv_pos_as_xyz
  1  'x, y, z'
loop_
 _atom_site_label
 _atom_site_fract_x
 _atom_site_fract_y
 _atom_site_fract_z
 _atom_site_charge
 Zn 0.93024 0.75458 0.13241   1.087912
 Zn 0.12463 0.74191 0.30279   1.066064
 Zn 0.43024 0.74542 0.36759   1.087912
 Zn 0.62463 0.75809 0.19721   1.066064
 Zn 0.06976 0.24542 0.86759   1.087912
 Zn 0.87537 0.25809 0.69721   1.066064
 Zn 0.56976 0.25458 0.63241   1.087912
 Zn 0.37537 0.24191 0.80279   1.066064
 Zn 0.0 0.5 0.0   1.084158
 Zn 0.5 0.0 0.5   1.084158
 Zn 0.0 0.0 0.0   1.098965
 Zn 0.5 0.5 0.5   1.098965
 H 0.7786 0.854 0.3664   0.007661
 H 0.0645 0.4782 0.2546   0.014146
 H 0.6301 0.5378 0.0746   0.012528
 H 0.229 0.9637 0.2063   0.003408
 H 0.132 0.6954 0.9185   0.006858
 H 0.7135 0.002 0.0323   0.015529
 H 0.2786 0.646 0.1336   0.007661
 H 0.5645 0.0218 0.2454   0.014146
 H 0.1301 0.9622 0.4254   0.012528
 H 0.729 0.5363 0.2937   0.003408
 H 0.632 0.8046 0.5815   0.006858
 H 0.2135 0.498 0.4677   0.015529
 H 0.2214 0.146 0.6336   0.007661
 H 0.9355 0.5218 0.7454   0.014146
 H 0.3699 0.4622 0.9254   0.012529
 H 0.771 0.0363 0.7937   0.003408
 H 0.868 0.3046 0.0815   0.006858
 H 0.2865 0.998 0.9677   0.015529
 H 0.7214 0.354 0.8664   0.007661
 H 0.4355 0.9782 0.7546   0.014146
 H 0.8699 0.0378 0.5746   0.012529
 H 0.271 0.4637 0.7063   0.003408
 H 0.368 0.1954 0.4185   0.006858
 H 0.7865 0.502 0.5323   0.015529
 C 0.8475 0.8261 0.328   0.67406
 C 0.0392 0.5203 0.2032   0.673071
 C 0.7208 0.5627 0.0713   0.67797
 C 0.1563 0.9416 0.1688   0.677352
 C 0.0853 0.7415 0.9616   0.691048
 C 0.7323 0.9357 0.0678   0.678989
 C 0.3475 0.6739 0.172   0.67406
 C 0.5392 0.9797 0.2968   0.673071
 C 0.2208 0.9373 0.4287   0.67797
 C 0.6563 0.5584 0.3312   0.677352
 C 0.5853 0.7585 0.5384   0.691048
 C 0.2323 0.5643 0.4322   0.678989
 C 0.1525 0.1739 0.672   0.67406
 C 0.9608 0.4797 0.7968   0.673071
 C 0.2792 0.4373 0.9287   0.67797
 C 0.8437 0.0584 0.8312   0.677352
 C 0.9147 0.2585 0.0384   0.691048
 C 0.2677 0.0643 0.9322   0.678989
 C 0.6525 0.3261 0.828   0.67406
 C 0.4608 0.0203 0.7032   0.673071
 C 0.7792 0.0627 0.5713   0.67797
 C 0.3437 0.4416 0.6688   0.677352
 C 0.4147 0.2415 0.4616   0.691048
 C 0.7677 0.4357 0.5678   0.678989
 O 0.81534 0.80607 0.24777   -0.640982
 O 0.96048 0.81277 0.36147   -0.580467
 O 0.02126 0.63096 0.21346   -0.653099
 O 0.0272 0.46264 0.13384   -0.579607
 O 0.75429 0.65066 0.12076   -0.650074
 O 0.79442 0.50695 0.01965   -0.578701
 O 0.09456 0.84774 0.18834   -0.652672
 O 0.132 0.00724 0.10644   -0.580504
 O 0.01943 0.68536 0.02046   -0.650341
 O 0.09415 0.84932 0.95522   -0.590069
 O 0.85441 0.90058 0.06968   -0.63996
 O 0.63628 0.89192 0.10792   -0.581681
 O 0.31534 0.69393 0.25223   -0.640982
 O 0.46048 0.68723 0.13853   -0.580467
 O 0.52126 0.86904 0.28654   -0.653099
 O 0.5272 0.03736 0.36616   -0.579607
 O 0.25429 0.84934 0.37924   -0.650074
 O 0.29442 0.99305 0.48035   -0.578701
 O 0.59456 0.65226 0.31166   -0.652672
 O 0.632 0.49276 0.39356   -0.580504
 O 0.51943 0.81464 0.47954   -0.650341
 O 0.59415 0.65068 0.54478   -0.590069
 O 0.35441 0.59942 0.43032   -0.63996
 O 0.13628 0.60808 0.39208   -0.581681
 O 0.18466 0.19393 0.75223   -0.640982
 O 0.03952 0.18723 0.63853   -0.580467
 O 0.97874 0.36904 0.78654   -0.653099
 O 0.9728 0.53736 0.86616   -0.579607
 O 0.24571 0.34934 0.87924   -0.650074
 O 0.20558 0.49305 0.98035   -0.578701
 O 0.90544 0.15226 0.81166   -0.652672
 O 0.868 0.99276 0.89356   -0.580504
 O 0.98057 0.31464 0.97954   -0.650341
 O 0.90585 0.15068 0.04478   -0.590069
 O 0.14559 0.09942 0.93032   -0.63996
 O 0.36372 0.10808 0.89208   -0.581681
 O 0.68466 0.30607 0.74777   -0.640982
 O 0.53952 0.31277 0.86147   -0.580467
 O 0.47874 0.13096 0.71346   -0.653099
 O 0.4728 0.96264 0.63384   -0.579607
 O 0.74571 0.15066 0.62076   -0.650074
 O 0.70558 0.00695 0.51965   -0.578701
 O 0.40544 0.34774 0.68834   -0.652672
 O 0.368 0.50724 0.60644   -0.580504
 O 0.48057 0.18536 0.52046   -0.650341
 O 0.40585 0.34932 0.45522   -0.590069
 O 0.64559 0.40058 0.56968   -0.63996
 O 0.86372 0.39192 0.60792   -0.581681
