{'_ref': 'TBD', '_srcid': 'CAKYAQ_clean', 'submitters': [{'name': 'Dalar Nazarian Jeff Camp and David Sholl', 'email': 'dalar@gatech.edu jcamp6@gatech.edu'}], '_method': 'VASP DFT with PBE;DDEC'}
data_ZnH2(CO2)2
_symmetry_space_group_name_H-M   'P 1'
_cell_length_a   9.75050000
_cell_length_b   11.21770011
_cell_length_c   14.37360000
_cell_angle_alpha   91.28909906
_cell_angle_beta   90.00000000
_cell_angle_gamma   90.00000000
_symmetry_Int_Tables_number   1
_chemical_formula_structural   ZnH2(CO2)2
_chemical_formula_sum   'Zn12 H24 C24 O48'
_cell_volume   1571.76037814
_cell_formula_units_Z   12
loop_
 _symmetry_equiv_pos_site_id
 _symmetry_equiv_pos_as_xyz
  1  'x, y, z'
loop_
 _atom_site_label
 _atom_site_fract_x
 _atom_site_fract_y
 _atom_site_fract_z
 _atom_site_charge
 Zn 0.91895 0.75672 0.13186   1.08588
 Zn 0.10322 0.7402 0.3148   1.063898
 Zn 0.41895 0.74328 0.36814   1.08588
 Zn 0.60322 0.7598 0.1852   1.063898
 Zn 0.08105 0.24328 0.86814   1.08588
 Zn 0.89678 0.2598 0.6852   1.063898
 Zn 0.58105 0.25672 0.63186   1.08588
 Zn 0.39678 0.2402 0.8148   1.063898
 Zn 0.0 0.5 0.0   1.074923
 Zn 0.5 0.0 0.5   1.074923
 Zn 0.0 0.0 0.0   1.085311
 Zn 0.5 0.5 0.5   1.085311
 H 0.7479 0.8616 0.3686   -0.006555
 H 0.0225 0.4739 0.2687   0.011626
 H 0.6131 0.5614 0.0354   0.012947
 H 0.1744 0.9906 0.241   0.004689
 H 0.1721 0.6967 0.9344   0.009825
 H 0.7002 0.9858 0.9999   0.011998
 H 0.2479 0.6384 0.1314   -0.006555
 H 0.5225 0.0261 0.2313   0.011626
 H 0.1131 0.9386 0.4646   0.012947
 H 0.6744 0.5094 0.259   0.004689
 H 0.6721 0.8033 0.5656   0.009825
 H 0.2002 0.5142 0.5001   0.011998
 H 0.2521 0.1384 0.6314   -0.006555
 H 0.9775 0.5261 0.7313   0.011626
 H 0.3869 0.4386 0.9646   0.012947
 H 0.8256 0.0094 0.759   0.004689
 H 0.8279 0.3033 0.0656   0.009824
 H 0.2998 0.0142 0.000100000000003   0.011998
 H 0.7521 0.3616 0.8686   -0.006555
 H 0.4775 0.9739 0.7687   0.011626
 H 0.8869 0.0614 0.5354   0.012947
 H 0.3256 0.4906 0.741   0.004689
 H 0.3279 0.1967 0.4344   0.009824
 H 0.7998 0.4858 0.4999   0.011998
 C 0.821 0.8313 0.3313   0.688391
 C 0.0055 0.5161 0.2133   0.679052
 C 0.7079 0.5768 0.0447   0.668053
 C 0.1196 0.96 0.1913   0.676702
 C 0.1126 0.7426 0.9733   0.689415
 C 0.7169 0.9268 0.0449   0.683492
 C 0.321 0.6687 0.1687   0.688391
 C 0.5055 0.9839 0.2867   0.679052
 C 0.2079 0.9232 0.4553   0.668053
 C 0.6196 0.54 0.3087   0.676702
 C 0.6126 0.7574 0.5267   0.689415
 C 0.2169 0.5732 0.4551   0.683492
 C 0.179 0.1687 0.6687   0.688391
 C 0.9945 0.4839 0.7867   0.679052
 C 0.2921 0.4232 0.9553   0.668053
 C 0.8804 0.04 0.8087   0.676702
 C 0.8874 0.2574 0.0267   0.689415
 C 0.2831 0.0732 0.9551   0.683492
 C 0.679 0.3313 0.8313   0.688391
 C 0.4945 0.0161 0.7133   0.679052
 C 0.7921 0.0768 0.5447   0.668053
 C 0.3804 0.46 0.6913   0.676702
 C 0.3874 0.2426 0.4733   0.689415
 C 0.7831 0.4268 0.5449   0.683492
 O 0.795 0.81231 0.24491   -0.650987
 O 0.9312 0.8143 0.371   -0.578589
 O 0.000500000000002 0.62856 0.22096   -0.649144
 O 0.9906 0.45579 0.14169   -0.58402
 O 0.7406 0.6528 0.109   -0.651303
 O 0.7899 0.52199 0.99389   -0.563394
 O 0.0795 0.85206 0.19686   -0.655034
 O 0.0939 0.02839 0.12759   -0.573899
 O 0.0287 0.68495 0.02455   -0.653177
 O 0.1232 0.85146 0.96986   -0.579919
 O 0.8413 0.89602 0.05672   -0.639173
 O 0.615 0.88758 0.08618   -0.580889
 O 0.295 0.68769 0.25509   -0.650987
 O 0.4312 0.6857 0.129   -0.578589
 O 0.5005 0.87144 0.27904   -0.649144
 O 0.4906 0.04421 0.35831   -0.58402
 O 0.2406 0.8472 0.391   -0.651303
 O 0.2899 0.97801 0.50611   -0.563394
 O 0.5795 0.64794 0.30314   -0.655034
 O 0.5939 0.47161 0.37241   -0.573899
 O 0.5287 0.81505 0.47545   -0.653177
 O 0.6232 0.64854 0.53014   -0.579919
 O 0.3413 0.60398 0.44328   -0.639173
 O 0.115 0.61242 0.41382   -0.580889
 O 0.205 0.18769 0.75509   -0.650987
 O 0.0688 0.1857 0.629   -0.578589
 O 0.9995 0.37144 0.77904   -0.649144
 O 0.0094 0.54421 0.85831   -0.58402
 O 0.2594 0.3472 0.891   -0.651303
 O 0.2101 0.47801 0.00611   -0.563394
 O 0.9205 0.14794 0.80314   -0.655034
 O 0.9061 0.97161 0.87241   -0.573899
 O 0.9713 0.31505 0.97545   -0.653177
 O 0.8768 0.14854 0.03014   -0.57992
 O 0.1587 0.10398 0.94328   -0.639173
 O 0.385 0.11242 0.91382   -0.580889
 O 0.705 0.31231 0.74491   -0.650987
 O 0.5688 0.3143 0.871   -0.578589
 O 0.4995 0.12856 0.72096   -0.649144
 O 0.5094 0.95579 0.64169   -0.58402
 O 0.7594 0.1528 0.609   -0.651303
 O 0.7101 0.02199 0.49389   -0.563394
 O 0.4205 0.35206 0.69686   -0.655034
 O 0.4061 0.52839 0.62759   -0.573899
 O 0.4713 0.18495 0.52455   -0.653177
 O 0.3768 0.35146 0.46986   -0.57992
 O 0.6587 0.39602 0.55672   -0.639173
 O 0.885 0.38758 0.58618   -0.580889
