{'_ref': 'TBD', '_srcid': 'CAKYAQ_clean', 'submitters': [{'name': 'Dalar Nazarian Jeff Camp and David Sholl', 'email': 'dalar@gatech.edu jcamp6@gatech.edu'}], '_method': 'VASP DFT with PBE;DDEC'}
data_ZnH2(CO2)2
_symmetry_space_group_name_H-M   'P 1'
_cell_length_a   9.84860000
_cell_length_b   11.29559958
_cell_length_c   14.74930000
_cell_angle_alpha   91.30940141
_cell_angle_beta   90.00000000
_cell_angle_gamma   90.00000000
_symmetry_Int_Tables_number   1
_chemical_formula_structural   ZnH2(CO2)2
_chemical_formula_sum   'Zn12 H24 C24 O48'
_cell_volume   1640.3698419
_cell_formula_units_Z   12
loop_
 _symmetry_equiv_pos_site_id
 _symmetry_equiv_pos_as_xyz
  1  'x, y, z'
loop_
 _atom_site_label
 _atom_site_fract_x
 _atom_site_fract_y
 _atom_site_fract_z
 _atom_site_charge
 Zn 0.92332 0.75686 0.13235   1.088149
 Zn 0.1124 0.74124 0.30876   1.06014
 Zn 0.42332 0.74314 0.36765   1.088149
 Zn 0.6124 0.75876 0.19124   1.06014
 Zn 0.07668 0.24314 0.86765   1.088149
 Zn 0.8876 0.25876 0.69124   1.06014
 Zn 0.57668 0.25686 0.63235   1.088149
 Zn 0.3876 0.24124 0.80876   1.06014
 Zn 0.0 0.5 0.0   1.083748
 Zn 0.5 0.0 0.5   1.083748
 Zn 0.0 0.0 0.0   1.087229
 Zn 0.5 0.5 0.5   1.087229
 H 0.7576 0.8454 0.3698   0.003594
 H 0.0557 0.4775 0.2589   0.011586
 H 0.6173 0.5534 0.0516   0.012816
 H 0.1989 0.9813 0.2261   0.004943
 H 0.1542 0.6953 0.9273   0.008562
 H 0.7074 0.0037 0.0251   0.014307
 H 0.2576 0.6546 0.1302   0.003594
 H 0.5557 0.0225 0.2411   0.011586
 H 0.1173 0.9466 0.4484   0.012816
 H 0.6989 0.5187 0.2739   0.004943
 H 0.6542 0.8047 0.5727   0.008562
 H 0.2074 0.4963 0.4749   0.014307
 H 0.2424 0.1546 0.6302   0.003594
 H 0.9443 0.5225 0.7411   0.011586
 H 0.3827 0.4466 0.9484   0.012817
 H 0.8011 0.0187 0.7739   0.004942
 H 0.8458 0.3047 0.0727   0.008561
 H 0.2926 0.9963 0.9749   0.014307
 H 0.7424 0.3454 0.8698   0.003594
 H 0.4443 0.9775 0.7589   0.011586
 H 0.8827 0.0534 0.5516   0.012817
 H 0.3011 0.4813 0.7261   0.004942
 H 0.3458 0.1953 0.4273   0.008561
 H 0.7926 0.5037 0.5251   0.014307
 C 0.8304 0.82037 0.33177   0.676126
 C 0.0285 0.51835 0.20635   0.679369
 C 0.7112 0.57176 0.05606   0.672243
 C 0.1364 0.95338 0.18148   0.678493
 C 0.0993 0.74174 0.96734   0.691526
 C 0.7245 0.93805 0.06255   0.679692
 C 0.3304 0.67963 0.16823   0.676126
 C 0.5285 0.98165 0.29365   0.679369
 C 0.2112 0.92824 0.44394   0.672243
 C 0.6364 0.54662 0.31852   0.678493
 C 0.5993 0.75826 0.53266   0.691526
 C 0.2245 0.56195 0.43745   0.679692
 C 0.1696 0.17963 0.66823   0.676126
 C 0.9715 0.48165 0.79365   0.679369
 C 0.2888 0.42824 0.94394   0.672242
 C 0.8636 0.04662 0.81852   0.678493
 C 0.9007 0.25826 0.03266   0.691526
 C 0.2755 0.06195 0.93745   0.679692
 C 0.6696 0.32037 0.83177   0.676126
 C 0.4715 0.01835 0.70635   0.679369
 C 0.7888 0.07176 0.55606   0.672242
 C 0.3636 0.45338 0.68148   0.678493
 C 0.4007 0.24174 0.46734   0.691526
 C 0.7755 0.43805 0.56255   0.679692
 O 0.80387 0.80437 0.24775   -0.6425
 O 0.94288 0.80628 0.36872   -0.579206
 O 0.01248 0.62906 0.21531   -0.646276
 O 0.01243 0.45779 0.13632   -0.59038
 O 0.74534 0.65521 0.11206   -0.649255
 O 0.78977 0.51304 0.00724   -0.572578
 O 0.08282 0.85242 0.19456   -0.657172
 O 0.11556 0.01833 0.117   -0.574523
 O 0.02452 0.68519 0.02327   -0.655341
 O 0.10695 0.84949 0.96044   -0.581416
 O 0.84735 0.90123 0.06596   -0.640573
 O 0.62565 0.89667 0.10323   -0.577814
 O 0.30387 0.69563 0.25225   -0.6425
 O 0.44288 0.69372 0.13128   -0.579206
 O 0.51248 0.87094 0.28469   -0.646276
 O 0.51243 0.04221 0.36368   -0.59038
 O 0.24534 0.84479 0.38794   -0.649255
 O 0.28977 0.98696 0.49276   -0.572578
 O 0.58282 0.64758 0.30544   -0.657172
 O 0.61556 0.48167 0.383   -0.574523
 O 0.52452 0.81481 0.47673   -0.655341
 O 0.60695 0.65051 0.53956   -0.581416
 O 0.34735 0.59877 0.43404   -0.640573
 O 0.12565 0.60333 0.39677   -0.577813
 O 0.19613 0.19563 0.75225   -0.6425
 O 0.05712 0.19372 0.63128   -0.579206
 O 0.98752 0.37094 0.78469   -0.646276
 O 0.98757 0.54221 0.86368   -0.59038
 O 0.25466 0.34479 0.88794   -0.649254
 O 0.21023 0.48696 0.99276   -0.572578
 O 0.91718 0.14758 0.80544   -0.657172
 O 0.88444 0.98167 0.883   -0.574523
 O 0.97548 0.31481 0.97673   -0.655341
 O 0.89305 0.15051 0.03956   -0.581416
 O 0.15265 0.09877 0.93404   -0.640573
 O 0.37435 0.10333 0.89677   -0.577814
 O 0.69613 0.30437 0.74775   -0.6425
 O 0.55712 0.30628 0.86872   -0.579206
 O 0.48752 0.12906 0.71531   -0.646276
 O 0.48757 0.95779 0.63632   -0.59038
 O 0.75466 0.15521 0.61206   -0.649254
 O 0.71023 0.01304 0.50724   -0.572578
 O 0.41718 0.35242 0.69456   -0.657172
 O 0.38444 0.51833 0.617   -0.574523
 O 0.47548 0.18519 0.52327   -0.655341
 O 0.39305 0.34949 0.46044   -0.581416
 O 0.65265 0.40123 0.56596   -0.640573
 O 0.87435 0.39667 0.60323   -0.577813
