{'_ref': 'TBD', '_srcid': 'CAKYAQ_clean', 'submitters': [{'name': 'Dalar Nazarian Jeff Camp and David Sholl', 'email': 'dalar@gatech.edu jcamp6@gatech.edu'}], '_method': 'VASP DFT with PBE;DDEC'}
data_CuH18C30(NO2)4
_symmetry_space_group_name_H-M   'P 1'
_cell_length_a   14.91789979
_cell_length_b   16.76600005
_cell_length_c   17.80570000
_cell_angle_alpha   118.08659973
_cell_angle_beta   114.76569982
_cell_angle_gamma   89.99999915
_symmetry_Int_Tables_number   1
_chemical_formula_structural   CuH18C30(NO2)4
_chemical_formula_sum   'Cu4 H72 C120 N16 O32'
_cell_volume   3457.82988608
_cell_formula_units_Z   4
loop_
 _symmetry_equiv_pos_site_id
 _symmetry_equiv_pos_as_xyz
  1  'x, y, z'
loop_
 _atom_site_label
 _atom_site_fract_x
 _atom_site_fract_y
 _atom_site_fract_z
 _atom_site_charge
 Cu 0.0 0.0 0.5   0.832063
 Cu 0.5 0.0 0.5   0.831058
 Cu 0.5 0.5 0.5   0.829972
 Cu 0.0 0.5 0.5   0.831865
 H 0.9761 0.1947 0.5842   0.077772
 H 0.063 0.3448 0.6468   0.149394
 H 0.2894 0.2397 0.6026   0.145454
 H 0.1953 0.0892 0.5362   0.087535
 H 0.2765 0.4025 0.6354   0.103588
 H 0.1993 0.4462 0.6756   0.108237
 H 0.3781 0.5498 0.0556   0.123289
 H 0.0519 0.1798 0.7984   0.113422
 H 0.0494 0.2384 0.9448   0.104435
 H 0.6081 0.8895 0.5842   0.078098
 H 0.5838 0.802 0.6468   0.149418
 H 0.3132 0.8629 0.6026   0.145947
 H 0.3409 0.947 0.5362   0.087975
 H 0.3589 0.7329 0.6354   0.10412
 H 0.4763 0.7294 0.6756   0.108429
 H 0.6775 0.0058 0.0556   0.123132
 H 0.7465 0.1186 0.7984   0.113431
 H 0.8954 0.2064 0.9448   0.104542
 H 0.0239 0.8053 0.4158   0.077772
 H 0.937 0.6552 0.3532   0.149394
 H 0.7106 0.7603 0.3974   0.145454
 H 0.8047 0.9108 0.4638   0.087535
 H 0.7235 0.5975 0.3646   0.103588
 H 0.8007 0.5538 0.3244   0.108237
 H 0.6219 0.4502 0.9444   0.123289
 H 0.9481 0.8202 0.2016   0.113422
 H 0.9506 0.7616 0.0552   0.104435
 H 0.3919 0.1105 0.4158   0.078098
 H 0.4162 0.198 0.3532   0.149418
 H 0.6868 0.1371 0.3974   0.145947
 H 0.6591 0.053 0.4638   0.087975
 H 0.6411 0.2671 0.3646   0.10412
 H 0.5237 0.2706 0.3244   0.108429
 H 0.3225 0.9942 0.9444   0.123132
 H 0.2535 0.8814 0.2016   0.113431
 H 0.1046 0.7936 0.0552   0.104542
 H 0.5239 0.6105 0.4158   0.077964
 H 0.437 0.698 0.3532   0.149206
 H 0.2106 0.6371 0.3974   0.145629
 H 0.3047 0.553 0.4638   0.088483
 H 0.2235 0.7671 0.3646   0.103849
 H 0.3007 0.7706 0.3244   0.10809
 H 0.1219 0.4942 0.9444   0.12372
 H 0.4481 0.3814 0.2016   0.113969
 H 0.4506 0.2936 0.0552   0.104279
 H 0.8919 0.3053 0.4158   0.077948
 H 0.9162 0.1552 0.3532   0.149428
 H 0.1868 0.2603 0.3974   0.14587
 H 0.1591 0.4108 0.4638   0.088111
 H 0.1411 0.0975 0.3646   0.103995
 H 0.0237 0.0538 0.3244   0.108279
 H 0.8225 0.9502 0.9444   0.122746
 H 0.7535 0.3202 0.2016   0.113044
 H 0.6046 0.2616 0.0552   0.105107
 H 0.4761 0.3895 0.5842   0.077964
 H 0.563 0.302 0.6468   0.149206
 H 0.7894 0.3629 0.6026   0.145629
 H 0.6953 0.447 0.5362   0.088483
 H 0.7765 0.2329 0.6354   0.103849
 H 0.6993 0.2294 0.6756   0.10809
 H 0.8781 0.5058 0.0556   0.12372
 H 0.5519 0.6186 0.7984   0.113969
 H 0.5494 0.7064 0.9448   0.104279
 H 0.1081 0.6947 0.5842   0.077948
 H 0.0838 0.8448 0.6468   0.149428
 H 0.8132 0.7397 0.6026   0.14587
 H 0.8409 0.5892 0.5362   0.088111
 H 0.8589 0.9025 0.6354   0.103995
 H 0.9763 0.9462 0.6756   0.108279
 H 0.1775 0.0498 0.0556   0.122746
 H 0.2465 0.6798 0.7984   0.113044
 H 0.3954 0.7384 0.9448   0.105107
 C 0.0406 0.2033 0.587   0.172243
 C 0.0925 0.2938 0.6256   -0.203129
 C 0.1861 0.3077 0.6326   0.12161
 C 0.2244 0.2316 0.599   -0.208712
 C 0.1677 0.1412 0.5592   0.172777
 C 0.2455 0.4038 0.6754   -0.043318
 C 0.4243 0.4277 0.7996   0.489265
 C 0.3083 0.4783 0.854   0.489943
 C 0.4048 0.4939 0.9378   -0.097505
 C 0.4266 0.5301 0.0336   0.003238
 C 0.5249 0.5346 0.0936   -0.094565
 C 0.9054 0.0834 0.6188   0.646277
 C 0.9011 0.1153 0.7122   -0.084012
 C 0.9899 0.1676 0.7986   -0.071681
 C 0.9886 0.2021 0.8854   -0.105316
 C 0.5464 0.8837 0.587   0.171423
 C 0.5331 0.8318 0.6256   -0.202535
 C 0.4465 0.8249 0.6326   0.120998
 C 0.3746 0.8674 0.599   -0.209695
 C 0.3915 0.918 0.5592   0.172331
 C 0.4299 0.7716 0.6754   -0.043722
 C 0.3753 0.8719 0.7996   0.489744
 C 0.5457 0.8757 0.854   0.488986
 C 0.533 0.9439 0.9378   -0.096027
 C 0.607 0.0035 0.0336   0.004477
 C 0.5687 0.059 0.0936   -0.096703
 C 0.7134 0.0354 0.6188   0.648341
 C 0.8111 0.0969 0.7122   -0.083757
 C 0.8087 0.131 0.7986   -0.072166
 C 0.8968 0.1833 0.8854   -0.105821
 C 0.9594 0.7967 0.413   0.172243
 C 0.9075 0.7062 0.3744   -0.203129
 C 0.8139 0.6923 0.3674   0.12161
 C 0.7756 0.7684 0.401   -0.208712
 C 0.8323 0.8588 0.4408   0.172777
 C 0.7545 0.5962 0.3246   -0.043318
 C 0.5757 0.5723 0.2004   0.489268
 C 0.6917 0.5217 0.146   0.489942
 C 0.5952 0.5061 0.0622   -0.097496
 C 0.5734 0.4699 0.9664   0.003235
 C 0.4751 0.4654 0.9064   -0.094554
 C 0.0946 0.9166 0.3812   0.646277
 C 0.0989 0.8847 0.2878   -0.084012
 C 0.0101 0.8324 0.2014   -0.071681
 C 0.0114 0.7979 0.1146   -0.105315
 C 0.4536 0.1163 0.413   0.171423
 C 0.4669 0.1682 0.3744   -0.202535
 C 0.5535 0.1751 0.3674   0.120998
 C 0.6254 0.1326 0.401   -0.209695
 C 0.6085 0.082 0.4408   0.172331
 C 0.5701 0.2284 0.3246   -0.043722
 C 0.6247 0.1281 0.2004   0.489743
 C 0.4543 0.1243 0.146   0.488985
 C 0.467 0.0561 0.0622   -0.09602
 C 0.393 0.9965 0.9664   0.004475
 C 0.4313 0.941 0.9064   -0.096699
 C 0.2866 0.9646 0.3812   0.648341
 C 0.1889 0.9031 0.2878   -0.083756
 C 0.1913 0.869 0.2014   -0.072166
 C 0.1032 0.8167 0.1146   -0.105821
 C 0.4594 0.6163 0.413   0.170983
 C 0.4075 0.6682 0.3744   -0.201669
 C 0.3139 0.6751 0.3674   0.119878
 C 0.2756 0.6326 0.401   -0.208918
 C 0.3323 0.582 0.4408   0.171659
 C 0.2545 0.7284 0.3246   -0.042533
 C 0.0757 0.6281 0.2004   0.489021
 C 0.1917 0.6243 0.146   0.488947
 C 0.0952 0.5561 0.0622   -0.096801
 C 0.0734 0.4965 0.9664   0.003499
 C 0.9751 0.441 0.9064   -0.095757
 C 0.5946 0.4646 0.3812   0.646489
 C 0.5989 0.4031 0.2878   -0.082409
 C 0.5101 0.369 0.2014   -0.073812
 C 0.5114 0.3167 0.1146   -0.103794
 C 0.9536 0.2967 0.413   0.172612
 C 0.9669 0.2062 0.3744   -0.202939
 C 0.0535 0.1923 0.3674   0.121454
 C 0.1254 0.2684 0.401   -0.20951
 C 0.1085 0.3588 0.4408   0.1724
 C 0.0701 0.0962 0.3246   -0.042985
 C 0.1247 0.0723 0.2004   0.489663
 C 0.9543 0.0217 0.146   0.489821
 C 0.967 0.0061 0.0622   -0.096099
 C 0.893 0.9699 0.9664   0.004559
 C 0.9313 0.9654 0.9064   -0.09642
 C 0.7866 0.4166 0.3812   0.647159
 C 0.6889 0.3847 0.2878   -0.085119
 C 0.6913 0.3324 0.2014   -0.069794
 C 0.6032 0.2979 0.1146   -0.107973
 C 0.5406 0.3837 0.587   0.170983
 C 0.5925 0.3318 0.6256   -0.201669
 C 0.6861 0.3249 0.6326   0.119878
 C 0.7244 0.3674 0.599   -0.208918
 C 0.6677 0.418 0.5592   0.171659
 C 0.7455 0.2716 0.6754   -0.042533
 C 0.9243 0.3719 0.7996   0.489019
 C 0.8083 0.3757 0.854   0.488946
 C 0.9048 0.4439 0.9378   -0.096797
 C 0.9266 0.5035 0.0336   0.003498
 C 0.0249 0.559 0.0936   -0.095755
 C 0.4054 0.5354 0.6188   0.646489
 C 0.4011 0.5969 0.7122   -0.082409
 C 0.4899 0.631 0.7986   -0.073812
 C 0.4886 0.6833 0.8854   -0.103794
 C 0.0464 0.7033 0.587   0.172612
 C 0.0331 0.7938 0.6256   -0.202939
 C 0.9465 0.8077 0.6326   0.121454
 C 0.8746 0.7316 0.599   -0.20951
 C 0.8915 0.6412 0.5592   0.1724
 C 0.9299 0.9038 0.6754   -0.042985
 C 0.8753 0.9277 0.7996   0.489667
 C 0.0457 0.9783 0.854   0.489819
 C 0.033 0.9939 0.9378   -0.096085
 C 0.107 0.0301 0.0336   0.004554
 C 0.0687 0.0346 0.0936   -0.096404
 C 0.2134 0.5834 0.6188   0.647159
 C 0.3111 0.6153 0.7122   -0.085119
 C 0.3087 0.6676 0.7986   -0.069794
 C 0.3968 0.7021 0.8854   -0.107973
 N 0.0766 0.1275 0.5536   -0.333631
 N 0.32604 0.43854 0.77488   -0.227876
 N 0.477 0.9261 0.5536   -0.333024
 N 0.44884 0.83634 0.77488   -0.227445
 N 0.9234 0.8725 0.4464   -0.333631
 N 0.67396 0.56146 0.22512   -0.227877
 N 0.523 0.0739 0.4464   -0.333024
 N 0.55116 0.16366 0.22512   -0.227445
 N 0.4234 0.5739 0.4464   -0.332308
 N 0.17396 0.66366 0.22512   -0.227665
 N 0.023 0.3725 0.4464   -0.333751
 N 0.05116 0.06146 0.22512   -0.228945
 N 0.5766 0.4261 0.5536   -0.332308
 N 0.82604 0.33634 0.77488   -0.227665
 N 0.977 0.6275 0.5536   -0.333751
 N 0.94884 0.93854 0.77488   -0.228945
 O 0.97817 0.04717 0.61234   -0.59382
 O 0.83958 0.09598 0.55676   -0.588927
 O 0.45833 0.39483 0.74386   -0.431955
 O 0.22826 0.49416 0.85132   -0.439332
 O 0.63417 0.06517 0.61234   -0.59477
 O 0.71718 0.96078 0.55676   -0.590847
 O 0.28553 0.84903 0.74386   -0.432665
 O 0.62306 0.85716 0.85132   -0.438661
 O 0.02183 0.95283 0.38766   -0.59382
 O 0.16042 0.90402 0.44324   -0.588927
 O 0.54167 0.60517 0.25614   -0.431956
 O 0.77174 0.50584 0.14868   -0.439332
 O 0.36583 0.93483 0.38766   -0.59477
 O 0.28282 0.03922 0.44324   -0.590847
 O 0.71447 0.15097 0.25614   -0.432665
 O 0.37694 0.14284 0.14868   -0.438661
 O 0.52183 0.43483 0.38766   -0.593848
 O 0.66042 0.53922 0.44324   -0.589682
 O 0.04167 0.65097 0.25614   -0.431685
 O 0.27174 0.64284 0.14868   -0.43871
 O 0.86583 0.45283 0.38766   -0.593714
 O 0.78282 0.40402 0.44324   -0.59021
 O 0.21447 0.10517 0.25614   -0.432198
 O 0.87694 0.00584 0.14868   -0.439376
 O 0.47817 0.56517 0.61234   -0.593848
 O 0.33958 0.46078 0.55676   -0.589682
 O 0.95833 0.34903 0.74386   -0.431684
 O 0.72826 0.35716 0.85132   -0.43871
 O 0.13417 0.54717 0.61234   -0.593714
 O 0.21718 0.59598 0.55676   -0.59021
 O 0.78553 0.89483 0.74386   -0.432198
 O 0.12306 0.99416 0.85132   -0.439375
