{'_ref': 'TBD', '_srcid': 'CAKYAQ_clean', 'submitters': [{'name': 'Dalar Nazarian Jeff Camp and David Sholl', 'email': 'dalar@gatech.edu jcamp6@gatech.edu'}], '_method': 'VASP DFT with PBE;DDEC'}
data_CuH18C30(NO2)4
_symmetry_space_group_name_H-M   'P 1'
_cell_length_a   14.62319970
_cell_length_b   16.91440038
_cell_length_c   17.89330000
_cell_angle_alpha   118.20600069
_cell_angle_beta   114.11799938
_cell_angle_gamma   90.00010065
_symmetry_Int_Tables_number   1
_chemical_formula_structural   CuH18C30(NO2)4
_chemical_formula_sum   'Cu4 H72 C120 N16 O32'
_cell_volume   3455.62119988
_cell_formula_units_Z   4
loop_
 _symmetry_equiv_pos_site_id
 _symmetry_equiv_pos_as_xyz
  1  'x, y, z'
loop_
 _atom_site_label
 _atom_site_fract_x
 _atom_site_fract_y
 _atom_site_fract_z
 _atom_site_charge
 Cu 0.5 0.5 0.5   0.821397
 Cu 0.0 0.5 0.5   0.823419
 Cu 0.0 0.0 0.5   0.82133
 Cu 0.5 0.0 0.5   0.823569
 H 0.2998 0.5527 0.4622   0.084282
 H 0.5564 0.6294 0.7972   0.113684
 H 0.2966 0.7678 0.3242   0.109055
 H 0.2142 0.7622 0.3602   0.101746
 H 0.2046 0.6337 0.398   0.144254
 H 0.5486 0.7109 0.9406   0.103475
 H 0.8753 0.499 0.0544   0.121165
 H 0.4345 0.6932 0.3508   0.146561
 H 0.5258 0.6121 0.4188   0.079365
 H 0.1624 0.4095 0.4622   0.084322
 H 0.2408 0.6678 0.7972   0.113627
 H 0.0276 0.0564 0.3242   0.108845
 H 0.146 0.098 0.3602   0.101615
 H 0.1934 0.2643 0.398   0.144744
 H 0.392 0.7297 0.9406   0.102308
 H 0.1791 0.0554 0.0544   0.121395
 H 0.9163 0.1576 0.3508   0.146399
 H 0.893 0.3067 0.4188   0.079322
 H 0.7002 0.4473 0.5378   0.084282
 H 0.4436 0.3706 0.2028   0.113684
 H 0.7034 0.2322 0.6758   0.109055
 H 0.7858 0.2378 0.6398   0.101746
 H 0.7954 0.3663 0.602   0.144254
 H 0.4514 0.2891 0.0594   0.103475
 H 0.1247 0.501 0.9456   0.121165
 H 0.5655 0.3068 0.6492   0.146561
 H 0.4742 0.3879 0.5812   0.079365
 H 0.8376 0.5905 0.5378   0.084322
 H 0.7592 0.3322 0.2028   0.113627
 H 0.9724 0.9436 0.6758   0.108845
 H 0.854 0.902 0.6398   0.101615
 H 0.8066 0.7357 0.602   0.144744
 H 0.608 0.2703 0.0594   0.102308
 H 0.8209 0.9446 0.9456   0.121395
 H 0.0837 0.8424 0.6492   0.146399
 H 0.107 0.6933 0.5812   0.079322
 H 0.2002 0.0905 0.5378   0.083976
 H 0.9436 0.8322 0.2028   0.114225
 H 0.2034 0.4436 0.6758   0.109
 H 0.2858 0.402 0.6398   0.102181
 H 0.2954 0.2357 0.602   0.143834
 H 0.9514 0.7703 0.0594   0.103059
 H 0.6247 0.4446 0.9456   0.121285
 H 0.0655 0.3424 0.6492   0.146685
 H 0.9742 0.1933 0.5812   0.079256
 H 0.3376 0.9473 0.5378   0.084224
 H 0.2592 0.8706 0.2028   0.114286
 H 0.4724 0.7322 0.6758   0.10847
 H 0.354 0.7378 0.6398   0.10121
 H 0.3066 0.8663 0.602   0.144388
 H 0.108 0.7891 0.0594   0.102238
 H 0.3209 0.000999999999998 0.9456   0.121443
 H 0.5837 0.8068 0.6492   0.146958
 H 0.607 0.8879 0.5812   0.078646
 H 0.7998 0.9095 0.4622   0.083976
 H 0.0564 0.1678 0.7972   0.114225
 H 0.7966 0.5564 0.3242   0.109
 H 0.7142 0.598 0.3602   0.102181
 H 0.7046 0.7643 0.398   0.143834
 H 0.0486 0.2297 0.9406   0.103059
 H 0.3753 0.5554 0.0544   0.121284
 H 0.9345 0.6576 0.3508   0.146685
 H 0.0258 0.8067 0.4188   0.079256
 H 0.6624 0.0527 0.4622   0.084224
 H 0.7408 0.1294 0.7972   0.114286
 H 0.5276 0.2678 0.3242   0.10847
 H 0.646 0.2622 0.3602   0.10121
 H 0.6934 0.1337 0.398   0.144388
 H 0.892 0.2109 0.9406   0.102238
 H 0.6791 0.999 0.0544   0.121443
 H 0.4163 0.1932 0.3508   0.146958
 H 0.393 0.1121 0.4188   0.078645
 C 0.40182 0.59822 0.70924   -0.093993
 C 0.4094 0.54051 0.6184   0.643764
 C 0.19312 0.62408 0.14704   0.488284
 C 0.32776 0.58169 0.43932   0.171687
 C 0.30957 0.67316 0.36794   0.118118
 C 0.49164 0.63664 0.79648   -0.067805
 C 0.24893 0.725 0.32286   -0.046752
 C 0.27083 0.63001 0.40126   -0.208437
 C 0.48714 0.68514 0.88168   -0.099904
 C 0.0722 0.6235 0.1988   0.484071
 C 0.92479 0.49929 0.03278   0.006812
 C 0.40532 0.66527 0.37384   -0.206088
 C 0.02276 0.55541 0.09292   -0.089702
 C 0.09611 0.55701 0.06242   -0.104499
 C 0.459 0.61601 0.4138   0.174824
 C 0.30742 0.61102 0.70924   -0.092972
 C 0.209 0.57789 0.6184   0.645515
 C 0.95392 0.02296 0.14704   0.489655
 C 0.11156 0.35763 0.43932   0.171772
 C 0.05837 0.19478 0.36794   0.116816
 C 0.30484 0.65984 0.79648   -0.068058
 C 0.07393 0.09786 0.32286   -0.045607
 C 0.13043 0.27125 0.40126   -0.208963
 C 0.39454 0.69654 0.88168   -0.097618
 C 0.1266 0.0753 0.1988   0.485265
 C 0.10799 0.03349 0.03278   0.006431
 C 0.96852 0.20857 0.37384   -0.204495
 C 0.07016 0.03751 0.09292   -0.089747
 C 0.96631 0.00541 0.06242   -0.104743
 C 0.9548 0.29779 0.4138   0.174039
 C 0.59818 0.40178 0.29076   -0.093993
 C 0.5906 0.45949 0.3816   0.643764
 C 0.80688 0.37592 0.85296   0.488284
 C 0.67224 0.41831 0.56068   0.171687
 C 0.69043 0.32684 0.63206   0.118118
 C 0.50836 0.36336 0.20352   -0.067805
 C 0.75107 0.275 0.67714   -0.046752
 C 0.72917 0.36999 0.59874   -0.208437
 C 0.51286 0.31486 0.11832   -0.099904
 C 0.9278 0.3765 0.8012   0.484071
 C 0.07521 0.50071 0.96722   0.006813
 C 0.59468 0.33473 0.62616   -0.206088
 C 0.97724 0.44459 0.90708   -0.089702
 C 0.90389 0.44299 0.93758   -0.104499
 C 0.541 0.38399 0.5862   0.174824
 C 0.69258 0.38898 0.29076   -0.092972
 C 0.791 0.42211 0.3816   0.645515
 C 0.04608 0.97704 0.85296   0.489655
 C 0.88844 0.64237 0.56068   0.171772
 C 0.94163 0.80522 0.63206   0.116816
 C 0.69516 0.34016 0.20352   -0.068058
 C 0.92607 0.90214 0.67714   -0.045607
 C 0.86957 0.72875 0.59874   -0.208963
 C 0.60546 0.30346 0.11832   -0.097618
 C 0.8734 0.9247 0.8012   0.485265
 C 0.89201 0.96651 0.96722   0.006432
 C 0.03148 0.79143 0.62616   -0.204495
 C 0.92984 0.96249 0.90708   -0.089747
 C 0.03369 0.99459 0.93758   -0.104742
 C 0.0452 0.70221 0.5862   0.174039
 C 0.09818 0.88898 0.29076   -0.091788
 C 0.0906 0.92211 0.3816   0.643583
 C 0.30688 0.47704 0.85296   0.487551
 C 0.17224 0.14237 0.56068   0.171194
 C 0.19043 0.30522 0.63206   0.119035
 C 0.00836 0.84016 0.20352   -0.069755
 C 0.25107 0.40214 0.67714   -0.047811
 C 0.22917 0.22875 0.59874   -0.207544
 C 0.01286 0.80346 0.11832   -0.098926
 C 0.4278 0.4247 0.8012   0.484411
 C 0.57521 0.46651 0.96722   0.006662
 C 0.09468 0.29143 0.62616   -0.206142
 C 0.47724 0.46249 0.90708   -0.089878
 C 0.40389 0.49459 0.93758   -0.104633
 C 0.041 0.20221 0.5862   0.174142
 C 0.19258 0.90178 0.29076   -0.0935
 C 0.291 0.95949 0.3816   0.645935
 C 0.54608 0.87592 0.85296   0.489253
 C 0.38844 0.91831 0.56068   0.171859
 C 0.44163 0.82684 0.63206   0.11746
 C 0.19516 0.86336 0.20352   -0.069424
 C 0.42607 0.775 0.67714   -0.044802
 C 0.36957 0.86999 0.59874   -0.208489
 C 0.10546 0.81486 0.11832   -0.097421
 C 0.3734 0.8765 0.8012   0.485818
 C 0.39201 0.000709999999998 0.96722   0.006185
 C 0.53148 0.83473 0.62616   -0.205854
 C 0.42984 0.94459 0.90708   -0.090074
 C 0.53369 0.94299 0.93758   -0.104398
 C 0.5452 0.88399 0.5862   0.175702
 C 0.90182 0.11102 0.70924   -0.091788
 C 0.9094 0.07789 0.6184   0.643583
 C 0.69312 0.52296 0.14704   0.487551
 C 0.82776 0.85763 0.43932   0.171194
 C 0.80957 0.69478 0.36794   0.119035
 C 0.99164 0.15984 0.79648   -0.069755
 C 0.74893 0.59786 0.32286   -0.047811
 C 0.77083 0.77125 0.40126   -0.207544
 C 0.98714 0.19654 0.88168   -0.098926
 C 0.5722 0.5753 0.1988   0.484411
 C 0.42479 0.53349 0.03278   0.006663
 C 0.90532 0.70857 0.37384   -0.206142
 C 0.52276 0.53751 0.09292   -0.089878
 C 0.59611 0.50541 0.06242   -0.104632
 C 0.959 0.79779 0.4138   0.174142
 C 0.80742 0.09822 0.70924   -0.0935
 C 0.709 0.04051 0.6184   0.645935
 C 0.45392 0.12408 0.14704   0.489253
 C 0.61156 0.08169 0.43932   0.171859
 C 0.55837 0.17316 0.36794   0.11746
 C 0.80484 0.13664 0.79648   -0.069424
 C 0.57393 0.225 0.32286   -0.044802
 C 0.63043 0.13001 0.40126   -0.208489
 C 0.89454 0.18514 0.88168   -0.097421
 C 0.6266 0.1235 0.1988   0.485818
 C 0.60799 0.99929 0.03278   0.006186
 C 0.46852 0.16527 0.37384   -0.205854
 C 0.57016 0.05541 0.09292   -0.090074
 C 0.46631 0.05701 0.06242   -0.104398
 C 0.4548 0.11601 0.4138   0.175702
 N 0.17245 0.66109 0.2247   -0.223569
 N 0.42102 0.57416 0.44524   -0.324812
 N 0.05225 0.06361 0.2247   -0.22532
 N 0.02422 0.37108 0.44524   -0.324571
 N 0.82755 0.33891 0.7753   -0.223569
 N 0.57898 0.42584 0.55476   -0.324812
 N 0.94775 0.93639 0.7753   -0.22532
 N 0.97578 0.62892 0.55476   -0.324572
 N 0.32755 0.43639 0.7753   -0.222973
 N 0.07898 0.12892 0.55476   -0.324196
 N 0.44775 0.83891 0.7753   -0.225715
 N 0.47578 0.92584 0.55476   -0.325537
 N 0.67245 0.56361 0.2247   -0.222973
 N 0.92102 0.87108 0.44524   -0.324196
 N 0.55225 0.16109 0.2247   -0.225715
 N 0.52422 0.07416 0.44524   -0.325537
 O 0.48611 0.57378 0.61536   -0.595445
 O 0.34736 0.46604 0.5542   -0.581316
 O 0.03574 0.64217 0.25268   -0.425817
 O 0.27517 0.64365 0.15082   -0.434598
 O 0.12925 0.54158 0.61536   -0.597143
 O 0.20684 0.58816 0.5542   -0.582111
 O 0.21694 0.11051 0.25268   -0.426171
 O 0.87565 0.00717 0.15082   -0.435309
 O 0.51389 0.42622 0.38464   -0.595445
 O 0.65264 0.53396 0.4458   -0.581316
 O 0.96426 0.35783 0.74732   -0.425817
 O 0.72483 0.35635 0.84918   -0.434598
 O 0.87075 0.45842 0.38464   -0.597143
 O 0.79316 0.41184 0.4458   -0.582111
 O 0.78306 0.88949 0.74732   -0.426171
 O 0.12435 0.99283 0.84918   -0.435309
 O 0.01389 0.95842 0.38464   -0.595826
 O 0.15264 0.91184 0.4458   -0.581239
 O 0.46426 0.38949 0.74732   -0.425915
 O 0.22483 0.49283 0.84918   -0.43418
 O 0.37075 0.92622 0.38464   -0.597154
 O 0.29316 0.03396 0.4458   -0.582233
 O 0.28306 0.85783 0.74732   -0.426307
 O 0.62435 0.85635 0.84918   -0.434946
 O 0.98611 0.04158 0.61536   -0.595826
 O 0.84736 0.08816 0.5542   -0.581239
 O 0.53574 0.61051 0.25268   -0.425915
 O 0.77517 0.50717 0.15082   -0.43418
 O 0.62925 0.07378 0.61536   -0.597154
 O 0.70684 0.96604 0.5542   -0.582233
 O 0.71694 0.14217 0.25268   -0.426307
 O 0.37565 0.14365 0.15082   -0.434946
