{'_ref': 'TBD', '_srcid': 'CAKYAQ_clean', 'submitters': [{'name': 'Dalar Nazarian Jeff Camp and David Sholl', 'email': 'dalar@gatech.edu jcamp6@gatech.edu'}], '_method': 'VASP DFT with PBE;DDEC'}
data_Mn2MoH4(C6N5)2
_symmetry_space_group_name_H-M   'P 1'
_cell_length_a   7.35180000
_cell_length_b   11.62399962
_cell_length_c   14.13100000
_cell_angle_alpha   90.00000000
_cell_angle_beta   90.00000000
_cell_angle_gamma   98.72400205
_symmetry_Int_Tables_number   1
_chemical_formula_structural   Mn2MoH4(C6N5)2
_chemical_formula_sum   'Mn4 Mo2 H8 C24 N20'
_cell_volume   1193.62601802
_cell_formula_units_Z   2
loop_
 _symmetry_equiv_pos_site_id
 _symmetry_equiv_pos_as_xyz
  1  'x, y, z'
loop_
 _atom_site_label
 _atom_site_fract_x
 _atom_site_fract_y
 _atom_site_fract_z
 _atom_site_charge
 Mn 0.50105 0.52265 0.49998   1.188408
 Mn 0.9732 0.97456 0.02509   1.092199
 Mn 0.49895 0.47735 0.99998   1.188409
 Mn 0.0268 0.02544 0.52509   1.09219
 Mo 0.9454 0.34047 0.25751   -0.230391
 Mo 0.0546 0.65953 0.75751   -0.230391
 H 0.6736 0.1467 0.0443   0.09619
 H 0.3582 0.1475 0.0416   0.104833
 H 0.2772 0.8066 0.0034   0.103071
 H 0.5903 0.8061 0.0032   0.105122
 H 0.3264 0.8533 0.5443   0.09619
 H 0.6418 0.8525 0.5416   0.104833
 H 0.7228 0.1934 0.5034   0.103071
 H 0.4097 0.1939 0.5032   0.105122
 C 0.7005 0.2099 0.2704   0.133311
 C 0.9495 0.5248 0.23219   0.150416
 C 0.7772 0.3929 0.3691   0.236799
 C 0.1633 0.426 0.3473   0.237843
 C 0.1694 0.3891 0.1611   0.232628
 C 0.774 0.3618 0.1385   0.235934
 C 0.9953 0.1933 0.175   0.25678
 C 0.0211 0.2217 0.361   0.246715
 C 0.593 0.0755 0.0358   0.139453
 C 0.4037 0.0757 0.0346   0.131477
 C 0.3575 0.878 0.012   0.132173
 C 0.5442 0.8773 0.0125   0.129497
 C 0.2995 0.7901 0.7704   0.133311
 C 0.0505 0.4752 0.73219   0.150416
 C 0.2228 0.6071 0.8691   0.236799
 C 0.8367 0.574 0.8473   0.237843
 C 0.8306 0.6109 0.6611   0.232628
 C 0.226 0.6382 0.6385   0.235934
 C 0.0047 0.8067 0.675   0.256779
 C 0.9789 0.7783 0.861   0.246715
 C 0.407 0.9245 0.5358   0.139453
 C 0.5963 0.9243 0.5346   0.131476
 C 0.6425 0.122 0.512   0.132173
 C 0.4558 0.1227 0.5125   0.129497
 N 0.5754 0.1378 0.2759   -0.452805
 N 0.9545 0.6221 0.2143   -0.469919
 N 0.6852 0.4195 0.4285   -0.522127
 N 0.2753 0.4705 0.39705   -0.492475
 N 0.2822 0.416 0.10429   -0.505479
 N 0.6836 0.3755 0.07439   -0.522326
 N 0.0128 0.1152 0.12741   -0.533004
 N 0.052 0.1586 0.4191   -0.530064
 N 0.6638 0.9765 0.02544   -0.350044
 N 0.2843 0.977 0.02364   -0.344214
 N 0.4246 0.8622 0.7759   -0.452805
 N 0.0455 0.3779 0.7143   -0.469919
 N 0.3148 0.5805 0.9285   -0.522126
 N 0.7247 0.5295 0.89705   -0.492473
 N 0.7178 0.584 0.60429   -0.505478
 N 0.3164 0.6245 0.57439   -0.522324
 N 0.9872 0.8848 0.62741   -0.533004
 N 0.948 0.8414 0.9191   -0.530065
 N 0.3362 0.0235 0.52544   -0.350043
 N 0.7157 0.023 0.52364   -0.344214
