{'_ref': 'TBD', '_srcid': 'CAKYAQ_clean', 'submitters': [{'name': 'Dalar Nazarian Jeff Camp and David Sholl', 'email': 'dalar@gatech.edu jcamp6@gatech.edu'}], '_method': 'VASP DFT with PBE;DDEC'}
data_ZnH12C16(NO2)2
_symmetry_space_group_name_H-M   'P 1'
_cell_length_a   8.84879970
_cell_length_b   13.50420000
_cell_length_c   21.52850000
_cell_angle_alpha   90.00000000
_cell_angle_beta   90.00000000
_cell_angle_gamma   97.14400216
_symmetry_Int_Tables_number   1
_chemical_formula_structural   ZnH12C16(NO2)2
_chemical_formula_sum   'Zn4 H48 C64 N8 O16'
_cell_volume   2552.59722538
_cell_formula_units_Z   4
loop_
 _symmetry_equiv_pos_site_id
 _symmetry_equiv_pos_as_xyz
  1  'x, y, z'
loop_
 _atom_site_label
 _atom_site_fract_x
 _atom_site_fract_y
 _atom_site_fract_z
 _atom_site_charge
 Zn 0.0 0.25 0.147618   0.840126
 Zn 0.5 0.25 0.647618   0.840126
 Zn 0.0 0.75 0.852382   0.840126
 Zn 0.5 0.75 0.352382   0.840126
 H 0.3217 0.2096 0.1509   0.094438
 H 0.8217 0.2096 0.6509   0.094438
 H 0.6783 0.2904 0.1509   0.094437
 H 0.1783 0.2904 0.6509   0.094437
 H 0.6783 0.7904 0.8491   0.094438
 H 0.1783 0.7904 0.3491   0.094438
 H 0.3217 0.7096 0.8491   0.094437
 H 0.8217 0.7096 0.3491   0.094437
 H 0.4852 0.1184 0.098   0.13498
 H 0.9852 0.1184 0.598   0.13498
 H 0.5148 0.3816 0.098   0.13498
 H 0.0148 0.3816 0.598   0.13498
 H 0.5148 0.8816 0.902   0.13498
 H 0.0148 0.8816 0.402   0.13498
 H 0.4852 0.6184 0.902   0.13498
 H 0.9852 0.6184 0.402   0.13498
 H 0.155 0.0504 0.9686   0.141215
 H 0.655 0.0504 0.4686   0.141215
 H 0.845 0.4496 0.9686   0.141215
 H 0.345 0.4496 0.4686   0.141215
 H 0.845 0.9496 0.0314   0.141215
 H 0.345 0.9496 0.5314   0.141215
 H 0.155 0.5504 0.0314   0.141215
 H 0.655 0.5504 0.5314   0.141215
 H 0.9965 0.1392 0.0272   0.087109
 H 0.4965 0.1392 0.5272   0.087109
 H 0.0035 0.3608 0.0272   0.087109
 H 0.5035 0.3608 0.5272   0.087109
 H 0.0035 0.8608 0.9728   0.087109
 H 0.5035 0.8608 0.4728   0.087109
 H 0.9965 0.6392 0.9728   0.087109
 H 0.4965 0.6392 0.4728   0.087109
 H 0.3902 0.9809 0.954   0.11759
 H 0.8902 0.9809 0.454   0.11759
 H 0.6098 0.5191 0.954   0.11759
 H 0.1098 0.5191 0.454   0.11759
 H 0.6098 0.0191 0.046   0.117585
 H 0.1098 0.0191 0.546   0.117585
 H 0.3902 0.4809 0.046   0.117585
 H 0.8902 0.4809 0.546   0.117585
 H 0.667 0.9526 0.2015   0.130095
 H 0.167 0.9526 0.7015   0.130095
 H 0.333 0.5474 0.2015   0.130096
 H 0.833 0.5474 0.7015   0.130096
 H 0.333 0.0474 0.7985   0.130091
 H 0.833 0.0474 0.2985   0.130091
 H 0.667 0.4526 0.7985   0.130092
 H 0.167 0.4526 0.2985   0.130092
 C 0.28693 0.17539 0.11406   0.157449
 C 0.78693 0.17539 0.61406   0.157449
 C 0.71307 0.32461 0.11406   0.157449
 C 0.21307 0.32461 0.61406   0.157449
 C 0.71307 0.82461 0.88594   0.157449
 C 0.21307 0.82461 0.38594   0.157449
 C 0.28693 0.67539 0.88594   0.157449
 C 0.78693 0.67539 0.38594   0.157449
 C 0.38538 0.12157 0.08249   -0.200611
 C 0.88538 0.12157 0.58249   -0.200611
 C 0.61462 0.37843 0.08249   -0.200611
 C 0.11462 0.37843 0.58249   -0.200611
 C 0.61462 0.87843 0.91751   -0.20061
 C 0.11462 0.87843 0.41751   -0.20061
 C 0.38538 0.62157 0.91751   -0.20061
 C 0.88538 0.62157 0.41751   -0.20061
 C 0.33737 0.0715 0.02748   0.147743
 C 0.83737 0.0715 0.52748   0.147743
 C 0.66263 0.4285 0.02748   0.147743
 C 0.16263 0.4285 0.52748   0.147743
 C 0.66263 0.9285 0.97252   0.147735
 C 0.16263 0.9285 0.47252   0.147735
 C 0.33737 0.5715 0.97252   0.147735
 C 0.83737 0.5715 0.47252   0.147735
 C 0.19073 0.08083 0.00652   -0.197443
 C 0.69073 0.08083 0.50652   -0.197443
 C 0.80927 0.41917 0.00652   -0.197443
 C 0.30927 0.41917 0.50652   -0.197443
 C 0.80927 0.91917 0.99348   -0.197443
 C 0.30927 0.91917 0.49348   -0.197443
 C 0.19073 0.58083 0.99348   -0.197443
 C 0.69073 0.58083 0.49348   -0.197443
 C 0.09708 0.13489 0.04145   0.154112
 C 0.59708 0.13489 0.54145   0.154112
 C 0.90292 0.36511 0.04145   0.154112
 C 0.40292 0.36511 0.54145   0.154112
 C 0.90292 0.86511 0.95855   0.154112
 C 0.40292 0.86511 0.45855   0.154112
 C 0.09708 0.63489 0.95855   0.154112
 C 0.59708 0.63489 0.45855   0.154112
 C 0.43108 0.00942 0.99164   -0.102986
 C 0.93108 0.00942 0.49164   -0.102986
 C 0.56892 0.49058 0.99164   -0.102986
 C 0.06892 0.49058 0.49164   -0.102986
 C 0.56892 0.99058 0.00836   -0.102935
 C 0.06892 0.99058 0.50836   -0.102935
 C 0.43108 0.50942 0.00836   -0.102935
 C 0.93108 0.50942 0.50836   -0.102935
 C 0.81093 0.08416 0.1792   0.660388
 C 0.31093 0.08416 0.6792   0.660388
 C 0.18907 0.41584 0.1792   0.660388
 C 0.68907 0.41584 0.6792   0.660388
 C 0.18907 0.91584 0.8208   0.660383
 C 0.68907 0.91584 0.3208   0.660383
 C 0.81093 0.58416 0.8208   0.660383
 C 0.31093 0.58416 0.3208   0.660383
 C 0.73713 0.0031 0.22001   -0.192725
 C 0.23713 0.0031 0.72001   -0.192725
 C 0.26287 0.4969 0.22001   -0.192725
 C 0.76287 0.4969 0.72001   -0.192725
 C 0.26287 0.9969 0.77999   -0.192685
 C 0.76287 0.9969 0.27999   -0.192685
 C 0.73713 0.5031 0.77999   -0.192685
 C 0.23713 0.5031 0.27999   -0.192685
 N 0.1439 0.18136 0.09472   -0.33387
 N 0.6439 0.18136 0.59472   -0.33387
 N 0.8561 0.31864 0.09472   -0.33387
 N 0.3561 0.31864 0.59472   -0.33387
 N 0.8561 0.81864 0.90528   -0.33387
 N 0.3561 0.81864 0.40528   -0.33387
 N 0.1439 0.68136 0.90528   -0.33387
 N 0.6439 0.68136 0.40528   -0.33387
 O 0.8953 0.15521 0.20659   -0.599413
 O 0.3953 0.15521 0.70659   -0.599413
 O 0.1047 0.34479 0.20659   -0.599413
 O 0.6047 0.34479 0.70659   -0.599413
 O 0.1047 0.84479 0.79341   -0.599412
 O 0.6047 0.84479 0.29341   -0.599412
 O 0.8953 0.65521 0.79341   -0.599412
 O 0.3953 0.65521 0.29341   -0.599412
 O 0.78989 0.07903 0.12225   -0.618169
 O 0.28989 0.07903 0.62225   -0.618169
 O 0.21011 0.42097 0.12225   -0.618169
 O 0.71011 0.42097 0.62225   -0.618169
 O 0.21011 0.92097 0.87775   -0.618169
 O 0.71011 0.92097 0.37775   -0.618169
 O 0.78989 0.57903 0.87775   -0.618169
 O 0.28989 0.57903 0.37775   -0.618169
