{'_ref': 'TBD', '_srcid': 'CAKYAQ_clean', 'submitters': [{'name': 'Dalar Nazarian Jeff Camp and David Sholl', 'email': 'dalar@gatech.edu jcamp6@gatech.edu'}], '_method': 'VASP DFT with PBE;DDEC'}
data_Cu7H11C16(ClO11)2
_symmetry_space_group_name_H-M   'P 1'
_cell_length_a   10.04520000
_cell_length_b   10.22940000
_cell_length_c   14.16009970
_cell_angle_alpha   92.25800203
_cell_angle_beta   90.00000000
_cell_angle_gamma   90.00000000
_symmetry_Int_Tables_number   1
_chemical_formula_structural   Cu7H11C16(ClO11)2
_chemical_formula_sum   'Cu14 H22 C32 Cl4 O44'
_cell_volume   1453.9106527
_cell_formula_units_Z   2
loop_
 _symmetry_equiv_pos_site_id
 _symmetry_equiv_pos_as_xyz
  1  'x, y, z'
loop_
 _atom_site_label
 _atom_site_fract_x
 _atom_site_fract_y
 _atom_site_fract_z
 _atom_site_charge
 Cu 0.24883 0.92562 0.28535   1.01165
 Cu 0.23228 0.93235 0.78851   0.980926
 Cu 0.87659 0.70064 0.77034   1.033119
 Cu 0.40664 0.65605 0.78172   1.039276
 Cu 0.28111 0.40769 0.66436   0.988741
 Cu 0.26386 0.44109 0.87617   0.969068
 Cu 0.25734 0.43793 0.28744   1.019729
 Cu 0.75117 0.42562 0.28535   1.01165
 Cu 0.76772 0.43235 0.78851   0.980926
 Cu 0.12341 0.20064 0.77034   1.033118
 Cu 0.59336 0.15605 0.78172   1.039276
 Cu 0.71889 0.90769 0.66436   0.988741
 Cu 0.73614 0.94109 0.87617   0.969068
 Cu 0.74266 0.93793 0.28744   1.019729
 H 0.3648 0.7772 0.4926   0.127375
 H 0.175 0.6089 0.5211   0.133327
 H 0.0053 0.7071 0.4504   0.138745
 H 0.0594 0.9691 0.5071   0.11414
 H 0.1246 0.0931 0.0931   0.132249
 H 0.3168 0.2556 0.0532   0.145135
 H 0.4972 0.1484 0.1061   0.141531
 H 0.4296 0.8902 0.0667   0.113743
 H 0.023 0.995 0.839   0.332256
 H 0.929 0.932 0.768   0.408508
 H 0.395 0.869 0.871   0.38774
 H 0.6352 0.2772 0.4926   0.127375
 H 0.825 0.1089 0.5211   0.133327
 H 0.9947 0.2071 0.4504   0.138745
 H 0.9406 0.4691 0.5071   0.11414
 H 0.8754 0.5931 0.0931   0.132249
 H 0.6832 0.7556 0.0532   0.145135
 H 0.5028 0.6484 0.1061   0.141531
 H 0.5704 0.3902 0.0667   0.113742
 H 0.977 0.495 0.839   0.332256
 H 0.071 0.432 0.768   0.408508
 H 0.605 0.369 0.871   0.38774
 C 0.275 0.7681 0.4625   0.068416
 C 0.1765 0.7062 0.5316   -0.206022
 C 0.0441 0.7649 0.5019   -0.192101
 C 0.0808 0.8971 0.4597   0.058203
 C 0.2844 0.6834 0.372   0.608823
 C 0.2187 0.7423 0.6324   0.716736
 C 0.9427 0.7784 0.5816   0.705557
 C 0.0017 0.9191 0.3692   0.611054
 C 0.2184 0.0975 0.1165   0.0669
 C 0.3099 0.1587 0.0421   -0.203256
 C 0.4456 0.0906 0.0607   -0.187127
 C 0.41 0.9666 0.1107   0.058269
 C 0.2257 0.1775 0.2105   0.619251
 C 0.258 0.1244 0.943   0.728673
 C 0.53 0.0667 0.9736   0.67074
 C 0.4915 0.9508 0.2008   0.600442
 C 0.725 0.2681 0.4625   0.068416
 C 0.8235 0.2062 0.5316   -0.206022
 C 0.9559 0.2649 0.5019   -0.192101
 C 0.9192 0.3971 0.4597   0.058203
 C 0.7156 0.1834 0.372   0.608822
 C 0.7813 0.2423 0.6324   0.716736
 C 0.0573 0.2784 0.5816   0.705557
 C 0.9983 0.4191 0.3692   0.611054
 C 0.7816 0.5975 0.1165   0.0669
 C 0.6901 0.6587 0.0421   -0.203256
 C 0.5544 0.5906 0.0607   -0.187127
 C 0.59 0.4666 0.1107   0.058269
 C 0.7743 0.6775 0.2105   0.619251
 C 0.742 0.6244 0.943   0.728673
 C 0.47 0.5667 0.9736   0.67074
 C 0.5085 0.4508 0.2008   0.600442
 Cl 0.10757 0.53 0.96782   -0.507313
 Cl 0.62662 0.65147 0.69091   -0.601914
 Cl 0.89243 0.03 0.96782   -0.507313
 Cl 0.37338 0.15147 0.69091   -0.601914
 O 0.2221 0.8948 0.4441   -0.309353
 O 0.2436 0.7279 0.2956   -0.573661
 O 0.3262 0.5687 0.3805   -0.528031
 O 0.2788 0.6533 0.6748   -0.653126
 O 0.1971 0.8559 0.6633   -0.526372
 O 0.9541 0.696 0.6447   -0.555061
 O 0.8543 0.8638 0.5745   -0.572792
 O 0.8784 0.9183 0.3801   -0.542554
 O 0.0597 0.9398 0.2932   -0.547113
 O 0.068 0.0238 0.7839   -0.846372
 O 0.8456 0.8868 0.7688   -0.905713
 O 0.2693 0.9685 0.1289   -0.308531
 O 0.2579 0.1228 0.2846   -0.560168
 O 0.2005 0.2975 0.2036   -0.543462
 O 0.211 0.2154 0.8961   -0.623826
 O 0.2682 0.007 0.916   -0.572028
 O 0.5293 0.1566 0.915   -0.572805
 O 0.5954 0.9618 0.9669   -0.521544
 O 0.614 0.9726 0.1913   -0.525525
 O 0.439 0.9125 0.2749   -0.55535
 O 0.3938 0.8392 0.806   -0.7757
 O 0.3912 0.4676 0.7687   -0.713505
 O 0.7779 0.3948 0.4441   -0.309353
 O 0.7564 0.2279 0.2956   -0.573661
 O 0.6738 0.0687 0.3805   -0.528031
 O 0.7212 0.1533 0.6748   -0.653126
 O 0.8029 0.3559 0.6633   -0.526372
 O 0.0459 0.196 0.6447   -0.555061
 O 0.1457 0.3638 0.5745   -0.572792
 O 0.1216 0.4183 0.3801   -0.542553
 O 0.9403 0.4398 0.2932   -0.547113
 O 0.932 0.5238 0.7839   -0.846372
 O 0.1544 0.3868 0.7688   -0.905713
 O 0.7307 0.4685 0.1289   -0.308531
 O 0.7421 0.6228 0.2846   -0.560168
 O 0.7995 0.7975 0.2036   -0.543461
 O 0.789 0.7154 0.8961   -0.623826
 O 0.7318 0.507 0.916   -0.572028
 O 0.4707 0.6566 0.915   -0.572805
 O 0.4046 0.4618 0.9669   -0.521544
 O 0.386 0.4726 0.1913   -0.525524
 O 0.561 0.4125 0.2749   -0.555349
 O 0.6062 0.3392 0.806   -0.7757
 O 0.6088 0.9676 0.7687   -0.713505
