{'_ref': 'TBD', '_srcid': 'CAKYAQ_clean', 'submitters': [{'name': 'Dalar Nazarian Jeff Camp and David Sholl', 'email': 'dalar@gatech.edu jcamp6@gatech.edu'}], '_method': 'VASP DFT with PBE;DDEC'}
data_Zn3H22C34(NO6)2
_symmetry_space_group_name_H-M   'P 1'
_cell_length_a   11.80500000
_cell_length_b   17.14200026
_cell_length_c   21.54400000
_cell_angle_alpha   90.00000000
_cell_angle_beta   90.00000000
_cell_angle_gamma   106.44099802
_symmetry_Int_Tables_number   1
_chemical_formula_structural   Zn3H22C34(NO6)2
_chemical_formula_sum   'Zn12 H88 C136 N8 O48'
_cell_volume   4181.41254412
_cell_formula_units_Z   4
loop_
 _symmetry_equiv_pos_site_id
 _symmetry_equiv_pos_as_xyz
  1  'x, y, z'
loop_
 _atom_site_label
 _atom_site_fract_x
 _atom_site_fract_y
 _atom_site_fract_z
 _atom_site_charge
 Zn 0.82324 0.72725 0.57206   1.106908
 Zn 0.64024 0.82852 0.6204   0.915762
 Zn 0.06487 0.36568 0.53252   0.919661
 Zn 0.67676 0.27275 0.07206   1.106908
 Zn 0.85976 0.17148 0.1204   0.915762
 Zn 0.43513 0.63432 0.03252   0.919661
 Zn 0.17676 0.27275 0.42794   1.106908
 Zn 0.35976 0.17148 0.3796   0.915762
 Zn 0.93513 0.63432 0.46748   0.919661
 Zn 0.32324 0.72725 0.92794   1.106908
 Zn 0.14024 0.82852 0.8796   0.915762
 Zn 0.56487 0.36568 0.96748   0.919661
 H 0.4091 0.8016 0.6798   0.072837
 H 0.2838 0.8721 0.7177   0.128455
 H 0.3323 0.0057 0.7111   0.100304
 H 0.5037 0.0755 0.6553   0.142156
 H 0.6266 0.9957 0.6174   0.091919
 H 0.099 0.3676 0.6705   0.07707
 H 0.0366 0.4155 0.7569   0.12366
 H 0.8974 0.4863 0.7491   0.087975
 H 0.8303 0.5105 0.6522   0.139133
 H 0.8936 0.4543 0.5678   0.081266
 H 0.1083 0.9277 0.5841   0.103737
 H 0.2657 0.0379 0.5633   0.098378
 H 0.238 0.1649 0.5531   0.094733
 H 0.89 0.068 0.5826   0.097358
 H 0.5741 0.5155 0.6212   0.100141
 H 0.4057 0.4087 0.6373   0.097182
 H 0.3448 0.3083 0.563   0.09893
 H 0.6294 0.4136 0.4609   0.093526
 H 0.1935 0.5721 0.5848   0.089068
 H 0.3285 0.5609 0.6608   0.09782
 H 0.3311 0.6246 0.755   0.091118
 H 0.0831 0.7249 0.6956   0.103436
 H 0.0909 0.1984 0.1798   0.072837
 H 0.2162 0.1279 0.2177   0.128455
 H 0.1677 0.9943 0.2111   0.100304
 H 0.9963 0.9245 0.1553   0.142156
 H 0.8734 0.0043 0.1174   0.091919
 H 0.401 0.6324 0.1705   0.07707
 H 0.4634 0.5845 0.2569   0.12366
 H 0.6026 0.5137 0.2491   0.087975
 H 0.6697 0.4895 0.1522   0.139133
 H 0.6064 0.5457 0.0678   0.081266
 H 0.3917 0.0723 0.0841   0.103737
 H 0.2343 0.9621 0.0633   0.098378
 H 0.262 0.8351 0.0531   0.094733
 H 0.61 0.932 0.0826   0.097358
 H 0.9259 0.4845 0.1212   0.100141
 H 0.0943 0.5913 0.1373   0.097182
 H 0.1552 0.6917 0.063   0.09893
 H 0.8706 0.5864 0.9609   0.093526
 H 0.3065 0.4279 0.0848   0.089068
 H 0.1715 0.4391 0.1608   0.09782
 H 0.1689 0.3754 0.255   0.091118
 H 0.4169 0.2751 0.1956   0.103436
 H 0.5909 0.1984 0.3202   0.072837
 H 0.7162 0.1279 0.2823   0.128455
 H 0.6677 0.9943 0.2889   0.100304
 H 0.4963 0.9245 0.3447   0.142156
 H 0.3734 0.0043 0.3826   0.091919
 H 0.901 0.6324 0.3295   0.07707
 H 0.9634 0.5845 0.2431   0.12366
 H 0.1026 0.5137 0.2509   0.087974
 H 0.1697 0.4895 0.3478   0.139133
 H 0.1064 0.5457 0.4322   0.081266
 H 0.8917 0.0723 0.4159   0.103737
 H 0.7343 0.9621 0.4367   0.098378
 H 0.762 0.8351 0.4469   0.094733
 H 0.11 0.932 0.4174   0.097358
 H 0.4259 0.4845 0.3788   0.100141
 H 0.5943 0.5913 0.3627   0.097182
 H 0.6552 0.6917 0.437   0.09893
 H 0.3706 0.5864 0.5391   0.093526
 H 0.8065 0.4279 0.4152   0.089068
 H 0.6715 0.4391 0.3392   0.09782
 H 0.6689 0.3754 0.245   0.091118
 H 0.9169 0.2751 0.3044   0.103436
 H 0.9091 0.8016 0.8202   0.072837
 H 0.7838 0.8721 0.7823   0.128455
 H 0.8323 0.0057 0.7889   0.100304
 H 0.0037 0.0755 0.8447   0.142156
 H 0.1266 0.9957 0.8826   0.091919
 H 0.599 0.3676 0.8295   0.07707
 H 0.5366 0.4155 0.7431   0.12366
 H 0.3974 0.4863 0.7509   0.087974
 H 0.3303 0.5105 0.8478   0.139133
 H 0.3936 0.4543 0.9322   0.081266
 H 0.6083 0.9277 0.9159   0.103737
 H 0.7657 0.0379 0.9367   0.098378
 H 0.738 0.1649 0.9469   0.094733
 H 0.39 0.068 0.9174   0.097358
 H 0.0741 0.5155 0.8788   0.100141
 H 0.9057 0.4087 0.8627   0.097182
 H 0.8448 0.3083 0.937   0.09893
 H 0.1294 0.4136 0.0391   0.093526
 H 0.6935 0.5721 0.9152   0.089068
 H 0.8285 0.5609 0.8392   0.09782
 H 0.8311 0.6246 0.745   0.091118
 H 0.5831 0.7249 0.8044   0.103436
 C 0.4312 0.8579 0.6757   0.190021
 C 0.3543 0.9003 0.6987   -0.15614
 C 0.3809 0.9774 0.6937   0.030272
 C 0.484 0.0196 0.6618   -0.202618
 C 0.5581 0.9704 0.6393   0.140383
 C 0.0427 0.3958 0.6667   0.174705
 C 0.0067 0.4243 0.7184   -0.190028
 C 0.9249 0.4666 0.7136   0.035345
 C 0.8836 0.4801 0.6567   -0.180869
 C 0.9236 0.4472 0.6067   0.193955
 C 0.8822 0.9118 0.5924   0.691769
 C 0.9838 0.9865 0.5841   -0.171787
 C 0.0963 0.9787 0.5792   -0.009379
 C 0.1904 0.0443 0.5671   -0.128594
 C 0.1738 0.1199 0.5606   -0.015719
 C 0.0596 0.1293 0.5652   -0.159376
 C 0.9655 0.0622 0.578   0.009428
 C 0.0397 0.2113 0.5558   0.66921
 C 0.7228 0.5473 0.5261   0.68531
 C 0.6194 0.477 0.5388   -0.17046
 C 0.5515 0.4743 0.5918   -0.026673
 C 0.4498 0.4105 0.6013   -0.131161
 C 0.4143 0.3499 0.5574   -0.006308
 C 0.4814 0.3512 0.5057   -0.147192
 C 0.584 0.4138 0.4961   0.014696
 C 0.4447 0.2869 0.4566   0.6744
 C 0.0435 0.6622 0.5829   0.684212
 C 0.127 0.6517 0.6331   -0.173456
 C 0.1986 0.6003 0.6221   0.00547
 C 0.2775 0.5925 0.6679   -0.127363
 C 0.2799 0.6317 0.7241   -0.021716
 C 0.2072 0.6816 0.7356   -0.180351
 C 0.1315 0.6912 0.689   0.005691
 C 0.2135 0.724 0.7962   0.698018
 C 0.0688 0.1421 0.1757   0.190021
 C 0.1457 0.0997 0.1987   -0.15614
 C 0.1191 0.0226 0.1937   0.030272
 C 0.016 0.9804 0.1618   -0.202618
 C 0.9419 0.0296 0.1393   0.140383
 C 0.4573 0.6042 0.1667   0.174705
 C 0.4933 0.5757 0.2184   -0.190028
 C 0.5751 0.5334 0.2136   0.035345
 C 0.6164 0.5199 0.1567   -0.180869
 C 0.5764 0.5528 0.1067   0.193955
 C 0.6178 0.0882 0.0924   0.691769
 C 0.5162 0.0135 0.0841   -0.171787
 C 0.4037 0.0213 0.0792   -0.009379
 C 0.3096 0.9557 0.0671   -0.128594
 C 0.3262 0.8801 0.0606   -0.015719
 C 0.4404 0.8707 0.0652   -0.159376
 C 0.5345 0.9378 0.078   0.009428
 C 0.4603 0.7887 0.0558   0.66921
 C 0.7772 0.4527 0.0261   0.68531
 C 0.8806 0.523 0.0388   -0.17046
 C 0.9485 0.5257 0.0918   -0.026673
 C 0.0502 0.5895 0.1013   -0.131161
 C 0.0857 0.6501 0.0574   -0.006308
 C 0.0186 0.6488 0.0057   -0.147192
 C 0.916 0.5862 0.9961   0.014696
 C 0.0553 0.7131 0.9566   0.6744
 C 0.4565 0.3378 0.0829   0.684212
 C 0.373 0.3483 0.1331   -0.173456
 C 0.3014 0.3997 0.1221   0.00547
 C 0.2225 0.4075 0.1679   -0.127363
 C 0.2201 0.3683 0.2241   -0.021716
 C 0.2928 0.3184 0.2356   -0.180351
 C 0.3685 0.3088 0.189   0.005691
 C 0.2865 0.276 0.2962   0.698017
 C 0.5688 0.1421 0.3243   0.190021
 C 0.6457 0.0997 0.3013   -0.15614
 C 0.6191 0.0226 0.3063   0.030271
 C 0.516 0.9804 0.3382   -0.202618
 C 0.4419 0.0296 0.3607   0.140383
 C 0.9573 0.6042 0.3333   0.174705
 C 0.9933 0.5757 0.2816   -0.190028
 C 0.0751 0.5334 0.2864   0.035345
 C 0.1164 0.5199 0.3433   -0.180869
 C 0.0764 0.5528 0.3933   0.193955
 C 0.1178 0.0882 0.4076   0.691769
 C 0.0162 0.0135 0.4159   -0.171787
 C 0.9037 0.0213 0.4208   -0.009379
 C 0.8096 0.9557 0.4329   -0.128595
 C 0.8262 0.8801 0.4394   -0.015719
 C 0.9404 0.8707 0.4348   -0.159376
 C 0.0345 0.9378 0.422   0.009428
 C 0.9603 0.7887 0.4442   0.66921
 C 0.2772 0.4527 0.4739   0.68531
 C 0.3806 0.523 0.4612   -0.17046
 C 0.4485 0.5257 0.4082   -0.026673
 C 0.5502 0.5895 0.3987   -0.131161
 C 0.5857 0.6501 0.4426   -0.006308
 C 0.5186 0.6488 0.4943   -0.147192
 C 0.416 0.5862 0.5039   0.014696
 C 0.5553 0.7131 0.5434   0.6744
 C 0.9565 0.3378 0.4171   0.684212
 C 0.873 0.3483 0.3669   -0.173456
 C 0.8014 0.3997 0.3779   0.00547
 C 0.7225 0.4075 0.3321   -0.127363
 C 0.7201 0.3683 0.2759   -0.021716
 C 0.7928 0.3184 0.2644   -0.180351
 C 0.8685 0.3088 0.311   0.005691
 C 0.7865 0.276 0.2038   0.698017
 C 0.9312 0.8579 0.8243   0.190021
 C 0.8543 0.9003 0.8013   -0.15614
 C 0.8809 0.9774 0.8063   0.030271
 C 0.984 0.0196 0.8382   -0.202618
 C 0.0581 0.9704 0.8607   0.140383
 C 0.5427 0.3958 0.8333   0.174705
 C 0.5067 0.4243 0.7816   -0.190028
 C 0.4249 0.4666 0.7864   0.035345
 C 0.3836 0.4801 0.8433   -0.180869
 C 0.4236 0.4472 0.8933   0.193955
 C 0.3822 0.9118 0.9076   0.691769
 C 0.4838 0.9865 0.9159   -0.171787
 C 0.5963 0.9787 0.9208   -0.009379
 C 0.6904 0.0443 0.9329   -0.128595
 C 0.6738 0.1199 0.9394   -0.015719
 C 0.5596 0.1293 0.9348   -0.159376
 C 0.4655 0.0622 0.922   0.009428
 C 0.5397 0.2113 0.9442   0.66921
 C 0.2228 0.5473 0.9739   0.68531
 C 0.1194 0.477 0.9612   -0.17046
 C 0.0515 0.4743 0.9082   -0.026673
 C 0.9498 0.4105 0.8987   -0.131161
 C 0.9143 0.3499 0.9426   -0.006308
 C 0.9814 0.3512 0.9943   -0.147192
 C 0.084 0.4138 0.0039   0.014696
 C 0.9447 0.2869 0.0434   0.6744
 C 0.5435 0.6622 0.9171   0.684212
 C 0.627 0.6517 0.8669   -0.173456
 C 0.6986 0.6003 0.8779   0.00547
 C 0.7775 0.5925 0.8321   -0.127363
 C 0.7799 0.6317 0.7759   -0.021716
 C 0.7072 0.6816 0.7644   -0.180351
 C 0.6315 0.6912 0.811   0.005691
 C 0.7135 0.724 0.7038   0.698017
 N 0.5317 0.893 0.6489   -0.308112
 N 0.0037 0.4051 0.61   -0.326921
 N 0.9683 0.107 0.1489   -0.308112
 N 0.4963 0.5949 0.11   -0.326921
 N 0.4683 0.107 0.3511   -0.308112
 N 0.9963 0.5949 0.39   -0.326921
 N 0.0317 0.893 0.8511   -0.308112
 N 0.5037 0.4051 0.89   -0.326921
 O 0.7829 0.921 0.6074   -0.612896
 O 0.9035 0.8449 0.5829   -0.593466
 O 0.9463 0.2236 0.5713   -0.56613
 O 0.1251 0.2684 0.5303   -0.664538
 O 0.7387 0.6067 0.5612   -0.608938
 O 0.789 0.5436 0.4806   -0.592773
 O 0.3375 0.2437 0.4544   -0.643898
 O 0.5177 0.2733 0.4204   -0.562912
 O 0.0421 0.6224 0.5329   -0.592227
 O 0.9835 0.7091 0.5933   -0.583826
 O 0.1519 0.7726 0.8018   -0.607332
 O 0.2758 0.7064 0.8368   -0.592252
 O 0.7171 0.079 0.1074   -0.612896
 O 0.5965 0.1551 0.0829   -0.593466
 O 0.5537 0.7764 0.0713   -0.56613
 O 0.3749 0.7316 0.0303   -0.664538
 O 0.7613 0.3933 0.0612   -0.608938
 O 0.711 0.4564 0.9806   -0.592773
 O 0.1625 0.7563 0.9544   -0.643898
 O 0.9823 0.7267 0.9204   -0.562912
 O 0.4579 0.3776 0.0329   -0.592227
 O 0.5165 0.2909 0.0933   -0.583826
 O 0.3481 0.2274 0.3018   -0.607332
 O 0.2242 0.2936 0.3368   -0.592252
 O 0.2171 0.079 0.3926   -0.612896
 O 0.0965 0.1551 0.4171   -0.593466
 O 0.0537 0.7764 0.4287   -0.56613
 O 0.8749 0.7316 0.4697   -0.664538
 O 0.2613 0.3933 0.4388   -0.608938
 O 0.211 0.4564 0.5194   -0.592773
 O 0.6625 0.7563 0.5456   -0.643898
 O 0.4823 0.7267 0.5796   -0.562912
 O 0.9579 0.3776 0.4671   -0.592227
 O 0.0165 0.2909 0.4067   -0.583826
 O 0.8481 0.2274 0.1982   -0.607332
 O 0.7242 0.2936 0.1632   -0.592252
 O 0.2829 0.921 0.8926   -0.612896
 O 0.4035 0.8449 0.9171   -0.593466
 O 0.4463 0.2236 0.9287   -0.56613
 O 0.6251 0.2684 0.9697   -0.664538
 O 0.2387 0.6067 0.9388   -0.608938
 O 0.289 0.5436 0.0194   -0.592773
 O 0.8375 0.2437 0.0456   -0.643898
 O 0.0177 0.2733 0.0796   -0.562912
 O 0.5421 0.6224 0.9671   -0.592227
 O 0.4835 0.7091 0.9067   -0.583826
 O 0.6519 0.7726 0.6982   -0.607332
 O 0.7758 0.7064 0.6632   -0.592252
