{'_ref': 'TBD', '_srcid': 'CAKYAQ_clean', 'submitters': [{'name': 'Dalar Nazarian Jeff Camp and David Sholl', 'email': 'dalar@gatech.edu jcamp6@gatech.edu'}], '_method': 'VASP DFT with PBE;DDEC'}
data_Cu7H12C16(ClO11)2
_symmetry_space_group_name_H-M   'P 1'
_cell_length_a   10.04300000
_cell_length_b   10.21000000
_cell_length_c   14.11899995
_cell_angle_alpha   92.16000127
_cell_angle_beta   90.00000000
_cell_angle_gamma   90.00000000
_symmetry_Int_Tables_number   1
_chemical_formula_structural   Cu7H12C16(ClO11)2
_chemical_formula_sum   'Cu14 H24 C32 Cl4 O44'
_cell_volume   1446.71989302
_cell_formula_units_Z   2
loop_
 _symmetry_equiv_pos_site_id
 _symmetry_equiv_pos_as_xyz
  1  'x, y, z'
loop_
 _atom_site_label
 _atom_site_fract_x
 _atom_site_fract_y
 _atom_site_fract_z
 _atom_site_charge
 Cu 0.24873 0.92551 0.28577   1.004915
 Cu 0.2325 0.93342 0.78889   1.004694
 Cu 0.8735 0.69948 0.76946   1.020528
 Cu 0.4059 0.65479 0.78232   1.034305
 Cu 0.28175 0.40682 0.66388   0.946225
 Cu 0.26349 0.44215 0.87609   0.968612
 Cu 0.25737 0.43813 0.28781   0.9732
 Cu 0.75127 0.42551 0.28577   1.004915
 Cu 0.7675 0.43342 0.78889   1.004688
 Cu 0.1265 0.19948 0.76946   1.020524
 Cu 0.5941 0.15479 0.78232   1.034303
 Cu 0.71825 0.90682 0.66388   0.946224
 Cu 0.73651 0.94215 0.87609   0.968612
 Cu 0.74263 0.93813 0.28781   0.973201
 H 0.3641 0.7774 0.494   0.123897
 H 0.1749 0.6077 0.5217   0.136032
 H 0.0055 0.7072 0.4504   0.137813
 H 0.0587 0.9697 0.5069   0.112189
 H 0.1254 0.0939 0.0935   0.131195
 H 0.3171 0.2561 0.0537   0.145341
 H 0.4962 0.1501 0.1059   0.139688
 H 0.4288 0.8898 0.0682   0.107768
 H 0.025 0.019 0.848   0.342612
 H 0.927 0.929 0.754   0.428169
 H 0.404 0.849 0.8728   0.41383
 H 0.473 0.418 0.777   0.421298
 H 0.6359 0.2774 0.494   0.123897
 H 0.8251 0.1077 0.5217   0.136033
 H 0.9945 0.2072 0.4504   0.137813
 H 0.9413 0.4697 0.5069   0.11219
 H 0.8746 0.5939 0.0935   0.131195
 H 0.6829 0.7561 0.0537   0.145342
 H 0.5038 0.6501 0.1059   0.139686
 H 0.5712 0.3898 0.0682   0.107767
 H 0.975 0.519 0.848   0.342612
 H 0.073 0.429 0.754   0.428169
 H 0.596 0.349 0.8728   0.413825
 H 0.527 0.918 0.777   0.421293
 C 0.2744 0.7682 0.4637   0.071282
 C 0.1763 0.7051 0.5324   -0.213649
 C 0.0435 0.7649 0.5024   -0.193014
 C 0.0806 0.8975 0.4597   0.05968
 C 0.2844 0.6825 0.3724   0.603173
 C 0.2181 0.7412 0.6328   0.712096
 C 0.9412 0.7758 0.581   0.703404
 C 0.0024 0.9188 0.3692   0.610354
 C 0.2192 0.0982 0.1171   0.067196
 C 0.3099 0.1591 0.0424   -0.203231
 C 0.4444 0.0918 0.0609   -0.188755
 C 0.4094 0.966 0.1126   0.055306
 C 0.2252 0.1785 0.2107   0.6177
 C 0.2582 0.1264 0.9436   0.720869
 C 0.5298 0.0663 0.9728   0.682727
 C 0.4917 0.9488 0.2017   0.603613
 C 0.7256 0.2682 0.4637   0.071282
 C 0.8237 0.2051 0.5324   -0.213649
 C 0.9565 0.2649 0.5024   -0.193014
 C 0.9194 0.3975 0.4597   0.059679
 C 0.7156 0.1825 0.3724   0.603172
 C 0.7819 0.2412 0.6328   0.712096
 C 0.0588 0.2758 0.581   0.703404
 C 0.9976 0.4188 0.3692   0.610353
 C 0.7808 0.5982 0.1171   0.067197
 C 0.6901 0.6591 0.0424   -0.203231
 C 0.5556 0.5918 0.0609   -0.188754
 C 0.5906 0.466 0.1126   0.055306
 C 0.7748 0.6785 0.2107   0.617697
 C 0.7418 0.6264 0.9436   0.720869
 C 0.4702 0.5663 0.9728   0.682727
 C 0.5083 0.4488 0.2017   0.60361
 Cl 0.11134 0.54715 0.96255   -0.513858
 Cl 0.62796 0.64913 0.69117   -0.642524
 Cl 0.88866 0.04715 0.96255   -0.513862
 Cl 0.37204 0.14913 0.69117   -0.642524
 O 0.2212 0.8954 0.445   -0.306887
 O 0.2441 0.7277 0.2963   -0.569964
 O 0.3272 0.5674 0.38188   -0.518972
 O 0.2784 0.6518 0.6755   -0.646025
 O 0.1947 0.8555 0.66421   -0.534628
 O 0.9535 0.694 0.64498   -0.557615
 O 0.8536 0.8622 0.57404   -0.567655
 O 0.8791 0.9189 0.38045   -0.537401
 O 0.0587 0.9392 0.293   -0.543586
 O 0.0671 0.0243 0.78683   -0.847864
 O 0.8455 0.887 0.76809   -0.914244
 O 0.2695 0.9678 0.12938   -0.303423
 O 0.2578 0.1234 0.2847   -0.562544
 O 0.1988 0.2985 0.20365   -0.533613
 O 0.2106 0.2164 0.8962   -0.620455
 O 0.2679 0.0067 0.91634   -0.573014
 O 0.5271 0.1551 0.91423   -0.5955
 O 0.5954 0.9615 0.96732   -0.546841
 O 0.6133 0.9718 0.1916   -0.51805
 O 0.4389 0.9122 0.27569   -0.555957
 O 0.3928 0.8387 0.80648   -0.868614
 O 0.3914 0.4659 0.76816   -0.921819
 O 0.7788 0.3954 0.445   -0.306887
 O 0.7559 0.2277 0.2963   -0.569962
 O 0.6728 0.0674 0.38188   -0.518971
 O 0.7216 0.1518 0.6755   -0.646025
 O 0.8053 0.3555 0.66421   -0.534627
 O 0.0465 0.194 0.64498   -0.557617
 O 0.1464 0.3622 0.57404   -0.567656
 O 0.1209 0.4189 0.38045   -0.537394
 O 0.9413 0.4392 0.293   -0.543589
 O 0.9329 0.5243 0.78683   -0.847866
 O 0.1545 0.387 0.76809   -0.914244
 O 0.7305 0.4678 0.12938   -0.303423
 O 0.7422 0.6234 0.2847   -0.562543
 O 0.8012 0.7985 0.20365   -0.533606
 O 0.7894 0.7164 0.8962   -0.620455
 O 0.7321 0.5067 0.91634   -0.573014
 O 0.4729 0.6551 0.91423   -0.595503
 O 0.4046 0.4615 0.96732   -0.546841
 O 0.3867 0.4718 0.1916   -0.51804
 O 0.5611 0.4122 0.27569   -0.555959
 O 0.6072 0.3387 0.80648   -0.868614
 O 0.6086 0.9659 0.76816   -0.921816
