{'_ref': 'TBD', '_srcid': 'CAKYAQ_clean', 'submitters': [{'name': 'Dalar Nazarian Jeff Camp and David Sholl', 'email': 'dalar@gatech.edu jcamp6@gatech.edu'}], '_method': 'VASP DFT with PBE;DDEC'}
data_CdH8C8(NO3)2
_symmetry_space_group_name_H-M   'P 1'
_cell_length_a   9.54999990
_cell_length_b   13.29999959
_cell_length_c   13.37700000
_cell_angle_alpha   61.82000037
_cell_angle_beta   69.88000253
_cell_angle_gamma   76.10000294
_symmetry_Int_Tables_number   1
_chemical_formula_structural   CdH8C8(NO3)2
_chemical_formula_sum   'Cd3 H24 C24 N6 O18'
_cell_volume   1400.06386469
_cell_formula_units_Z   3
loop_
 _symmetry_equiv_pos_site_id
 _symmetry_equiv_pos_as_xyz
  1  'x, y, z'
loop_
 _atom_site_label
 _atom_site_fract_x
 _atom_site_fract_y
 _atom_site_fract_z
 _atom_site_charge
 Cd 0.3731 0.89267 0.09513   1.108234
 Cd 0.6269 0.10733 0.90487   1.108235
 Cd 0.0 0.0 0.0   1.278489
 H 0.3787 0.6133 0.9511   0.081005
 H 0.435 0.7189 0.8321   0.08825
 H 0.1949 0.8162 0.8608   0.145168
 H 0.1422 0.7112 0.9816   0.143759
 H 0.4365 0.7315 0.4862   0.085268
 H 0.3917 0.6248 0.4878   0.080631
 H 0.1954 0.8186 0.4868   0.142192
 H 0.1498 0.7118 0.4893   0.143328
 H 0.0997 0.3517 0.9659   0.072592
 H 0.1083 0.3523 0.8461   0.079815
 H 0.3645 0.2916 0.8215   0.16278
 H 0.3516 0.2869 0.9435   0.154318
 H 0.6213 0.3867 0.0489   0.081005
 H 0.565 0.2811 0.1679   0.088251
 H 0.8051 0.1838 0.1392   0.145168
 H 0.8578 0.2888 0.0184   0.143758
 H 0.5635 0.2685 0.5138   0.085269
 H 0.6083 0.3752 0.5122   0.080631
 H 0.8046 0.1814 0.5132   0.1422
 H 0.8502 0.2882 0.5107   0.143328
 H 0.9003 0.6483 0.0341   0.072592
 H 0.8917 0.6477 0.1539   0.079814
 H 0.6355 0.7084 0.1785   0.16278
 H 0.6484 0.7131 0.0565   0.154319
 C 0.2386 0.5273 0.8884   0.639685
 C 0.3325 0.6879 0.701   0.628742
 C 0.2541 0.5263 0.7022   0.628852
 C 0.3485 0.6767 0.8844   0.092213
 C 0.2275 0.754 0.9271   -0.394398
 C 0.2809 0.8029 0.9876   0.774188
 C 0.3547 0.6853 0.514   0.092182
 C 0.2318 0.7581 0.4607   -0.370416
 C 0.2759 0.8103 0.3306   0.763389
 C 0.1646 0.3624 0.8883   0.107484
 C 0.2981 0.2766 0.8995   -0.441522
 C 0.2618 0.1525 0.9602   0.841744
 C 0.7614 0.4727 0.1116   0.639685
 C 0.6675 0.3121 0.299   0.628742
 C 0.7459 0.4737 0.2978   0.628852
 C 0.6515 0.3233 0.1156   0.092213
 C 0.7725 0.246 0.0729   -0.394397
 C 0.7191 0.1971 0.0124   0.774188
 C 0.6453 0.3147 0.486   0.092182
 C 0.7682 0.2419 0.5393   -0.370419
 C 0.7241 0.1897 0.6694   0.763389
 C 0.8354 0.6376 0.1117   0.107485
 C 0.7019 0.7234 0.1005   -0.441523
 C 0.7382 0.8475 0.0398   0.841744
 N 0.2153 0.4795 0.8235   -0.33582
 N 0.3001 0.6309 0.8212   -0.33105
 N 0.3079 0.6334 0.644   -0.326989
 N 0.7847 0.5205 0.1765   -0.33582
 N 0.6999 0.3691 0.1788   -0.33105
 N 0.6921 0.3666 0.356   -0.326989
 O 0.2092 0.4822 0.9928   -0.512453
 O 0.3836 0.7794 0.645   -0.52296
 O 0.2411 0.4791 0.6487   -0.512119
 O 0.4084 0.7746 0.0019   -0.569181
 O 0.4066 0.7896 0.2767   -0.651882
 O 0.1849 0.8707 0.2732   -0.679613
 O 0.376 0.0789 0.9804   -0.703124
 O 0.1376 0.1313 0.9847   -0.634228
 O 0.1958 0.871 0.0253   -0.709314
 O 0.7908 0.5178 0.0072   -0.512453
 O 0.6164 0.2206 0.355   -0.522957
 O 0.7589 0.5209 0.3513   -0.512119
 O 0.5916 0.2254 0.9981   -0.569181
 O 0.5934 0.2104 0.7233   -0.651882
 O 0.8151 0.1293 0.7268   -0.679614
 O 0.624 0.9211 0.0196   -0.703124
 O 0.8624 0.8687 0.0153   -0.634228
 O 0.8042 0.129 0.9747   -0.709314
