{'_ref': 'TBD', '_srcid': 'CAKYAQ_clean', 'submitters': [{'name': 'Dalar Nazarian Jeff Camp and David Sholl', 'email': 'dalar@gatech.edu jcamp6@gatech.edu'}], '_method': 'VASP DFT with PBE;DDEC'}
data_FeH6(C3O)4
_symmetry_space_group_name_H-M   'P 1'
_cell_length_a   4.72970047
_cell_length_b   11.18359996
_cell_length_c   11.96082506
_cell_angle_alpha   117.87232298
_cell_angle_beta   92.55301113
_cell_angle_gamma   89.99999908
_symmetry_Int_Tables_number   1
_chemical_formula_structural   FeH6(C3O)4
_chemical_formula_sum   'Fe2 H12 C24 O8'
_cell_volume   558.563386299
_cell_formula_units_Z   2
loop_
 _symmetry_equiv_pos_site_id
 _symmetry_equiv_pos_as_xyz
  1  'x, y, z'
loop_
 _atom_site_label
 _atom_site_fract_x
 _atom_site_fract_y
 _atom_site_fract_z
 _atom_site_charge
 Fe 0.25 0.41778 0.0   1.058133
 Fe 0.75 0.58222 0.0   1.05814
 H 0.5317 0.004 0.7126   0.109214
 H 0.6552 0.8301 0.5278   0.098673
 H 0.0798 0.2561 0.673   0.10915
 H 0.9683 0.2914 0.2874   0.109172
 H 0.8448 0.3023 0.4722   0.098368
 H 0.4202 0.5831 0.327   0.109124
 H 0.4683 0.996 0.2874   0.109217
 H 0.3448 0.1699 0.4722   0.098662
 H 0.9202 0.7439 0.327   0.109151
 H 0.0317 0.7086 0.7126   0.109175
 H 0.1552 0.6977 0.5278   0.098358
 H 0.5798 0.4169 0.673   0.109125
 C 0.7066 0.26632 0.83164   0.702902
 C 0.7939 0.14966 0.71072   -0.142153
 C 0.6656 0.01992 0.66684   -0.043478
 C 0.737 0.91563 0.55386   -0.122424
 C 0.9358 0.93485 0.4781   0.033286
 C 0.9915 0.17123 0.64046   -0.067757
 C 0.7934 0.43468 0.16836   0.703376
 C 0.7061 0.43894 0.28928   -0.142109
 C 0.8344 0.35308 0.33316   -0.043772
 C 0.763 0.36177 0.44614   -0.122223
 C 0.5642 0.45675 0.5219   0.03339
 C 0.5085 0.53077 0.35954   -0.067309
 C 0.2934 0.73368 0.16836   0.702901
 C 0.2061 0.85034 0.28928   -0.142145
 C 0.3344 0.98008 0.33316   -0.043489
 C 0.263 0.08437 0.44614   -0.122419
 C 0.0642 0.06515 0.5219   0.033226
 C 0.0085 0.82877 0.35954   -0.067794
 C 0.2066 0.56532 0.83164   0.703374
 C 0.2939 0.56106 0.71072   -0.142101
 C 0.1656 0.64692 0.66684   -0.043783
 C 0.237 0.63823 0.55386   -0.122219
 C 0.4358 0.54325 0.4781   0.03333
 C 0.4915 0.46923 0.64046   -0.067346
 O 0.87 0.3713 0.88072   -0.657598
 O 0.4747 0.25695 0.8743   -0.548895
 O 0.63 0.49058 0.11928   -0.657674
 O 0.0253 0.38265 0.1257   -0.549297
 O 0.13 0.6287 0.11928   -0.657596
 O 0.5253 0.74305 0.1257   -0.548895
 O 0.37 0.50942 0.88072   -0.657673
 O 0.9747 0.61735 0.8743   -0.549297
