{'_ref': 'TBD', '_srcid': 'CAKYAQ_clean', 'submitters': [{'name': 'Dalar Nazarian Jeff Camp and David Sholl', 'email': 'dalar@gatech.edu jcamp6@gatech.edu'}], '_method': 'VASP DFT with PBE;DDEC'}
data_ZnH9C17O4
_symmetry_space_group_name_H-M   'P 1'
_cell_length_a   9.29450021
_cell_length_b   19.43050014
_cell_length_c   19.43050000
_cell_angle_alpha   67.72910163
_cell_angle_beta   76.16229960
_cell_angle_gamma   76.16240173
_symmetry_Int_Tables_number   1
_chemical_formula_structural   ZnH9C17O4
_chemical_formula_sum   'Zn4 H36 C68 O16'
_cell_volume   3109.69507653
_cell_formula_units_Z   4
loop_
 _symmetry_equiv_pos_site_id
 _symmetry_equiv_pos_as_xyz
  1  'x, y, z'
loop_
 _atom_site_label
 _atom_site_fract_x
 _atom_site_fract_y
 _atom_site_fract_z
 _atom_site_charge
 Zn 0.63876 0.51401 0.51401   1.156193
 Zn 0.16678 0.98599 0.98599   1.155989
 Zn 0.83322 0.01401 0.01401   1.15599
 Zn 0.36124 0.48599 0.48599   1.156193
 H 0.8931 0.551 0.2864   0.104435
 H 0.0137 0.5488 0.1674   0.116162
 H 0.6478 0.4865 0.1415   0.113525
 H 0.5275 0.4928 0.259   0.101425
 H 0.2305 0.949 0.2136   0.104275
 H 0.2299 0.9512 0.3326   0.116658
 H 0.7758 0.0135 0.3585   0.113447
 H 0.7793 0.0072 0.241   0.101709
 H 0.7695 0.7864 0.051   0.104275
 H 0.7701 0.6674 0.0488   0.116657
 H 0.2242 0.6415 0.9865   0.113441
 H 0.2207 0.759 0.9928   0.101733
 H 0.1069 0.7136 0.449   0.104432
 H 0.9863 0.8326 0.4512   0.116164
 H 0.3522 0.8585 0.5135   0.113526
 H 0.4725 0.741 0.5072   0.10142
 H 0.1069 0.449 0.7136   0.104435
 H 0.9863 0.4512 0.8326   0.116162
 H 0.3522 0.5135 0.8585   0.113525
 H 0.4725 0.5072 0.741   0.101425
 H 0.7695 0.051 0.7864   0.104275
 H 0.7701 0.0488 0.6674   0.116657
 H 0.2242 0.9865 0.6415   0.113447
 H 0.2207 0.9928 0.759   0.101709
 H 0.2305 0.2136 0.949   0.104275
 H 0.2299 0.3326 0.9512   0.116657
 H 0.7758 0.3585 0.0135   0.113441
 H 0.7793 0.241 0.0072   0.101733
 H 0.8931 0.2864 0.551   0.104432
 H 0.0137 0.1674 0.5488   0.116164
 H 0.6478 0.1415 0.4865   0.113526
 H 0.5275 0.259 0.4928   0.10142
 H 0.8651 0.4099 0.0901   0.107678
 H 0.8651 0.0901 0.4099   0.107678
 H 0.1349 0.5901 0.9099   0.107678
 H 0.1349 0.9099 0.5901   0.107678
 C 0.62433 0.52197 0.36237   0.735086
 C 0.69757 0.52223 0.28443   -0.160933
 C 0.84294 0.53859 0.25653   -0.024527
 C 0.91515 0.53685 0.18625   -0.156173
 C 0.84003 0.51717 0.14217   0.073281
 C 0.69787 0.50033 0.17033   -0.163351
 C 0.62679 0.50361 0.24061   -0.020194
 C 0.92185 0.51055 0.06815   0.008073
 C 0.00867 0.97803 0.13763   0.735392
 C 0.00423 0.97777 0.21557   -0.161774
 C 0.13806 0.96141 0.24347   -0.024963
 C 0.13825 0.96315 0.31375   -0.156712
 C 0.99937 0.98283 0.35783   0.07457
 C 0.86853 0.99967 0.32967   -0.164171
 C 0.87101 0.99639 0.25939   -0.019736
 C 0.000549999999997 0.98945 0.43185   0.008439
 C 0.99133 0.86237 0.02197   0.735341
 C 0.99577 0.78443 0.02223   -0.161757
 C 0.86194 0.75653 0.03859   -0.02497
 C 0.86175 0.68625 0.03685   -0.156708
 C 0.000630000000001 0.64217 0.01717   0.074569
 C 0.13147 0.67033 0.000329999999998   -0.16414
 C 0.12899 0.74061 0.00361   -0.01979
 C 0.99945 0.56815 0.01055   0.008439
 C 0.37567 0.63763 0.47803   0.735087
 C 0.30243 0.71557 0.47777   -0.160949
 C 0.15706 0.74347 0.46141   -0.024513
 C 0.08485 0.81375 0.46315   -0.15618
 C 0.15997 0.85783 0.48283   0.073282
 C 0.30213 0.82967 0.49967   -0.163353
 C 0.37321 0.75939 0.49639   -0.020182
 C 0.07815 0.93185 0.48945   0.008073
 C 0.37567 0.47803 0.63763   0.735086
 C 0.30243 0.47777 0.71557   -0.160933
 C 0.15706 0.46141 0.74347   -0.024526
 C 0.08485 0.46315 0.81375   -0.156173
 C 0.15997 0.48283 0.85783   0.073281
 C 0.30213 0.49967 0.82967   -0.16335
 C 0.37321 0.49639 0.75939   -0.020194
 C 0.07815 0.48945 0.93185   0.008073
 C 0.99133 0.02197 0.86237   0.735392
 C 0.99577 0.02223 0.78443   -0.161774
 C 0.86194 0.03859 0.75653   -0.024963
 C 0.86175 0.03685 0.68625   -0.156712
 C 0.000630000000001 0.01717 0.64217   0.07457
 C 0.13147 0.000329999999998 0.67033   -0.164171
 C 0.12899 0.00361 0.74061   -0.019736
 C 0.99945 0.01055 0.56815   0.008439
 C 0.00867 0.13763 0.97803   0.735341
 C 0.00423 0.21557 0.97777   -0.161757
 C 0.13806 0.24347 0.96141   -0.02497
 C 0.13825 0.31375 0.96315   -0.156708
 C 0.99937 0.35783 0.98283   0.074569
 C 0.86853 0.32967 0.99967   -0.164139
 C 0.87101 0.25939 0.99639   -0.01979
 C 0.000549999999997 0.43185 0.98945   0.008439
 C 0.62433 0.36237 0.52197   0.735087
 C 0.69757 0.28443 0.52223   -0.160949
 C 0.84294 0.25653 0.53859   -0.024512
 C 0.91515 0.18625 0.53685   -0.15618
 C 0.84003 0.14217 0.51717   0.073282
 C 0.69787 0.17033 0.50033   -0.163353
 C 0.62679 0.24061 0.50361   -0.020181
 C 0.92185 0.06815 0.51055   0.008073
 C 0.9222 0.4463 0.0537   -0.150634
 C 0.9222 0.0537 0.4463   -0.150633
 C 0.0778 0.5537 0.9463   -0.150634
 C 0.0778 0.9463 0.5537   -0.150633
 O 0.70207 0.53039 0.40167   -0.63287
 O 0.49069 0.51108 0.38134   -0.650824
 O 0.13413 0.96961 0.09833   -0.6329
 O 0.88311 0.98892 0.11866   -0.650486
 O 0.86587 0.90167 0.03039   -0.632865
 O 0.11689 0.88134 0.01108   -0.650474
 O 0.29793 0.59833 0.46961   -0.632866
 O 0.50931 0.61866 0.48892   -0.650826
 O 0.29793 0.46961 0.59833   -0.63287
 O 0.50931 0.48892 0.61866   -0.650823
 O 0.86587 0.03039 0.90167   -0.6329
 O 0.11689 0.01108 0.88134   -0.650486
 O 0.13413 0.09833 0.96961   -0.632865
 O 0.88311 0.11866 0.98892   -0.650474
 O 0.70207 0.40167 0.53039   -0.632866
 O 0.49069 0.38134 0.51108   -0.650826
