{'_ref': 'TBD', '_srcid': 'CAKYAQ_clean', 'submitters': [{'name': 'Dalar Nazarian Jeff Camp and David Sholl', 'email': 'dalar@gatech.edu jcamp6@gatech.edu'}], '_method': 'VASP DFT with PBE;DDEC'}
data_AgH3(CN)3
_symmetry_space_group_name_H-M   'P 1'
_cell_length_a   8.22210000
_cell_length_b   9.44100000
_cell_length_c   11.93200000
_cell_angle_alpha   90.00000000
_cell_angle_beta   90.00000000
_cell_angle_gamma   90.00000000
_symmetry_Int_Tables_number   1
_chemical_formula_structural   AgH3(CN)3
_chemical_formula_sum   'Ag4 H12 C12 N12'
_cell_volume   926.219663665
_cell_formula_units_Z   4
loop_
 _symmetry_equiv_pos_site_id
 _symmetry_equiv_pos_as_xyz
  1  'x, y, z'
loop_
 _atom_site_label
 _atom_site_fract_x
 _atom_site_fract_y
 _atom_site_fract_z
 _atom_site_charge
 Ag 0.2946 0.1106 0.1818   0.358354
 Ag 0.7946 0.8894 0.8182   0.358354
 Ag 0.2946 0.3894 0.6818   0.358354
 Ag 0.7946 0.6106 0.3182   0.358354
 H 0.2672 0.2093 0.4447   0.030265
 H 0.5615 0.321 0.2069   0.048136
 H 0.5409 0.5351 0.5169   0.034008
 H 0.7672 0.7907 0.5553   0.030267
 H 0.0615 0.679 0.7931   0.048136
 H 0.0409 0.4649 0.4831   0.03401
 H 0.2672 0.2907 0.9447   0.030267
 H 0.5615 0.179 0.7069   0.048138
 H 0.5409 0.9649 0.0169   0.034008
 H 0.7672 0.7093 0.0553   0.030269
 H 0.0615 0.821 0.2931   0.048138
 H 0.0409 0.0351 0.9831   0.03401
 C 0.5261 0.3505 0.2871   0.277967
 C 0.3503 0.271 0.418   0.275363
 C 0.5239 0.4453 0.461   0.316288
 C 0.0261 0.6495 0.7129   0.277967
 C 0.8503 0.729 0.582   0.275363
 C 0.0239 0.5547 0.539   0.316287
 C 0.5261 0.1495 0.7871   0.277968
 C 0.3503 0.229 0.918   0.275363
 C 0.5239 0.0547 0.961   0.316288
 C 0.0261 0.8505 0.2129   0.277968
 C 0.8503 0.771 0.082   0.275362
 C 0.0239 0.9453 0.039   0.316287
 N 0.4043 0.2632 0.3131   -0.436011
 N 0.4069 0.1398 0.9948   -0.446977
 N 0.0906 0.9455 0.1403   -0.457397
 N 0.9043 0.7368 0.6869   -0.436011
 N 0.9069 0.8602 0.0052   -0.446976
 N 0.5906 0.0545 0.8597   -0.457397
 N 0.4043 0.2368 0.8131   -0.436011
 N 0.4069 0.3602 0.4948   -0.446977
 N 0.0906 0.5545 0.6403   -0.457397
 N 0.9043 0.7632 0.1869   -0.436011
 N 0.9069 0.6398 0.5052   -0.446977
 N 0.5906 0.4455 0.3597   -0.457397
