{'_ref': 'TBD', '_srcid': 'CAKYAQ_clean', 'submitters': [{'name': 'Dalar Nazarian Jeff Camp and David Sholl', 'email': 'dalar@gatech.edu jcamp6@gatech.edu'}], '_method': 'VASP DFT with PBE;DDEC'}
data_ZnH10(C2N)4
_symmetry_space_group_name_H-M   'P 1'
_cell_length_a   17.07100000
_cell_length_b   17.07100000
_cell_length_c   17.07100000
_cell_angle_alpha   90.00000000
_cell_angle_beta   90.00000000
_cell_angle_gamma   90.00000000
_symmetry_Int_Tables_number   1
_chemical_formula_structural   ZnH10(C2N)4
_chemical_formula_sum   'Zn12 H120 C96 N48'
_cell_volume   4974.81444891
_cell_formula_units_Z   12
loop_
 _symmetry_equiv_pos_site_id
 _symmetry_equiv_pos_as_xyz
  1  'x, y, z'
loop_
 _atom_site_label
 _atom_site_fract_x
 _atom_site_fract_y
 _atom_site_fract_z
 _atom_site_charge
 Zn 0.5 0.0 0.75   0.789962
 Zn 0.0 0.5 0.25   0.789962
 Zn 0.0 0.75 0.5   0.78996
 Zn 0.5 0.25 0.0   0.78996
 Zn 0.75 0.5 0.0   0.789961
 Zn 0.25 0.0 0.5   0.789961
 Zn 0.75 0.0 0.5   0.789961
 Zn 0.25 0.5 0.0   0.789961
 Zn 0.5 0.0 0.25   0.789961
 Zn 0.0 0.5 0.75   0.789961
 Zn 0.0 0.25 0.5   0.789961
 Zn 0.5 0.75 0.0   0.789961
 H 0.4181 0.8472 0.6817   0.09786
 H 0.9181 0.3472 0.1817   0.09786
 H 0.8472 0.6817 0.4181   0.09786
 H 0.3472 0.1817 0.9181   0.09786
 H 0.6817 0.4181 0.8472   0.09786
 H 0.1817 0.9181 0.3472   0.09786
 H 0.8472 0.5819 0.3183   0.097854
 H 0.3472 0.0819 0.8183   0.097854
 H 0.6817 0.1528 0.5819   0.09786
 H 0.1817 0.6528 0.0819   0.09786
 H 0.4181 0.3183 0.1528   0.09786
 H 0.9181 0.8183 0.6528   0.09786
 H 0.5819 0.1528 0.6817   0.097854
 H 0.0819 0.6528 0.1817   0.097854
 H 0.3183 0.4181 0.1528   0.097854
 H 0.8183 0.9181 0.6528   0.097854
 H 0.5819 0.8472 0.3183   0.09786
 H 0.0819 0.3472 0.8183   0.09786
 H 0.1528 0.3183 0.4181   0.09786
 H 0.6528 0.8183 0.9181   0.09786
 H 0.3183 0.5819 0.8472   0.09786
 H 0.8183 0.0819 0.3472   0.09786
 H 0.1528 0.4181 0.3183   0.097855
 H 0.6528 0.9181 0.8183   0.097855
 H 0.3183 0.8472 0.5819   0.097854
 H 0.8183 0.3472 0.0819   0.097854
 H 0.5819 0.6817 0.1528   0.097861
 H 0.0819 0.1817 0.6528   0.097861
 H 0.1528 0.6817 0.5819   0.097861
 H 0.6528 0.1817 0.0819   0.097861
 H 0.6817 0.8472 0.4181   0.097855
 H 0.1817 0.3472 0.9181   0.097855
 H 0.4181 0.6817 0.8472   0.097855
 H 0.9181 0.1817 0.3472   0.097855
 H 0.8472 0.4181 0.6817   0.097861
 H 0.3472 0.9181 0.1817   0.097861
 H 0.8472 0.3183 0.5819   0.097855
 H 0.3472 0.8183 0.0819   0.097855
 H 0.1528 0.5819 0.6817   0.097855
 H 0.6528 0.0819 0.1817   0.097855
 H 0.3183 0.1528 0.4181   0.097861
 H 0.8183 0.6528 0.9181   0.097861
 H 0.5819 0.3183 0.8472   0.097855
 H 0.0819 0.8183 0.3472   0.097855
 H 0.4181 0.1528 0.3183   0.097855
 H 0.9181 0.6528 0.8183   0.097855
 H 0.6817 0.5819 0.1528   0.097855
 H 0.1817 0.0819 0.6528   0.097855
 H 0.4043 0.1168 0.5957   0.139888
 H 0.9043 0.6168 0.0957   0.139888
 H 0.1168 0.5957 0.4043   0.139888
 H 0.6168 0.0957 0.9043   0.139888
 H 0.5957 0.4043 0.1168   0.139888
 H 0.0957 0.9043 0.6168   0.139888
 H 0.5957 0.8832 0.5957   0.139888
 H 0.0957 0.3832 0.0957   0.139888
 H 0.4043 0.4043 0.8832   0.139888
 H 0.9043 0.9043 0.3832   0.139888
 H 0.5957 0.1168 0.4043   0.139887
 H 0.0957 0.6168 0.9043   0.139887
 H 0.8832 0.4043 0.4043   0.139888
 H 0.3832 0.9043 0.9043   0.139888
 H 0.4043 0.5957 0.1168   0.139887
 H 0.9043 0.0957 0.6168   0.139887
 H 0.5957 0.5957 0.8832   0.139887
 H 0.0957 0.0957 0.3832   0.139887
 H 0.8832 0.5957 0.5957   0.139888
 H 0.3832 0.0957 0.0957   0.139888
 H 0.1168 0.4043 0.5957   0.139887
 H 0.6168 0.9043 0.0957   0.139887
 H 0.4043 0.8832 0.4043   0.139887
 H 0.9043 0.3832 0.9043   0.139887
 H 0.3158 0.1186 0.6196   0.132035
 H 0.8158 0.6186 0.1196   0.132035
 H 0.1186 0.6196 0.3158   0.132035
 H 0.6186 0.1196 0.8158   0.132035
 H 0.6196 0.3158 0.1186   0.132036
 H 0.1196 0.8158 0.6186   0.132036
 H 0.1186 0.6842 0.3804   0.132035
 H 0.6186 0.1842 0.8804   0.132035
 H 0.6196 0.8814 0.6842   0.132035
 H 0.1196 0.3814 0.1842   0.132035
 H 0.3158 0.3804 0.8814   0.132035
 H 0.8158 0.8804 0.3814   0.132035
 H 0.6842 0.8814 0.6196   0.132035
 H 0.1842 0.3814 0.1196   0.132035
 H 0.3804 0.3158 0.8814   0.132036
 H 0.8804 0.8158 0.3814   0.132036
 H 0.6842 0.1186 0.3804   0.132036
 H 0.1842 0.6186 0.8804   0.132036
 H 0.8814 0.3804 0.3158   0.132036
 H 0.3814 0.8804 0.8158   0.132036
 H 0.3804 0.6842 0.1186   0.132035
 H 0.8804 0.1842 0.6186   0.132035
 H 0.8814 0.3158 0.3804   0.132036
 H 0.3814 0.8158 0.8804   0.132036
 H 0.3804 0.1186 0.6842   0.132035
 H 0.8804 0.6186 0.1842   0.132035
 H 0.6842 0.6196 0.8814   0.132036
 H 0.1842 0.1196 0.3814   0.132036
 H 0.8814 0.6196 0.6842   0.132035
 H 0.3814 0.1196 0.1842   0.132035
 H 0.6196 0.1186 0.3158   0.132035
 H 0.1196 0.6186 0.8158   0.132035
 H 0.3158 0.6196 0.1186   0.132037
 H 0.8158 0.1196 0.6186   0.132037
 H 0.1186 0.3158 0.6196   0.132037
 H 0.6186 0.8158 0.1196   0.132037
 H 0.1186 0.3804 0.6842   0.132037
 H 0.6186 0.8804 0.1842   0.132037
 H 0.8814 0.6842 0.6196   0.132037
 H 0.3814 0.1842 0.1196   0.132037
 H 0.3804 0.8814 0.3158   0.132037
 H 0.8804 0.3814 0.8158   0.132037
 H 0.6842 0.3804 0.1186   0.132036
 H 0.1842 0.8804 0.6186   0.132036
 H 0.3158 0.8814 0.3804   0.132037
 H 0.8158 0.3814 0.8804   0.132037
 H 0.6196 0.6842 0.8814   0.132037
 H 0.1196 0.1842 0.3814   0.132037
 C 0.3647 0.011 0.6353   0.452307
 C 0.8647 0.511 0.1353   0.452307
 C 0.011 0.6353 0.3647   0.452307
 C 0.511 0.1353 0.8647   0.452307
 C 0.6353 0.3647 0.011   0.452307
 C 0.1353 0.8647 0.511   0.452307
 C 0.6353 0.989 0.6353   0.452307
 C 0.1353 0.489 0.1353   0.452307
 C 0.3647 0.3647 0.989   0.452307
 C 0.8647 0.8647 0.489   0.452307
 C 0.6353 0.011 0.3647   0.452307
 C 0.1353 0.511 0.8647   0.452307
 C 0.989 0.3647 0.3647   0.452307
 C 0.489 0.8647 0.8647   0.452307
 C 0.3647 0.6353 0.011   0.452307
 C 0.8647 0.1353 0.511   0.452307
 C 0.6353 0.6353 0.989   0.452307
 C 0.1353 0.1353 0.489   0.452307
 C 0.989 0.6353 0.6353   0.452307
 C 0.489 0.1353 0.1353   0.452307
 C 0.011 0.3647 0.6353   0.452307
 C 0.511 0.8647 0.1353   0.452307
 C 0.3647 0.989 0.3647   0.452307
 C 0.8647 0.489 0.8647   0.452307
 C 0.3944 0.8915 0.6607   -0.032561
 C 0.8944 0.3915 0.1607   -0.032561
 C 0.8915 0.6607 0.3944   -0.032562
 C 0.3915 0.1607 0.8944   -0.032562
 C 0.6607 0.3944 0.8915   -0.032561
 C 0.1607 0.8944 0.3915   -0.032561
 C 0.8915 0.6056 0.3393   -0.032495
 C 0.3915 0.1056 0.8393   -0.032495
 C 0.6607 0.1085 0.6056   -0.032562
 C 0.1607 0.6085 0.1056   -0.032562
 C 0.3944 0.3393 0.1085   -0.032562
 C 0.8944 0.8393 0.6085   -0.032562
 C 0.6056 0.1085 0.6607   -0.032495
 C 0.1056 0.6085 0.1607   -0.032495
 C 0.3393 0.3944 0.1085   -0.032495
 C 0.8393 0.8944 0.6085   -0.032495
 C 0.6056 0.8915 0.3393   -0.032561
 C 0.1056 0.3915 0.8393   -0.032561
 C 0.1085 0.3393 0.3944   -0.032561
 C 0.6085 0.8393 0.8944   -0.032561
 C 0.3393 0.6056 0.8915   -0.032562
 C 0.8393 0.1056 0.3915   -0.032562
 C 0.1085 0.3944 0.3393   -0.032496
 C 0.6085 0.8944 0.8393   -0.032496
 C 0.3393 0.8915 0.6056   -0.032495
 C 0.8393 0.3915 0.1056   -0.032495
 C 0.6056 0.6607 0.1085   -0.032562
 C 0.1056 0.1607 0.6085   -0.032562
 C 0.1085 0.6607 0.6056   -0.032562
 C 0.6085 0.1607 0.1056   -0.032562
 C 0.6607 0.8915 0.3944   -0.032496
 C 0.1607 0.3915 0.8944   -0.032496
 C 0.3944 0.6607 0.8915   -0.032496
 C 0.8944 0.1607 0.3915   -0.032496
 C 0.8915 0.3944 0.6607   -0.032562
 C 0.3915 0.8944 0.1607   -0.032562
 C 0.8915 0.3393 0.6056   -0.032496
 C 0.3915 0.8393 0.1056   -0.032496
 C 0.1085 0.6056 0.6607   -0.032496
 C 0.6085 0.1056 0.1607   -0.032496
 C 0.3393 0.1085 0.3944   -0.032562
 C 0.8393 0.6085 0.8944   -0.032562
 C 0.6056 0.3393 0.8915   -0.032496
 C 0.1056 0.8393 0.3915   -0.032496
 C 0.3944 0.1085 0.3393   -0.032496
 C 0.8944 0.6085 0.8393   -0.032496
 C 0.6607 0.6056 0.1085   -0.032496
 C 0.1607 0.1056 0.6085   -0.032496
 C 0.3666 0.0989 0.6334   -0.444399
 C 0.8666 0.5989 0.1334   -0.444399
 C 0.0989 0.6334 0.3666   -0.444399
 C 0.5989 0.1334 0.8666   -0.444399
 C 0.6334 0.3666 0.0989   -0.4444
 C 0.1334 0.8666 0.5989   -0.4444
 C 0.6334 0.9011 0.6334   -0.444399
 C 0.1334 0.4011 0.1334   -0.444399
 C 0.3666 0.3666 0.9011   -0.444399
 C 0.8666 0.8666 0.4011   -0.444399
 C 0.6334 0.0989 0.3666   -0.444399
 C 0.1334 0.5989 0.8666   -0.444399
 C 0.9011 0.3666 0.3666   -0.444398
 C 0.4011 0.8666 0.8666   -0.444398
 C 0.3666 0.6334 0.0989   -0.444399
 C 0.8666 0.1334 0.5989   -0.444399
 C 0.6334 0.6334 0.9011   -0.444399
 C 0.1334 0.1334 0.4011   -0.444399
 C 0.9011 0.6334 0.6334   -0.444398
 C 0.4011 0.1334 0.1334   -0.444398
 C 0.0989 0.3666 0.6334   -0.444399
 C 0.5989 0.8666 0.1334   -0.444399
 C 0.3666 0.9011 0.3666   -0.444399
 C 0.8666 0.4011 0.8666   -0.444399
 N 0.4109 0.9681 0.6816   -0.468748
 N 0.9109 0.4681 0.1816   -0.468748
 N 0.9681 0.6816 0.4109   -0.468748
 N 0.4681 0.1816 0.9109   -0.468748
 N 0.6816 0.4109 0.9681   -0.468748
 N 0.1816 0.9109 0.4681   -0.468748
 N 0.9681 0.5891 0.3184   -0.468758
 N 0.4681 0.0891 0.8184   -0.468758
 N 0.6816 0.0319 0.5891   -0.468748
 N 0.1816 0.5319 0.0891   -0.468748
 N 0.4109 0.3184 0.0319   -0.468747
 N 0.9109 0.8184 0.5319   -0.468747
 N 0.5891 0.0319 0.6816   -0.468758
 N 0.0891 0.5319 0.1816   -0.468758
 N 0.3184 0.4109 0.0319   -0.468758
 N 0.8184 0.9109 0.5319   -0.468758
 N 0.5891 0.9681 0.3184   -0.468748
 N 0.0891 0.4681 0.8184   -0.468748
 N 0.0319 0.3184 0.4109   -0.468748
 N 0.5319 0.8184 0.9109   -0.468748
 N 0.3184 0.5891 0.9681   -0.468747
 N 0.8184 0.0891 0.4681   -0.468747
 N 0.0319 0.4109 0.3184   -0.468757
 N 0.5319 0.9109 0.8184   -0.468757
 N 0.3184 0.9681 0.5891   -0.468758
 N 0.8184 0.4681 0.0891   -0.468758
 N 0.5891 0.6816 0.0319   -0.468747
 N 0.0891 0.1816 0.5319   -0.468747
 N 0.0319 0.6816 0.5891   -0.468747
 N 0.5319 0.1816 0.0891   -0.468747
 N 0.6816 0.9681 0.4109   -0.468757
 N 0.1816 0.4681 0.9109   -0.468757
 N 0.4109 0.6816 0.9681   -0.468758
 N 0.9109 0.1816 0.4681   -0.468758
 N 0.9681 0.4109 0.6816   -0.468747
 N 0.4681 0.9109 0.1816   -0.468747
 N 0.9681 0.3184 0.5891   -0.468757
 N 0.4681 0.8184 0.0891   -0.468757
 N 0.0319 0.5891 0.6816   -0.468758
 N 0.5319 0.0891 0.1816   -0.468758
 N 0.3184 0.0319 0.4109   -0.468747
 N 0.8184 0.5319 0.9109   -0.468747
 N 0.5891 0.3184 0.9681   -0.468757
 N 0.0891 0.8184 0.4681   -0.468757
 N 0.4109 0.0319 0.3184   -0.468757
 N 0.9109 0.5319 0.8184   -0.468757
 N 0.6816 0.5891 0.0319   -0.468757
 N 0.1816 0.0891 0.5319   -0.468757
