{'_ref': 'TBD', '_srcid': 'CAKYAQ_clean', 'submitters': [{'name': 'Dalar Nazarian Jeff Camp and David Sholl', 'email': 'dalar@gatech.edu jcamp6@gatech.edu'}], '_method': 'VASP DFT with PBE;DDEC'}
data_Ce(CO)6
_symmetry_space_group_name_H-M   'P 1'
_cell_length_a   8.62700000
_cell_length_b   9.64999954
_cell_length_c   13.21800000
_cell_angle_alpha   90.00000000
_cell_angle_beta   90.00000000
_cell_angle_gamma   95.93000144
_symmetry_Int_Tables_number   1
_chemical_formula_structural   Ce(CO)6
_chemical_formula_sum   'Ce4 C24 O24'
_cell_volume   1094.51728767
_cell_formula_units_Z   4
loop_
 _symmetry_equiv_pos_site_id
 _symmetry_equiv_pos_as_xyz
  1  'x, y, z'
loop_
 _atom_site_label
 _atom_site_fract_x
 _atom_site_fract_y
 _atom_site_fract_z
 _atom_site_charge
 Ce 0.45516 0.00433 0.76576   2.227292
 Ce 0.04484 0.49567 0.26576   2.227291
 Ce 0.54484 0.99567 0.23424   2.227275
 Ce 0.95516 0.50433 0.73424   2.227275
 C 0.4099 0.3743 0.9746   -0.115655
 C 0.5275 0.3766 0.0486   -0.068867
 C 0.3813 0.4995 0.9274   -0.063855
 C 0.3067 0.2404 0.9486   0.791432
 C 0.5445 0.2487 0.1099   0.684671
 C 0.2442 0.5043 0.8581   0.687973
 C 0.0901 0.1257 0.4746   -0.115655
 C 0.9725 0.1234 0.5486   -0.068867
 C 0.1187 0.000500000000002 0.4274   -0.063855
 C 0.1933 0.2596 0.4486   0.791432
 C 0.9555 0.2513 0.6099   0.684671
 C 0.2558 0.9957 0.3581   0.687973
 C 0.5901 0.6257 0.0254   -0.115658
 C 0.4725 0.6234 0.9514   -0.068861
 C 0.6187 0.5005 0.0726   -0.063848
 C 0.6933 0.7596 0.0514   0.791433
 C 0.4555 0.7513 0.8901   0.68467
 C 0.7558 0.4957 0.1419   0.687972
 C 0.9099 0.8743 0.5254   -0.115658
 C 0.0275 0.8766 0.4514   -0.06886
 C 0.8813 0.9995 0.5726   -0.063848
 C 0.8067 0.7404 0.5514   0.791432
 C 0.0445 0.7487 0.3901   0.68467
 C 0.7442 0.0043 0.6419   0.687972
 O 0.3565 0.1622 0.8841   -0.848876
 O 0.1778 0.2205 0.9918   -0.581485
 O 0.5501 0.1333 0.0664   -0.6456
 O 0.5476 0.2588 0.2041   -0.68674
 O 0.218 0.4159 0.7893   -0.649026
 O 0.1523 0.5965 0.875   -0.731259
 O 0.1435 0.3378 0.3841   -0.848876
 O 0.3222 0.2795 0.4918   -0.581485
 O 0.9499 0.3667 0.5664   -0.645599
 O 0.9524 0.2412 0.7041   -0.686739
 O 0.282 0.0841 0.2893   -0.649026
 O 0.3477 0.9035 0.375   -0.731259
 O 0.6435 0.8378 0.1159   -0.848875
 O 0.8222 0.7795 0.0082   -0.581488
 O 0.4499 0.8667 0.9336   -0.645599
 O 0.4524 0.7412 0.7959   -0.68674
 O 0.782 0.5841 0.2107   -0.649027
 O 0.8477 0.4035 0.125   -0.731259
 O 0.8565 0.6622 0.6159   -0.848875
 O 0.6778 0.7205 0.5082   -0.581488
 O 0.0501 0.6333 0.4336   -0.645599
 O 0.0476 0.7588 0.2959   -0.68674
 O 0.718 0.9159 0.7107   -0.649026
 O 0.6523 0.0965 0.625   -0.731259
