{'_ref': 'TBD', '_srcid': 'CAKYAQ_clean', 'submitters': [{'name': 'Dalar Nazarian Jeff Camp and David Sholl', 'email': 'dalar@gatech.edu jcamp6@gatech.edu'}], '_method': 'VASP DFT with PBE;DDEC'}
data_MnH9C14(NO2)2
_symmetry_space_group_name_H-M   'P 1'
_cell_length_a   15.20900000
_cell_length_b   16.36100010
_cell_length_c   17.46300000
_cell_angle_alpha   110.41000130
_cell_angle_beta   90.00000000
_cell_angle_gamma   90.00000000
_symmetry_Int_Tables_number   1
_chemical_formula_structural   MnH9C14(NO2)2
_chemical_formula_sum   'Mn8 H72 C112 N16 O32'
_cell_volume   4072.59695783
_cell_formula_units_Z   8
loop_
 _symmetry_equiv_pos_site_id
 _symmetry_equiv_pos_as_xyz
  1  'x, y, z'
loop_
 _atom_site_label
 _atom_site_fract_x
 _atom_site_fract_y
 _atom_site_fract_z
 _atom_site_charge
 Mn 0.56644 0.54187 0.76662   1.049654
 Mn 0.85096 0.44977 0.71831   1.027922
 Mn 0.06644 0.95813 0.73338   1.049654
 Mn 0.35096 0.05023 0.78169   1.027922
 Mn 0.43356 0.45813 0.23338   1.049652
 Mn 0.14904 0.55023 0.28169   1.027922
 Mn 0.93356 0.04187 0.26662   1.049652
 Mn 0.64904 0.94977 0.21831   1.027922
 H 0.8102 0.0336 0.6802   0.287384
 H 0.5903 0.937 0.7658   0.271326
 H 0.884 0.7209 0.722   0.083144
 H 0.5331 0.2713 0.7509   0.081666
 H 0.6592 0.0457 0.7167   0.110722
 H 0.786 0.2438 0.6821   0.103749
 H 0.5149 0.8179 0.8112   0.084326
 H 0.4827 0.9148 0.8385   0.096582
 H 0.6293 0.7387 0.7799   0.108853
 H 0.7539 0.9438 0.7559   0.108203
 H 0.8153 0.0113 0.3936   0.06918
 H 0.0173 0.1577 0.5752   0.113014
 H 0.5133 0.7863 0.9349   0.123767
 H 0.0457 0.1217 0.4404   0.084094
 H 0.792 0.0374 0.5312   0.11971
 H 0.6353 0.0019 0.9403   0.131576
 H 0.5633 0.8095 0.0629   0.056966
 H 0.6719 0.0243 0.0718   0.071634
 H 0.3102 0.4664 0.8198   0.287384
 H 0.0903 0.563 0.7342   0.271326
 H 0.384 0.7791 0.778   0.083144
 H 0.0331 0.2287 0.7491   0.081666
 H 0.1592 0.4543 0.7833   0.110722
 H 0.286 0.2562 0.8179   0.103749
 H 0.0149 0.6821 0.6888   0.084326
 H 0.9827 0.5852 0.6615   0.096582
 H 0.1293 0.7613 0.7201   0.108853
 H 0.2539 0.5562 0.7441   0.108203
 H 0.3153 0.4887 0.1064   0.06918
 H 0.5173 0.3423 0.9248   0.113014
 H 0.0133 0.7137 0.5651   0.123767
 H 0.5457 0.3783 0.0596   0.084094
 H 0.292 0.4626 0.9688   0.11971
 H 0.1353 0.4981 0.5597   0.131576
 H 0.0633 0.6905 0.4371   0.056966
 H 0.1719 0.4757 0.4282   0.071634
 H 0.1898 0.9664 0.3198   0.287384
 H 0.4097 0.063 0.2342   0.271326
 H 0.116 0.2791 0.278   0.083144
 H 0.4669 0.7287 0.2491   0.081665
 H 0.3408 0.9543 0.2833   0.110722
 H 0.214 0.7562 0.3179   0.103749
 H 0.4851 0.1821 0.1888   0.084326
 H 0.5173 0.0852 0.1615   0.096582
 H 0.3707 0.2613 0.2201   0.108853
 H 0.2461 0.0562 0.2441   0.108203
 H 0.1847 0.9887 0.6064   0.06918
 H 0.9827 0.8423 0.4248   0.113015
 H 0.4867 0.2137 0.0651   0.123768
 H 0.9543 0.8783 0.5596   0.084095
 H 0.208 0.9626 0.4688   0.11971
 H 0.3647 0.9981 0.0597   0.131576
 H 0.4367 0.1905 0.9371   0.056966
 H 0.3281 0.9757 0.9282   0.071634
 H 0.6898 0.5336 0.1802   0.287384
 H 0.9097 0.437 0.2658   0.271326
 H 0.616 0.2209 0.222   0.083144
 H 0.9669 0.7713 0.2509   0.081666
 H 0.8408 0.5457 0.2167   0.110722
 H 0.714 0.7438 0.1821   0.103749
 H 0.9851 0.3179 0.3112   0.084326
 H 0.0173 0.4148 0.3385   0.096582
 H 0.8707 0.2387 0.2799   0.108853
 H 0.7461 0.4438 0.2559   0.108203
 H 0.6847 0.5113 0.8936   0.06918
 H 0.4827 0.6577 0.0752   0.113015
 H 0.9867 0.2863 0.4349   0.123768
 H 0.4543 0.6217 0.9404   0.084095
 H 0.708 0.5374 0.0312   0.11971
 H 0.8647 0.5019 0.4403   0.131576
 H 0.9367 0.3095 0.5629   0.056966
 H 0.8281 0.5243 0.5718   0.071634
 C 0.5845 0.1524 0.7381   -0.120848
 C 0.6601 0.2725 0.7164   -0.141729
 C 0.8968 0.1175 0.6605   0.002991
 C 0.8315 0.8379 0.736   -0.117101
 C 0.8321 0.7529 0.734   -0.041597
 C 0.5024 0.1151 0.7601   0.642576
 C 0.584 0.2379 0.7374   -0.006752
 C 0.7576 0.7153 0.7496   -0.132962
 C 0.6601 0.103 0.7178   -0.13284
 C 0.7355 0.2209 0.697   -0.117069
 C 0.6776 0.8491 0.7677   0.201686
 C 0.5647 0.893 0.9213   0.130063
 C 0.7383 0.1373 0.6989   0.169434
 C 0.7583 0.6246 0.7515   0.713453
 C 0.5335 0.8781 0.836   0.008138
 C 0.9059 0.0999 0.57   0.105212
 C 0.9154 0.8808 0.7246   0.630412
 C 0.6799 0.7636 0.7677   -0.146384
 C 0.6612 0.3629 0.7156   0.719845
 C 0.7539 0.8861 0.7536   -0.156091
 C 0.8585 0.0407 0.4307   0.170265
 C 0.9755 0.1246 0.5386   -0.171259
 C 0.5461 0.8362 0.9613   -0.226976
 C 0.9922 0.1061 0.4571   0.154642
 C 0.8436 0.0564 0.5142   -0.197776
 C 0.6161 0.9628 0.9646   -0.219936
 C 0.5751 0.8517 0.0399   0.195297
 C 0.639 0.9749 0.0439   0.174488
 C 0.0845 0.3476 0.7619   -0.120848
 C 0.1601 0.2275 0.7836   -0.141729
 C 0.3968 0.3825 0.8395   0.002991
 C 0.3315 0.6621 0.764   -0.117101
 C 0.3321 0.7471 0.766   -0.041598
 C 0.0024 0.3849 0.7399   0.642576
 C 0.084 0.2621 0.7626   -0.006752
 C 0.2576 0.7847 0.7504   -0.132962
 C 0.1601 0.397 0.7822   -0.13284
 C 0.2355 0.2791 0.803   -0.117069
 C 0.1776 0.6509 0.7323   0.201686
 C 0.0647 0.607 0.5787   0.130063
 C 0.2383 0.3627 0.8011   0.169434
 C 0.2583 0.8754 0.7485   0.713453
 C 0.0335 0.6219 0.664   0.008138
 C 0.4059 0.4001 0.93   0.105212
 C 0.4154 0.6192 0.7754   0.630412
 C 0.1799 0.7364 0.7323   -0.146384
 C 0.1612 0.1371 0.7844   0.719845
 C 0.2539 0.6139 0.7464   -0.156091
 C 0.3585 0.4593 0.0693   0.170265
 C 0.4755 0.3754 0.9614   -0.171259
 C 0.0461 0.6638 0.5387   -0.226976
 C 0.4922 0.3939 0.0429   0.154642
 C 0.3436 0.4436 0.9858   -0.197776
 C 0.1161 0.5372 0.5354   -0.219936
 C 0.0751 0.6483 0.4601   0.195297
 C 0.139 0.5251 0.4561   0.174488
 C 0.4155 0.8476 0.2619   -0.120848
 C 0.3399 0.7275 0.2836   -0.141729
 C 0.1032 0.8825 0.3395   0.002991
 C 0.1685 0.1621 0.264   -0.117101
 C 0.1679 0.2471 0.266   -0.041598
 C 0.4976 0.8849 0.2399   0.642576
 C 0.416 0.7621 0.2626   -0.006752
 C 0.2424 0.2847 0.2504   -0.132961
 C 0.3399 0.897 0.2822   -0.13284
 C 0.2645 0.7791 0.303   -0.117069
 C 0.3224 0.1509 0.2323   0.201686
 C 0.4353 0.107 0.0787   0.130064
 C 0.2617 0.8627 0.3011   0.169434
 C 0.2417 0.3754 0.2485   0.713453
 C 0.4665 0.1219 0.164   0.008138
 C 0.0941 0.9001 0.43   0.105212
 C 0.0846 0.1192 0.2754   0.630411
 C 0.3201 0.2364 0.2323   -0.146384
 C 0.3388 0.6371 0.2844   0.719845
 C 0.2461 0.1139 0.2464   -0.156091
 C 0.1415 0.9593 0.5693   0.170265
 C 0.0245 0.8754 0.4614   -0.171259
 C 0.4539 0.1638 0.0387   -0.226976
 C 0.0078 0.8939 0.5429   0.154642
 C 0.1564 0.9436 0.4858   -0.197776
 C 0.3839 0.0372 0.0354   -0.219935
 C 0.4249 0.1483 0.9601   0.195298
 C 0.361 0.0251 0.9561   0.174488
 C 0.9155 0.6524 0.2381   -0.120848
 C 0.8399 0.7725 0.2164   -0.141729
 C 0.6032 0.6175 0.1605   0.002991
 C 0.6685 0.3379 0.236   -0.117101
 C 0.6679 0.2529 0.234   -0.041598
 C 0.9976 0.6151 0.2601   0.642576
 C 0.916 0.7379 0.2374   -0.006752
 C 0.7424 0.2153 0.2496   -0.132961
 C 0.8399 0.603 0.2178   -0.13284
 C 0.7645 0.7209 0.197   -0.117069
 C 0.8224 0.3491 0.2677   0.201686
 C 0.9353 0.393 0.4213   0.130064
 C 0.7617 0.6373 0.1989   0.169434
 C 0.7417 0.1246 0.2515   0.713453
 C 0.9665 0.3781 0.336   0.008138
 C 0.5941 0.5999 0.07   0.105212
 C 0.5846 0.3808 0.2246   0.630411
 C 0.8201 0.2636 0.2677   -0.146384
 C 0.8388 0.8629 0.2156   0.719845
 C 0.7461 0.3861 0.2536   -0.156091
 C 0.6415 0.5407 0.9307   0.170265
 C 0.5245 0.6246 0.0386   -0.171259
 C 0.9539 0.3362 0.4613   -0.226976
 C 0.5078 0.6061 0.9571   0.154642
 C 0.6564 0.5564 0.0142   -0.197776
 C 0.8839 0.4628 0.4646   -0.219935
 C 0.9249 0.3517 0.5399   0.195298
 C 0.861 0.4749 0.5439   0.174488
 N 0.9309 0.0654 0.4017   -0.36914
 N 0.8132 0.0861 0.6802   -0.255883
 N 0.5992 0.8964 0.7855   -0.400502
 N 0.6181 0.9215 0.0847   -0.359987
 N 0.4309 0.4346 0.0983   -0.36914
 N 0.3132 0.4139 0.8198   -0.255883
 N 0.0992 0.6036 0.7145   -0.400502
 N 0.1181 0.5785 0.4153   -0.359987
 N 0.0691 0.9346 0.5983   -0.36914
 N 0.1868 0.9139 0.3198   -0.255883
 N 0.4008 0.1036 0.2145   -0.400502
 N 0.3819 0.0785 0.9153   -0.359987
 N 0.5691 0.5654 0.9017   -0.36914
 N 0.6868 0.5861 0.1802   -0.255883
 N 0.9008 0.3964 0.2855   -0.400502
 N 0.8819 0.4215 0.5847   -0.359987
 O 0.4348 0.161 0.7785   -0.591533
 O 0.5024 0.0374 0.7587   -0.60745
 O 0.6909 0.5983 0.7781   -0.650389
 O 0.9849 0.8392 0.7135   -0.578954
 O 0.9142 0.9616 0.733   -0.621476
 O 0.8274 0.581 0.7281   -0.592135
 O 0.7281 0.3893 0.6901   -0.632409
 O 0.592 0.4082 0.7402   -0.612797
 O 0.9348 0.339 0.7215   -0.591533
 O 0.0024 0.4626 0.7413   -0.60745
 O 0.1909 0.9017 0.7219   -0.650389
 O 0.4849 0.6608 0.7865   -0.578954
 O 0.4142 0.5384 0.767   -0.621476
 O 0.3274 0.919 0.7719   -0.592135
 O 0.2281 0.1107 0.8099   -0.632409
 O 0.092 0.0918 0.7598   -0.612797
 O 0.5652 0.839 0.2215   -0.591533
 O 0.4976 0.9626 0.2413   -0.60745
 O 0.3091 0.4017 0.2219   -0.650388
 O 0.0151 0.1608 0.2865   -0.578953
 O 0.0858 0.0384 0.267   -0.621476
 O 0.1726 0.419 0.2719   -0.592135
 O 0.2719 0.6107 0.3099   -0.632409
 O 0.408 0.5918 0.2598   -0.612797
 O 0.0652 0.661 0.2785   -0.591533
 O 0.9976 0.5374 0.2587   -0.60745
 O 0.8091 0.0983 0.2781   -0.650388
 O 0.5151 0.3392 0.2135   -0.578953
 O 0.5858 0.4616 0.233   -0.621476
 O 0.6726 0.081 0.2281   -0.592135
 O 0.7719 0.8893 0.1901   -0.632409
 O 0.908 0.9082 0.2402   -0.612797
