{'_ref': 'TBD', '_srcid': 'CAKYAQ_clean', 'submitters': [{'name': 'Dalar Nazarian Jeff Camp and David Sholl', 'email': 'dalar@gatech.edu jcamp6@gatech.edu'}], '_method': 'VASP DFT with PBE;DDEC'}
data_LaH12(C5O2)3
_symmetry_space_group_name_H-M   'P 1'
_cell_length_a   10.21800000
_cell_length_b   14.28300000
_cell_length_c   22.10100049
_cell_angle_alpha   91.27599880
_cell_angle_beta   90.00000000
_cell_angle_gamma   90.00000000
_symmetry_Int_Tables_number   1
_chemical_formula_structural   LaH12(C5O2)3
_chemical_formula_sum   'La8 H96 C120 O48'
_cell_volume   3224.70180965
_cell_formula_units_Z   8
loop_
 _symmetry_equiv_pos_site_id
 _symmetry_equiv_pos_as_xyz
  1  'x, y, z'
loop_
 _atom_site_label
 _atom_site_fract_x
 _atom_site_fract_y
 _atom_site_fract_z
 _atom_site_charge
 La 0.44338 0.73499 0.7418   2.181913
 La 0.24886 0.97873 0.75007   2.161109
 La 0.94338 0.76501 0.2582   2.181913
 La 0.74886 0.52127 0.24993   2.161109
 La 0.55662 0.26501 0.2582   2.181911
 La 0.75114 0.02127 0.24993   2.161107
 La 0.05662 0.23499 0.7418   2.181911
 La 0.25114 0.47873 0.75007   2.161107
 H 0.6392 0.8707 0.5336   0.103858
 H 0.7023 0.8144 0.4393   0.110295
 H 0.3305 0.8131 0.3861   0.105281
 H 0.2674 0.8637 0.4806   0.096025
 H 0.4559 0.9697 0.5858   0.148747
 H 0.314 0.9337 0.5731   0.153729
 H 0.6243 0.7212 0.3434   0.142584
 H 0.4896 0.7543 0.3171   0.146474
 H 0.8394 0.7896 0.9033   0.09762
 H 0.7739 0.8623 0.9913   0.092963
 H 0.1447 0.8843 0.044   0.097432
 H 0.2107 0.8132 0.9549   0.100842
 H 0.0081 0.7154 0.8414   0.154276
 H 0.1479 0.7042 0.8696   0.149249
 H 0.9569 0.984 0.092   0.158516
 H 0.8153 0.9448 0.0824   0.164659
 H 0.5812 0.3588 0.5311   0.087554
 H 0.5067 0.6272 0.5647   0.112342
 H 0.699 0.5243 0.6208   0.132805
 H 0.6461 0.4214 0.6258   0.13858
 H 0.466 0.8433 0.9784   0.092382
 H 0.592 0.0953 0.9287   0.096302
 H 0.6521 0.9522 0.8689   0.153726
 H 0.5887 0.8561 0.8853   0.153173
 H 0.1392 0.6293 0.4664   0.103859
 H 0.2023 0.6856 0.5607   0.110295
 H 0.8305 0.6869 0.6139   0.105281
 H 0.7674 0.6363 0.5194   0.096025
 H 0.9559 0.5303 0.4142   0.148747
 H 0.814 0.5663 0.4269   0.153729
 H 0.1243 0.7788 0.6566   0.142584
 H 0.9896 0.7457 0.6829   0.146474
 H 0.3394 0.7104 0.0967   0.09762
 H 0.2739 0.6377 0.0087   0.092963
 H 0.6447 0.6157 0.956   0.097433
 H 0.7107 0.6868 0.0451   0.100842
 H 0.5081 0.7846 0.1586   0.154275
 H 0.6479 0.7958 0.1304   0.149249
 H 0.4569 0.516 0.908   0.158516
 H 0.3153 0.5552 0.9176   0.164659
 H 0.0812 0.1412 0.4689   0.087554
 H 0.0067 0.8728 0.4353   0.112343
 H 0.199 0.9757 0.3792   0.132805
 H 0.1461 0.0786 0.3742   0.13858
 H 0.966 0.6567 0.0216   0.092382
 H 0.092 0.4047 0.0713   0.096302
 H 0.1521 0.5478 0.1311   0.153726
 H 0.0887 0.6439 0.1147   0.153173
 H 0.3608 0.1293 0.4664   0.10386
 H 0.2977 0.1856 0.5607   0.110295
 H 0.6695 0.1869 0.6139   0.105282
 H 0.7326 0.1363 0.5194   0.096025
 H 0.5441 0.0303 0.4142   0.148748
 H 0.686 0.0663 0.4269   0.153729
 H 0.3757 0.2788 0.6566   0.142584
 H 0.5104 0.2457 0.6829   0.146474
 H 0.1606 0.2104 0.0967   0.09762
 H 0.2261 0.1377 0.0087   0.092963
 H 0.8553 0.1157 0.956   0.097434
 H 0.7893 0.1868 0.0451   0.100842
 H 0.9919 0.2846 0.1586   0.154276
 H 0.8521 0.2958 0.1304   0.149249
 H 0.0431 0.016 0.908   0.158516
 H 0.1847 0.0552 0.9176   0.164659
 H 0.4188 0.6412 0.4689   0.087554
 H 0.4933 0.3728 0.4353   0.112342
 H 0.301 0.4757 0.3792   0.132806
 H 0.3539 0.5786 0.3742   0.138581
 H 0.534 0.1567 0.0216   0.092381
 H 0.408 0.9047 0.0713   0.096302
 H 0.3479 0.0478 0.1311   0.153727
 H 0.4113 0.1439 0.1147   0.153173
 H 0.8608 0.3707 0.5336   0.10386
 H 0.7977 0.3144 0.4393   0.110295
 H 0.1695 0.3131 0.3861   0.105282
 H 0.2326 0.3637 0.4806   0.096025
 H 0.0441 0.4697 0.5858   0.148748
 H 0.186 0.4337 0.5731   0.153729
 H 0.8757 0.2212 0.3434   0.142584
 H 0.0104 0.2543 0.3171   0.146473
 H 0.6606 0.2896 0.9033   0.097621
 H 0.7261 0.3623 0.9913   0.092963
 H 0.3553 0.3843 0.044   0.097435
 H 0.2893 0.3132 0.9549   0.100842
 H 0.4919 0.2154 0.8414   0.154275
 H 0.3521 0.2042 0.8696   0.149249
 H 0.5431 0.484 0.092   0.158516
 H 0.6847 0.4448 0.0824   0.164659
 H 0.9188 0.8588 0.5311   0.087554
 H 0.9933 0.1272 0.5647   0.112342
 H 0.801 0.0243 0.6208   0.132806
 H 0.8539 0.9214 0.6258   0.138581
 H 0.034 0.3433 0.9784   0.092381
 H 0.908 0.5953 0.9287   0.096302
 H 0.8479 0.4522 0.8689   0.153727
 H 0.9113 0.3561 0.8853   0.153173
 C 0.4476 0.8752 0.5166   0.115905
 C 0.5763 0.859 0.504   -0.116961
 C 0.6141 0.8251 0.4472   -0.142273
 C 0.5236 0.8071 0.4027   0.109972
 C 0.3935 0.8236 0.4158   -0.140803
 C 0.3559 0.8554 0.4721   -0.128217
 C 0.4044 0.914 0.5768   -0.403669
 C 0.4141 0.8509 0.6298   0.811723
 C 0.5656 0.7742 0.3403   -0.381285
 C 0.6335 0.8524 0.3087   0.783711
 C 0.0326 0.7947 0.9187   0.111122
 C 0.9021 0.8091 0.9313   -0.132107
 C 0.8627 0.8519 0.9847   -0.133237
 C 0.9494 0.8791 0.0281   0.112372
 C 0.0823 0.8651 0.0157   -0.121301
 C 0.1219 0.8228 0.962   -0.134618
 C 0.08 0.7492 0.8604   -0.393738
 C 0.1325 0.8181 0.8175   0.803672
 C 0.9064 0.927 0.0864   -0.407133
 C 0.921 0.8688 0.1424   0.821338
 C 0.5556 0.4936 0.5569   0.098867
 C 0.5493 0.4163 0.5187   -0.12777
 C 0.5051 0.5753 0.5385   -0.14016
 C 0.6208 0.4858 0.6191   -0.375063
 C 0.5235 0.5188 0.6683   0.85445
 C 0.5367 0.9616 0.9435   0.111575
 C 0.4803 0.9065 0.9869   -0.131353
 C 0.5552 0.0566 0.9574   -0.131699
 C 0.5719 0.9227 0.8823   -0.400751
 C 0.4669 0.9373 0.8356   0.813623
 C 0.9476 0.6248 0.4834   0.115905
 C 0.0763 0.641 0.496   -0.116961
 C 0.1141 0.6749 0.5528   -0.142273
 C 0.0236 0.6929 0.5973   0.109972
 C 0.8935 0.6764 0.5842   -0.140802
 C 0.8559 0.6446 0.5279   -0.128217
 C 0.9044 0.586 0.4232   -0.403669
 C 0.9141 0.6491 0.3702   0.811723
 C 0.0656 0.7258 0.6597   -0.381285
 C 0.1335 0.6476 0.6913   0.78371
 C 0.5326 0.7053 0.0813   0.111122
 C 0.4021 0.6909 0.0687   -0.132107
 C 0.3627 0.6481 0.0153   -0.133237
 C 0.4494 0.6209 0.9719   0.112372
 C 0.5823 0.6349 0.9843   -0.121301
 C 0.6219 0.6772 0.038   -0.134618
 C 0.58 0.7508 0.1396   -0.393737
 C 0.6325 0.6819 0.1825   0.803671
 C 0.4064 0.573 0.9136   -0.407133
 C 0.421 0.6312 0.8576   0.821338
 C 0.0556 0.0064 0.4431   0.098867
 C 0.0493 0.0837 0.4813   -0.12777
 C 0.0051 0.9247 0.4615   -0.14016
 C 0.1208 0.0142 0.3809   -0.375063
 C 0.0235 0.9812 0.3317   0.85445
 C 0.0367 0.5384 0.0565   0.111575
 C 0.9803 0.5935 0.0131   -0.131352
 C 0.0552 0.4434 0.0426   -0.131699
 C 0.0719 0.5773 0.1177   -0.400751
 C 0.9669 0.5627 0.1644   0.813623
 C 0.5524 0.1248 0.4834   0.115905
 C 0.4237 0.141 0.496   -0.11696
 C 0.3859 0.1749 0.5528   -0.142273
 C 0.4764 0.1929 0.5973   0.109972
 C 0.6065 0.1764 0.5842   -0.140803
 C 0.6441 0.1446 0.5279   -0.128217
 C 0.5956 0.086 0.4232   -0.403669
 C 0.5859 0.1491 0.3702   0.811723
 C 0.4344 0.2258 0.6597   -0.381285
 C 0.3665 0.1476 0.6913   0.78371
 C 0.9674 0.2053 0.0813   0.111122
 C 0.0979 0.1909 0.0687   -0.132107
 C 0.1373 0.1481 0.0153   -0.133237
 C 0.0506 0.1209 0.9719   0.112373
 C 0.9177 0.1349 0.9843   -0.121301
 C 0.8781 0.1772 0.038   -0.134618
 C 0.92 0.2508 0.1396   -0.393738
 C 0.8675 0.1819 0.1825   0.803672
 C 0.0936 0.073 0.9136   -0.407133
 C 0.079 0.1312 0.8576   0.821338
 C 0.4444 0.5064 0.4431   0.098865
 C 0.4507 0.5837 0.4813   -0.127763
 C 0.4949 0.4247 0.4615   -0.140153
 C 0.3792 0.5142 0.3809   -0.375063
 C 0.4765 0.4812 0.3317   0.85445
 C 0.4633 0.0384 0.0565   0.111571
 C 0.5197 0.0935 0.0131   -0.13134
 C 0.4448 0.9434 0.0426   -0.131687
 C 0.4281 0.0773 0.1177   -0.400751
 C 0.5331 0.0627 0.1644   0.813623
 C 0.0524 0.3752 0.5166   0.115905
 C 0.9237 0.359 0.504   -0.11696
 C 0.8859 0.3251 0.4472   -0.142273
 C 0.9764 0.3071 0.4027   0.109972
 C 0.1065 0.3236 0.4158   -0.140803
 C 0.1441 0.3554 0.4721   -0.128217
 C 0.0956 0.414 0.5768   -0.403669
 C 0.0859 0.3509 0.6298   0.811723
 C 0.9344 0.2742 0.3403   -0.381285
 C 0.8665 0.3524 0.3087   0.78371
 C 0.4674 0.2947 0.9187   0.111122
 C 0.5979 0.3091 0.9313   -0.132107
 C 0.6373 0.3519 0.9847   -0.133237
 C 0.5506 0.3791 0.0281   0.112373
 C 0.4177 0.3651 0.0157   -0.121301
 C 0.3781 0.3228 0.962   -0.134618
 C 0.42 0.2492 0.8604   -0.393737
 C 0.3675 0.3181 0.8175   0.803671
 C 0.5936 0.427 0.0864   -0.407133
 C 0.579 0.3688 0.1424   0.821338
 C 0.9444 0.9936 0.5569   0.098865
 C 0.9507 0.9163 0.5187   -0.127763
 C 0.9949 0.0753 0.5385   -0.140153
 C 0.8792 0.9858 0.6191   -0.375063
 C 0.9765 0.0188 0.6683   0.85445
 C 0.9633 0.4616 0.9435   0.111571
 C 0.0197 0.4065 0.9869   -0.13134
 C 0.9448 0.5566 0.9574   -0.131687
 C 0.9281 0.4227 0.8823   -0.400751
 C 0.0331 0.4373 0.8356   0.813623
 O 0.4893 0.7819 0.6304   -0.675458
 O 0.3424 0.8685 0.6752   -0.817181
 O 0.7564 0.8567 0.3068   -0.791884
 O 0.5654 0.9152 0.2846   -0.679714
 O 0.2325 0.7992 0.786   -0.809373
 O 0.0755 0.8941 0.8112   -0.665918
 O 0.9801 0.7944 0.1433   -0.670156
 O 0.8658 0.8993 0.1909   -0.840255
 O 0.4328 0.4663 0.6789   -0.713561
 O 0.5457 0.5943 0.6959   -0.7874
 O 0.4757 0.8964 0.7849   -0.82218
 O 0.3725 0.9907 0.8468   -0.665571
 O 0.9893 0.7181 0.3696   -0.675458
 O 0.8424 0.6315 0.3248   -0.817181
 O 0.2564 0.6433 0.6932   -0.791883
 O 0.0654 0.5848 0.7154   -0.679713
 O 0.7325 0.7008 0.214   -0.809373
 O 0.5755 0.6059 0.1888   -0.665918
 O 0.4801 0.7056 0.8567   -0.670156
 O 0.3658 0.6007 0.8091   -0.840255
 O 0.9328 0.0337 0.3211   -0.713561
 O 0.0457 0.9057 0.3041   -0.7874
 O 0.9757 0.6036 0.2151   -0.82218
 O 0.8725 0.5093 0.1532   -0.665571
 O 0.5107 0.2181 0.3696   -0.675458
 O 0.6576 0.1315 0.3248   -0.81718
 O 0.2436 0.1433 0.6932   -0.791884
 O 0.4346 0.0848 0.7154   -0.679714
 O 0.7675 0.2008 0.214   -0.809373
 O 0.9245 0.1059 0.1888   -0.665918
 O 0.0199 0.2056 0.8567   -0.670156
 O 0.1342 0.1007 0.8091   -0.840255
 O 0.5672 0.5337 0.3211   -0.713561
 O 0.4543 0.4057 0.3041   -0.787399
 O 0.5243 0.1036 0.2151   -0.82218
 O 0.6275 0.0093 0.1532   -0.665571
 O 0.0107 0.2819 0.6304   -0.675458
 O 0.1576 0.3685 0.6752   -0.81718
 O 0.7436 0.3567 0.3068   -0.791883
 O 0.9346 0.4152 0.2846   -0.679714
 O 0.2675 0.2992 0.786   -0.809373
 O 0.4245 0.3941 0.8112   -0.665918
 O 0.5199 0.2944 0.1433   -0.670156
 O 0.6342 0.3993 0.1909   -0.840255
 O 0.0672 0.9663 0.6789   -0.713561
 O 0.9543 0.0943 0.6959   -0.787399
 O 0.0243 0.3964 0.7849   -0.82218
 O 0.1275 0.4907 0.8468   -0.665571
