{'_ref': 'TBD', '_srcid': 'CAKYAQ_clean', 'submitters': [{'name': 'Dalar Nazarian Jeff Camp and David Sholl', 'email': 'dalar@gatech.edu jcamp6@gatech.edu'}], '_method': 'VASP DFT with PBE;DDEC'}
data_ErH12(C5O2)3
_symmetry_space_group_name_H-M   'P 1'
_cell_length_a   9.97190000
_cell_length_b   14.04530000
_cell_length_c   21.61999959
_cell_angle_alpha   91.58400078
_cell_angle_beta   90.00000000
_cell_angle_gamma   90.00000000
_symmetry_Int_Tables_number   1
_chemical_formula_structural   ErH12(C5O2)3
_chemical_formula_sum   'Er8 H96 C120 O48'
_cell_volume   3026.90386936
_cell_formula_units_Z   8
loop_
 _symmetry_equiv_pos_site_id
 _symmetry_equiv_pos_as_xyz
  1  'x, y, z'
loop_
 _atom_site_label
 _atom_site_fract_x
 _atom_site_fract_y
 _atom_site_fract_z
 _atom_site_charge
 Er 0.43344 0.72636 0.74146   1.493709
 Er 0.24572 0.97417 0.75006   1.462091
 Er 0.93344 0.77364 0.25854   1.493709
 Er 0.74572 0.52583 0.24994   1.462091
 Er 0.56656 0.27364 0.25854   1.493708
 Er 0.75428 0.02583 0.24994   1.46209
 Er 0.06656 0.22636 0.74146   1.493708
 Er 0.25428 0.47417 0.75006   1.46209
 H 0.644 0.8649 0.5375   0.107399
 H 0.7028 0.814 0.4391   0.113632
 H 0.3208 0.8228 0.3872   0.115641
 H 0.2607 0.8732 0.4849   0.093476
 H 0.3171 0.9456 0.5797   0.149253
 H 0.467 0.9687 0.5948   0.152836
 H 0.6142 0.7279 0.3384   0.154364
 H 0.4803 0.7708 0.3131   0.149327
 H 0.8216 0.7942 0.9072   0.106623
 H 0.7675 0.8744 0.9976   0.095719
 H 0.1522 0.8827 0.0441   0.098493
 H 0.208 0.808 0.9526   0.104737
 H 0.1066 0.6829 0.8699   0.152651
 H 0.9756 0.7206 0.8391   0.151953
 H 0.8251 0.9571 0.0886   0.157275
 H 0.9736 0.9914 0.0959   0.149304
 H 0.5857 0.3554 0.5281   0.092172
 H 0.5069 0.6296 0.5684   0.12181
 H 0.6366 0.413 0.6296   0.145607
 H 0.7035 0.5137 0.6238   0.145303
 H 0.4501 0.8423 0.9796   0.095791
 H 0.5965 0.0908 0.9253   0.1051
 H 0.5702 0.8455 0.8842   0.155988
 H 0.6441 0.9383 0.8646   0.154288
 H 0.144 0.6351 0.4625   0.1074
 H 0.2028 0.686 0.5609   0.113632
 H 0.8208 0.6772 0.6128   0.115642
 H 0.7607 0.6268 0.5151   0.093476
 H 0.8171 0.5544 0.4203   0.149254
 H 0.967 0.5313 0.4052   0.152836
 H 0.1142 0.7721 0.6616   0.154365
 H 0.9803 0.7292 0.6869   0.149326
 H 0.3216 0.7058 0.0928   0.106624
 H 0.2675 0.6256 0.0024   0.09572
 H 0.6522 0.6173 0.9559   0.098494
 H 0.708 0.692 0.0474   0.104737
 H 0.6066 0.8171 0.1301   0.152652
 H 0.4756 0.7794 0.1609   0.151952
 H 0.3251 0.5429 0.9114   0.157276
 H 0.4736 0.5086 0.9041   0.149304
 H 0.0857 0.1446 0.4719   0.092172
 H 0.0069 0.8704 0.4316   0.12181
 H 0.1366 0.087 0.3704   0.145607
 H 0.2035 0.9863 0.3762   0.145303
 H 0.9501 0.6577 0.0204   0.095791
 H 0.0965 0.4092 0.0747   0.1051
 H 0.0702 0.6545 0.1158   0.155988
 H 0.1441 0.5617 0.1354   0.154288
 H 0.356 0.1351 0.4625   0.107401
 H 0.2972 0.186 0.5609   0.113632
 H 0.6792 0.1772 0.6128   0.115641
 H 0.7393 0.1268 0.5151   0.093476
 H 0.6829 0.0544 0.4203   0.149254
 H 0.533 0.0313 0.4052   0.152837
 H 0.3858 0.2721 0.6616   0.154364
 H 0.5197 0.2292 0.6869   0.149326
 H 0.1784 0.2058 0.0928   0.106624
 H 0.2325 0.1256 0.0024   0.095719
 H 0.8478 0.1173 0.9559   0.098496
 H 0.792 0.192 0.0474   0.104737
 H 0.8934 0.3171 0.1301   0.152651
 H 0.0244 0.2794 0.1609   0.151953
 H 0.1749 0.0429 0.9114   0.157276
 H 0.0264 0.0086 0.9041   0.149305
 H 0.4143 0.6446 0.4719   0.092172
 H 0.4931 0.3704 0.4316   0.121809
 H 0.3634 0.587 0.3704   0.145609
 H 0.2965 0.4863 0.3762   0.145305
 H 0.5499 0.1577 0.0204   0.09579
 H 0.4035 0.9092 0.0747   0.105101
 H 0.4298 0.1545 0.1158   0.155988
 H 0.3559 0.0617 0.1354   0.154289
 H 0.856 0.3649 0.5375   0.107402
 H 0.7972 0.314 0.4391   0.113633
 H 0.1792 0.3228 0.3872   0.115642
 H 0.2393 0.3732 0.4849   0.093476
 H 0.1829 0.4456 0.5797   0.149254
 H 0.033 0.4687 0.5948   0.152837
 H 0.8858 0.2279 0.3384   0.154365
 H 0.0197 0.2708 0.3131   0.149325
 H 0.6784 0.2942 0.9072   0.106625
 H 0.7325 0.3744 0.9976   0.09572
 H 0.3478 0.3827 0.0441   0.098497
 H 0.292 0.308 0.9526   0.104737
 H 0.3934 0.1829 0.8699   0.152652
 H 0.5244 0.2206 0.8391   0.151951
 H 0.6749 0.4571 0.0886   0.157276
 H 0.5264 0.4914 0.0959   0.149305
 H 0.9143 0.8554 0.5281   0.092172
 H 0.9931 0.1296 0.5684   0.12181
 H 0.8634 0.913 0.6296   0.145609
 H 0.7965 0.0137 0.6238   0.145305
 H 0.0499 0.3423 0.9796   0.09579
 H 0.9035 0.5908 0.9253   0.105101
 H 0.9298 0.3455 0.8842   0.155988
 H 0.8559 0.4383 0.8646   0.154289
 C 0.4465 0.876 0.5215   0.13531
 C 0.5783 0.857 0.5073   -0.122162
 C 0.6132 0.8263 0.4482   -0.131517
 C 0.5188 0.8138 0.4027   0.137002
 C 0.3865 0.8315 0.4174   -0.139435
 C 0.3506 0.8619 0.4758   -0.124011
 C 0.4054 0.9175 0.5839   -0.406625
 C 0.4011 0.8516 0.6358   0.767944
 C 0.5597 0.785 0.3376   -0.386849
 C 0.6369 0.8625 0.3084   0.730263
 C 0.0209 0.7921 0.9195   0.139654
 C 0.8895 0.8125 0.9346   -0.133806
 C 0.8567 0.8593 0.9894   -0.128331
 C 0.9531 0.8839 0.0318   0.143289
 C 0.0846 0.8647 0.0165   -0.118132
 C 0.1183 0.8199 0.9616   -0.125638
 C 0.0574 0.7401 0.8601   -0.400745
 C 0.1408 0.798 0.8166   0.75509
 C 0.9171 0.9353 0.0916   -0.402956
 C 0.9305 0.8792 0.1493   0.774082
 C 0.5545 0.4898 0.5592   0.130661
 C 0.5507 0.4138 0.517   -0.12679
 C 0.5039 0.5772 0.5411   -0.116799
 C 0.6188 0.4796 0.6224   -0.369718
 C 0.526 0.5196 0.6719   0.778031
 C 0.5314 0.9586 0.9423   0.144809
 C 0.4711 0.9059 0.9877   -0.125079
 C 0.5581 0.0537 0.9555   -0.12331
 C 0.5599 0.9136 0.8799   -0.402516
 C 0.4519 0.9316 0.8333   0.770318
 C 0.9465 0.624 0.4785   0.13531
 C 0.0783 0.643 0.4927   -0.122162
 C 0.1132 0.6737 0.5518   -0.131517
 C 0.0188 0.6862 0.5973   0.137003
 C 0.8865 0.6685 0.5826   -0.139435
 C 0.8506 0.6381 0.5242   -0.12401
 C 0.9054 0.5825 0.4161   -0.406625
 C 0.9011 0.6484 0.3642   0.767944
 C 0.0597 0.715 0.6624   -0.386849
 C 0.1369 0.6375 0.6916   0.730263
 C 0.5209 0.7079 0.0805   0.139654
 C 0.3895 0.6875 0.0654   -0.133806
 C 0.3567 0.6407 0.0106   -0.128331
 C 0.4531 0.6161 0.9682   0.143289
 C 0.5846 0.6353 0.9835   -0.118132
 C 0.6183 0.6801 0.0384   -0.125638
 C 0.5574 0.7599 0.1399   -0.400745
 C 0.6408 0.702 0.1834   0.75509
 C 0.4171 0.5647 0.9084   -0.402956
 C 0.4305 0.6208 0.8507   0.774082
 C 0.0545 0.0102 0.4408   0.130662
 C 0.0507 0.0862 0.483   -0.12679
 C 0.0039 0.9228 0.4589   -0.116799
 C 0.1188 0.0204 0.3776   -0.369718
 C 0.026 0.9804 0.3281   0.778031
 C 0.0314 0.5414 0.0577   0.144809
 C 0.9711 0.5941 0.0123   -0.125079
 C 0.0581 0.4463 0.0445   -0.12331
 C 0.0599 0.5864 0.1201   -0.402516
 C 0.9519 0.5684 0.1667   0.770318
 C 0.5535 0.124 0.4785   0.135309
 C 0.4217 0.143 0.4927   -0.122162
 C 0.3868 0.1737 0.5518   -0.131516
 C 0.4812 0.1862 0.5973   0.137003
 C 0.6135 0.1685 0.5826   -0.139435
 C 0.6494 0.1381 0.5242   -0.12401
 C 0.5946 0.0825 0.4161   -0.406626
 C 0.5989 0.1484 0.3642   0.767944
 C 0.4403 0.215 0.6624   -0.386849
 C 0.3631 0.1375 0.6916   0.730263
 C 0.9791 0.2079 0.0805   0.139654
 C 0.1105 0.1875 0.0654   -0.133806
 C 0.1433 0.1407 0.0106   -0.128331
 C 0.0469 0.1161 0.9682   0.143289
 C 0.9154 0.1353 0.9835   -0.118133
 C 0.8817 0.1801 0.0384   -0.125638
 C 0.9426 0.2599 0.1399   -0.400745
 C 0.8592 0.202 0.1834   0.75509
 C 0.0829 0.0647 0.9084   -0.402957
 C 0.0695 0.1208 0.8507   0.774082
 C 0.4455 0.5102 0.4408   0.13066
 C 0.4493 0.5862 0.483   -0.126783
 C 0.4961 0.4228 0.4589   -0.116793
 C 0.3812 0.5204 0.3776   -0.369719
 C 0.474 0.4804 0.3281   0.778031
 C 0.4686 0.0414 0.0577   0.144807
 C 0.5289 0.0941 0.0123   -0.12507
 C 0.4419 0.9463 0.0445   -0.123302
 C 0.4401 0.0864 0.1201   -0.402517
 C 0.5481 0.0684 0.1667   0.770318
 C 0.0535 0.376 0.5215   0.135309
 C 0.9217 0.357 0.5073   -0.122162
 C 0.8868 0.3263 0.4482   -0.131516
 C 0.9812 0.3138 0.4027   0.137003
 C 0.1135 0.3315 0.4174   -0.139436
 C 0.1494 0.3619 0.4758   -0.12401
 C 0.0946 0.4175 0.5839   -0.406626
 C 0.0989 0.3516 0.6358   0.767944
 C 0.9403 0.285 0.3376   -0.386848
 C 0.8631 0.3625 0.3084   0.730263
 C 0.4791 0.2921 0.9195   0.139653
 C 0.6105 0.3125 0.9346   -0.133806
 C 0.6433 0.3593 0.9894   -0.128331
 C 0.5469 0.3839 0.0318   0.143289
 C 0.4154 0.3647 0.0165   -0.118133
 C 0.3817 0.3199 0.9616   -0.125637
 C 0.4426 0.2401 0.8601   -0.400745
 C 0.3592 0.298 0.8166   0.75509
 C 0.5829 0.4353 0.0916   -0.402957
 C 0.5695 0.3792 0.1493   0.774082
 C 0.9455 0.9898 0.5592   0.13066
 C 0.9493 0.9138 0.517   -0.126783
 C 0.9961 0.0772 0.5411   -0.116793
 C 0.8812 0.9796 0.6224   -0.369719
 C 0.974 0.0196 0.6719   0.778031
 C 0.9686 0.4586 0.9423   0.144807
 C 0.0289 0.4059 0.9877   -0.12507
 C 0.9419 0.5537 0.9555   -0.123302
 C 0.9401 0.4136 0.8799   -0.402517
 C 0.0481 0.4316 0.8333   0.770318
 O 0.4812 0.7848 0.6413   -0.618415
 O 0.3156 0.8645 0.6781   -0.649445
 O 0.7636 0.8651 0.3098   -0.653814
 O 0.5746 0.9312 0.2859   -0.58099
 O 0.2338 0.7602 0.7897   -0.591608
 O 0.1069 0.8823 0.8077   -0.60395
 O 0.986 0.8018 0.1507   -0.638002
 O 0.8801 0.9142 0.1991   -0.676359
 O 0.4363 0.4655 0.6896   -0.60295
 O 0.5463 0.6028 0.6911   -0.632501
 O 0.4524 0.884 0.7828   -0.688646
 O 0.3667 0.9935 0.8421   -0.609919
 O 0.9812 0.7152 0.3587   -0.618415
 O 0.8156 0.6355 0.3219   -0.649445
 O 0.2636 0.6349 0.6902   -0.653814
 O 0.0746 0.5688 0.7141   -0.58099
 O 0.7338 0.7398 0.2103   -0.591608
 O 0.6069 0.6177 0.1923   -0.60395
 O 0.486 0.6982 0.8493   -0.638002
 O 0.3801 0.5858 0.8009   -0.676359
 O 0.9363 0.0345 0.3104   -0.60295
 O 0.0463 0.8972 0.3089   -0.632501
 O 0.9524 0.616 0.2172   -0.688646
 O 0.8667 0.5065 0.1579   -0.609919
 O 0.5188 0.2152 0.3587   -0.618415
 O 0.6844 0.1355 0.3219   -0.649445
 O 0.2364 0.1349 0.6902   -0.653814
 O 0.4254 0.0688 0.7141   -0.58099
 O 0.7662 0.2398 0.2103   -0.591608
 O 0.8931 0.1177 0.1923   -0.60395
 O 0.014 0.1982 0.8493   -0.638002
 O 0.1199 0.0858 0.8009   -0.676359
 O 0.5637 0.5345 0.3104   -0.60295
 O 0.4537 0.3972 0.3089   -0.632501
 O 0.5476 0.116 0.2172   -0.688646
 O 0.6333 0.0065 0.1579   -0.609919
 O 0.0188 0.2848 0.6413   -0.618415
 O 0.1844 0.3645 0.6781   -0.649445
 O 0.7364 0.3651 0.3098   -0.653814
 O 0.9254 0.4312 0.2859   -0.58099
 O 0.2662 0.2602 0.7897   -0.591608
 O 0.3931 0.3823 0.8077   -0.60395
 O 0.514 0.3018 0.1507   -0.638002
 O 0.6199 0.4142 0.1991   -0.676359
 O 0.0637 0.9655 0.6896   -0.60295
 O 0.9537 0.1028 0.6911   -0.632501
 O 0.0476 0.384 0.7828   -0.688646
 O 0.1333 0.4935 0.8421   -0.609919
