{'_ref': 'TBD', '_srcid': 'CAKYAQ_clean', 'submitters': [{'name': 'Dalar Nazarian Jeff Camp and David Sholl', 'email': 'dalar@gatech.edu jcamp6@gatech.edu'}], '_method': 'VASP DFT with PBE;DDEC'}
data_Pr2Mn3H18C42(NO4)6
_symmetry_space_group_name_H-M   'P 1'
_cell_length_a   15.51200000
_cell_length_b   15.51199995
_cell_length_c   15.64500000
_cell_angle_alpha   90.00000000
_cell_angle_beta   90.00000000
_cell_angle_gamma   120.00000012
_symmetry_Int_Tables_number   1
_chemical_formula_structural   Pr2Mn3H18C42(NO4)6
_chemical_formula_sum   'Pr4 Mn6 H36 C84 N12 O48'
_cell_volume   3260.18157952
_cell_formula_units_Z   2
loop_
 _symmetry_equiv_pos_site_id
 _symmetry_equiv_pos_as_xyz
  1  'x, y, z'
loop_
 _atom_site_label
 _atom_site_fract_x
 _atom_site_fract_y
 _atom_site_fract_z
 _atom_site_charge
 Pr 0.33333 0.66666 0.75   2.110727
 Pr 0.66667 0.33334 0.75   2.110727
 Pr 0.66667 0.33334 0.25   2.110726
 Pr 0.33333 0.66666 0.25   2.110726
 Mn 0.5 0.5 0.0   1.266616
 Mn 0.0 0.5 0.0   1.266526
 Mn 0.5 0.0 0.0   1.265705
 Mn 0.0 0.5 0.5   1.266617
 Mn 0.5 0.5 0.5   1.266528
 Mn 0.5 0.0 0.5   1.265701
 H 0.2328 0.2863 0.8414   0.11396
 H 0.0535 0.7672 0.8414   0.113965
 H 0.7137 0.9465 0.8414   0.11396
 H 0.7672 0.7137 0.8414   0.113959
 H 0.9465 0.2328 0.8414   0.113965
 H 0.2863 0.0535 0.8414   0.113959
 H 0.9465 0.7137 0.6586   0.11396
 H 0.2863 0.2328 0.6586   0.113965
 H 0.7672 0.0535 0.6586   0.11396
 H 0.0535 0.2863 0.6586   0.113959
 H 0.7137 0.7672 0.6586   0.113965
 H 0.2328 0.9465 0.6586   0.113959
 H 0.7672 0.7137 0.1586   0.113958
 H 0.9465 0.2328 0.1586   0.113964
 H 0.2863 0.0535 0.1586   0.113959
 H 0.2328 0.2863 0.1586   0.113958
 H 0.0535 0.7672 0.1586   0.113964
 H 0.7137 0.9465 0.1586   0.113958
 H 0.0535 0.2863 0.3414   0.113958
 H 0.7137 0.7672 0.3414   0.113964
 H 0.2328 0.9465 0.3414   0.113959
 H 0.9465 0.7137 0.3414   0.113958
 H 0.2863 0.2328 0.3414   0.113964
 H 0.7672 0.0535 0.3414   0.113958
 H 0.10035 0.2007 0.75   0.083435
 H 0.10035 0.89965 0.75   0.083462
 H 0.7993 0.89965 0.75   0.083462
 H 0.89965 0.7993 0.75   0.083432
 H 0.89965 0.10035 0.75   0.083459
 H 0.2007 0.10035 0.75   0.083459
 H 0.89965 0.7993 0.25   0.083435
 H 0.89965 0.10035 0.25   0.083463
 H 0.2007 0.10035 0.25   0.083462
 H 0.10035 0.2007 0.25   0.083432
 H 0.10035 0.89965 0.25   0.083459
 H 0.7993 0.89965 0.25   0.083459
 C 0.2633 0.4236 0.8034   0.134989
 C 0.3512 0.4875 0.8606   0.673149
 C 0.2133 0.3204 0.8044   -0.122193
 C 0.1603 0.7367 0.8034   0.135033
 C 0.1363 0.6488 0.8606   0.673175
 C 0.1071 0.7867 0.8044   -0.122178
 C 0.5764 0.8397 0.8034   0.134955
 C 0.5125 0.8637 0.8606   0.673066
 C 0.6796 0.8929 0.8044   -0.122172
 C 0.7367 0.5764 0.8034   0.134989
 C 0.6488 0.5125 0.8606   0.673149
 C 0.7867 0.6796 0.8044   -0.122193
 C 0.8397 0.2633 0.8034   0.135033
 C 0.8637 0.3512 0.8606   0.673175
 C 0.8929 0.2133 0.8044   -0.122178
 C 0.4236 0.1603 0.8034   0.134955
 C 0.4875 0.1363 0.8606   0.673066
 C 0.3204 0.1071 0.8044   -0.122172
 C 0.8397 0.5764 0.6966   0.134989
 C 0.8637 0.5125 0.6394   0.673149
 C 0.8929 0.6796 0.6956   -0.122194
 C 0.4236 0.2633 0.6966   0.135033
 C 0.4875 0.3512 0.6394   0.673175
 C 0.3204 0.2133 0.6956   -0.122178
 C 0.7367 0.1603 0.6966   0.134955
 C 0.6488 0.1363 0.6394   0.673066
 C 0.7867 0.1071 0.6956   -0.122172
 C 0.1603 0.4236 0.6966   0.134989
 C 0.1363 0.4875 0.6394   0.673149
 C 0.1071 0.3204 0.6956   -0.122193
 C 0.5764 0.7367 0.6966   0.135033
 C 0.5125 0.6488 0.6394   0.673175
 C 0.6796 0.7867 0.6956   -0.122177
 C 0.2633 0.8397 0.6966   0.134955
 C 0.3512 0.8637 0.6394   0.673066
 C 0.2133 0.8929 0.6956   -0.122171
 C 0.7367 0.5764 0.1966   0.134989
 C 0.6488 0.5125 0.1394   0.673148
 C 0.7867 0.6796 0.1956   -0.122193
 C 0.8397 0.2633 0.1966   0.135033
 C 0.8637 0.3512 0.1394   0.673175
 C 0.8929 0.2133 0.1956   -0.122177
 C 0.4236 0.1603 0.1966   0.134955
 C 0.4875 0.1363 0.1394   0.673066
 C 0.3204 0.1071 0.1956   -0.122171
 C 0.2633 0.4236 0.1966   0.134989
 C 0.3512 0.4875 0.1394   0.673148
 C 0.2133 0.3204 0.1956   -0.122193
 C 0.1603 0.7367 0.1966   0.135033
 C 0.1363 0.6488 0.1394   0.673175
 C 0.1071 0.7867 0.1956   -0.122177
 C 0.5764 0.8397 0.1966   0.134955
 C 0.5125 0.8637 0.1394   0.673066
 C 0.6796 0.8929 0.1956   -0.122172
 C 0.1603 0.4236 0.3034   0.134989
 C 0.1363 0.4875 0.3606   0.673149
 C 0.1071 0.3204 0.3044   -0.122193
 C 0.5764 0.7367 0.3034   0.135033
 C 0.5125 0.6488 0.3606   0.673176
 C 0.6796 0.7867 0.3044   -0.122177
 C 0.2633 0.8397 0.3034   0.134955
 C 0.3512 0.8637 0.3606   0.673065
 C 0.2133 0.8929 0.3044   -0.122172
 C 0.8397 0.5764 0.3034   0.134989
 C 0.8637 0.5125 0.3606   0.673149
 C 0.8929 0.6796 0.3044   -0.122192
 C 0.4236 0.2633 0.3034   0.135033
 C 0.4875 0.3512 0.3606   0.673176
 C 0.3204 0.2133 0.3044   -0.122177
 C 0.7367 0.1603 0.3034   0.134955
 C 0.6488 0.1363 0.3606   0.673065
 C 0.7867 0.1071 0.3044   -0.122171
 C 0.13495 0.2699 0.75   -0.021898
 C 0.13495 0.86505 0.75   -0.021837
 C 0.7301 0.86505 0.75   -0.021837
 C 0.86505 0.7301 0.75   -0.021897
 C 0.86505 0.13495 0.75   -0.021836
 C 0.2699 0.13495 0.75   -0.021836
 C 0.86505 0.7301 0.25   -0.021898
 C 0.86505 0.13495 0.25   -0.021838
 C 0.2699 0.13495 0.25   -0.021837
 C 0.13495 0.2699 0.25   -0.021897
 C 0.13495 0.86505 0.25   -0.021836
 C 0.7301 0.86505 0.25   -0.021836
 N 0.2372 0.4744 0.75   -0.409933
 N 0.2372 0.7628 0.75   -0.409738
 N 0.5256 0.7628 0.75   -0.409738
 N 0.7628 0.5256 0.75   -0.409933
 N 0.7628 0.2372 0.75   -0.409738
 N 0.4744 0.2372 0.75   -0.409738
 N 0.7628 0.5256 0.25   -0.409933
 N 0.7628 0.2372 0.25   -0.409738
 N 0.4744 0.2372 0.25   -0.409738
 N 0.2372 0.4744 0.25   -0.409933
 N 0.2372 0.7628 0.25   -0.409738
 N 0.5256 0.7628 0.25   -0.409738
 O 0.3832 0.4441 0.9049   -0.620479
 O 0.3839 0.5807 0.8573   -0.673779
 O 0.0609 0.6168 0.9049   -0.620441
 O 0.1968 0.6161 0.8573   -0.673889
 O 0.5559 0.9391 0.9049   -0.620264
 O 0.4193 0.8032 0.8573   -0.673617
 O 0.6168 0.5559 0.9049   -0.620479
 O 0.6161 0.4193 0.8573   -0.673779
 O 0.9391 0.3832 0.9049   -0.620441
 O 0.8032 0.3839 0.8573   -0.673889
 O 0.4441 0.0609 0.9049   -0.620264
 O 0.5807 0.1968 0.8573   -0.673617
 O 0.9391 0.5559 0.5951   -0.62048
 O 0.8032 0.4193 0.6427   -0.673779
 O 0.4441 0.3832 0.5951   -0.620442
 O 0.5807 0.3839 0.6427   -0.673889
 O 0.6168 0.0609 0.5951   -0.620264
 O 0.6161 0.1968 0.6427   -0.673616
 O 0.0609 0.4441 0.5951   -0.62048
 O 0.1968 0.5807 0.6427   -0.673779
 O 0.5559 0.6168 0.5951   -0.620442
 O 0.4193 0.6161 0.6427   -0.673889
 O 0.3832 0.9391 0.5951   -0.620264
 O 0.3839 0.8032 0.6427   -0.673616
 O 0.6168 0.5559 0.0951   -0.62048
 O 0.6161 0.4193 0.1427   -0.673779
 O 0.9391 0.3832 0.0951   -0.620441
 O 0.8032 0.3839 0.1427   -0.673889
 O 0.4441 0.0609 0.0951   -0.620264
 O 0.5807 0.1968 0.1427   -0.673617
 O 0.3832 0.4441 0.0951   -0.62048
 O 0.3839 0.5807 0.1427   -0.673779
 O 0.0609 0.6168 0.0951   -0.620441
 O 0.1968 0.6161 0.1427   -0.673889
 O 0.5559 0.9391 0.0951   -0.620264
 O 0.4193 0.8032 0.1427   -0.673617
 O 0.0609 0.4441 0.4049   -0.62048
 O 0.1968 0.5807 0.3573   -0.673779
 O 0.5559 0.6168 0.4049   -0.620442
 O 0.4193 0.6161 0.3573   -0.673889
 O 0.3832 0.9391 0.4049   -0.620264
 O 0.3839 0.8032 0.3573   -0.673616
 O 0.9391 0.5559 0.4049   -0.62048
 O 0.8032 0.4193 0.3573   -0.673779
 O 0.4441 0.3832 0.4049   -0.620442
 O 0.5807 0.3839 0.3573   -0.673889
 O 0.6168 0.0609 0.4049   -0.620264
 O 0.6161 0.1968 0.3573   -0.673616
