{'_ref': 'TBD', '_srcid': 'CAKYAQ_clean', 'submitters': [{'name': 'Dalar Nazarian Jeff Camp and David Sholl', 'email': 'dalar@gatech.edu jcamp6@gatech.edu'}], '_method': 'VASP DFT with PBE;DDEC'}
data_ZnH7C13(NO2)2
_symmetry_space_group_name_H-M   'P 1'
_cell_length_a   13.92100000
_cell_length_b   16.51039982
_cell_length_c   18.99400000
_cell_angle_alpha   113.25400031
_cell_angle_beta   90.00000000
_cell_angle_gamma   114.93399951
_symmetry_Int_Tables_number   1
_chemical_formula_structural   ZnH7C13(NO2)2
_chemical_formula_sum   'Zn8 H56 C104 N16 O32'
_cell_volume   3563.79413831
_cell_formula_units_Z   8
loop_
 _symmetry_equiv_pos_site_id
 _symmetry_equiv_pos_as_xyz
  1  'x, y, z'
loop_
 _atom_site_label
 _atom_site_fract_x
 _atom_site_fract_y
 _atom_site_fract_z
 _atom_site_charge
 Zn 0.08095 0.46952 0.89768   0.973388
 Zn 0.55865 0.43474 0.16064   0.994757
 Zn 0.61143 0.53048 0.60232   0.973281
 Zn 0.12391 0.56526 0.33936   0.994676
 Zn 0.91905 0.53048 0.10232   0.973388
 Zn 0.44135 0.56526 0.83936   0.994757
 Zn 0.38857 0.46952 0.39768   0.973281
 Zn 0.87609 0.43474 0.66064   0.994676
 H 0.4861 0.761 0.7165   0.08983
 H 0.3631 0.8248 0.7364   0.099618
 H 0.1823 0.7204 0.7131   0.102274
 H 0.1551 0.2626 0.696   0.098491
 H 0.1634 0.1752 0.5672   0.094793
 H 0.2206 0.2564 0.489   0.09887
 H 0.2105 0.6504 0.0439   0.075251
 H 0.2941 0.8214 0.0889   0.133431
 H 0.1931 0.7852 0.8795   0.139759
 H 0.0982 0.6168 0.8426   0.081018
 H 0.3387 0.2788 0.157   0.098467
 H 0.2469 0.1126 0.1215   0.147724
 H 0.5028 0.0826 0.0551   0.110591
 H 0.5976 0.2548 0.094   0.086931
 H 0.7251 0.239 0.7835   0.089204
 H 0.5383 0.1752 0.7636   0.098798
 H 0.4619 0.2796 0.7869   0.102625
 H 0.8925 0.7374 0.804   0.098456
 H 0.9882 0.8248 0.9328   0.094895
 H 0.9642 0.7436 0.011   0.098755
 H 0.5601 0.3496 0.4561   0.075254
 H 0.4727 0.1786 0.4111   0.133858
 H 0.4079 0.2148 0.6205   0.139938
 H 0.4814 0.3832 0.6574   0.081599
 H 0.0599 0.7212 0.343   0.098668
 H 0.1343 0.8874 0.3785   0.147668
 H 0.4202 0.9174 0.4449   0.110555
 H 0.3428 0.7452 0.406   0.087032
 H 0.5139 0.239 0.2835   0.08983
 H 0.6369 0.1752 0.2636   0.099618
 H 0.8177 0.2796 0.2869   0.102274
 H 0.8449 0.7374 0.304   0.098488
 H 0.8366 0.8248 0.4328   0.094793
 H 0.7794 0.7436 0.511   0.098869
 H 0.7895 0.3496 0.9561   0.075251
 H 0.7059 0.1786 0.9111   0.133432
 H 0.8069 0.2148 0.1205   0.139759
 H 0.9018 0.3832 0.1574   0.081018
 H 0.6613 0.7212 0.843   0.098467
 H 0.7531 0.8874 0.8785   0.147723
 H 0.4972 0.9174 0.9449   0.110592
 H 0.4024 0.7452 0.906   0.086931
 H 0.2749 0.761 0.2165   0.089204
 H 0.4617 0.8248 0.2364   0.098798
 H 0.5381 0.7204 0.2131   0.102625
 H 0.1075 0.2626 0.196   0.098454
 H 0.0118 0.1752 0.0672   0.094896
 H 0.0358 0.2564 0.989   0.098754
 H 0.4399 0.6504 0.5439   0.075254
 H 0.5273 0.8214 0.5889   0.133859
 H 0.5921 0.7852 0.3795   0.139938
 H 0.5186 0.6168 0.3426   0.081599
 H 0.9401 0.2788 0.657   0.098668
 H 0.8657 0.1126 0.6215   0.147667
 H 0.5798 0.0826 0.5551   0.110556
 H 0.6572 0.2548 0.594   0.087032
 C 0.4555 0.5778 0.681   0.665971
 C 0.38 0.6206 0.691   -0.175978
 C 0.4132 0.7192 0.7102   -0.033628
 C 0.3392 0.7572 0.7204   -0.147848
 C 0.2316 0.695 0.7067   -0.01918
 C 0.1943 0.5938 0.6834   -0.129418
 C 0.2668 0.5548 0.6755   0.096212
 C 0.0731 0.5292 0.6674   0.648887
 C 0.2032 0.4482 0.7771   0.727874
 C 0.2071 0.3946 0.6946   -0.159287
 C 0.178 0.2954 0.6644   -0.030043
 C 0.182 0.2422 0.5867   -0.144296
 C 0.214 0.2904 0.5396   -0.051652
 C 0.2365 0.3898 0.5669   -0.110737
 C 0.2347 0.4438 0.6458   0.073228
 C 0.2683 0.4356 0.5104   0.65153
 C 0.2047 0.6774 0.0104   0.237185
 C 0.2556 0.7804 0.0377   -0.256052
 C 0.2486 0.8202 0.9889   0.232106
 C 0.1948 0.7598 0.915   -0.255521
 C 0.1412 0.6582 0.8924   0.224159
 C 0.3735 0.2398 0.1366   0.218481
 C 0.3176 0.1398 0.1143   -0.235
 C 0.3644 0.0804 0.082   0.238045
 C 0.4684 0.122 0.0754   -0.243938
 C 0.526 0.2264 0.0994   0.190015
 C 0.8777 0.4222 0.819   0.665443
 C 0.7594 0.3794 0.809   -0.174031
 C 0.694 0.2808 0.7898   -0.034133
 C 0.582 0.2428 0.7796   -0.146429
 C 0.5366 0.305 0.7933   -0.020267
 C 0.6005 0.4062 0.8166   -0.129646
 C 0.712 0.4452 0.8245   0.096581
 C 0.5439 0.4708 0.8326   0.649613
 C 0.755 0.5518 0.7229   0.729174
 C 0.8125 0.6054 0.8054   -0.159527
 C 0.8826 0.7046 0.8356   -0.029807
 C 0.9398 0.7578 0.9133   -0.144104
 C 0.9236 0.7096 0.9604   -0.052688
 C 0.8467 0.6102 0.9331   -0.108606
 C 0.7909 0.5562 0.8542   0.072307
 C 0.8327 0.5644 0.9896   0.649794
 C 0.5273 0.3226 0.4896   0.238221
 C 0.4752 0.2196 0.4623   -0.256796
 C 0.4284 0.1798 0.5111   0.231957
 C 0.435 0.2402 0.585   -0.25572
 C 0.483 0.3418 0.6076   0.223677
 C 0.1337 0.7602 0.3634   0.218418
 C 0.1778 0.8602 0.3857   -0.235494
 C 0.284 0.9196 0.418   0.238686
 C 0.3464 0.878 0.4246   -0.243974
 C 0.2996 0.7736 0.4006   0.189767
 C 0.5445 0.4222 0.319   0.665971
 C 0.62 0.3794 0.309   -0.175978
 C 0.5868 0.2808 0.2898   -0.033628
 C 0.6608 0.2428 0.2796   -0.147848
 C 0.7684 0.305 0.2933   -0.01918
 C 0.8057 0.4062 0.3166   -0.129418
 C 0.7332 0.4452 0.3245   0.096212
 C 0.9269 0.4708 0.3326   0.648888
 C 0.7968 0.5518 0.2229   0.727874
 C 0.7929 0.6054 0.3054   -0.159287
 C 0.822 0.7046 0.3356   -0.030042
 C 0.818 0.7578 0.4133   -0.144297
 C 0.786 0.7096 0.4604   -0.051652
 C 0.7635 0.6102 0.4331   -0.110737
 C 0.7653 0.5562 0.3542   0.073228
 C 0.7317 0.5644 0.4896   0.65153
 C 0.7953 0.3226 0.9896   0.237185
 C 0.7444 0.2196 0.9623   -0.256052
 C 0.7514 0.1798 0.0111   0.232106
 C 0.8052 0.2402 0.085   -0.255521
 C 0.8588 0.3418 0.1076   0.224159
 C 0.6265 0.7602 0.8634   0.21848
 C 0.6824 0.8602 0.8857   -0.235
 C 0.6356 0.9196 0.918   0.238045
 C 0.5316 0.878 0.9246   -0.243938
 C 0.474 0.7736 0.9006   0.190015
 C 0.1223 0.5778 0.181   0.665443
 C 0.2406 0.6206 0.191   -0.174031
 C 0.306 0.7192 0.2102   -0.034133
 C 0.418 0.7572 0.2204   -0.146429
 C 0.4634 0.695 0.2067   -0.020267
 C 0.3995 0.5938 0.1834   -0.129646
 C 0.288 0.5548 0.1755   0.096581
 C 0.4561 0.5292 0.1674   0.649613
 C 0.245 0.4482 0.2771   0.729174
 C 0.1875 0.3946 0.1946   -0.159528
 C 0.1174 0.2954 0.1644   -0.029806
 C 0.0602 0.2422 0.0867   -0.144104
 C 0.0764 0.2904 0.0396   -0.052688
 C 0.1533 0.3898 0.0669   -0.108606
 C 0.2091 0.4438 0.1458   0.072307
 C 0.1673 0.4356 0.0104   0.649795
 C 0.4727 0.6774 0.5104   0.238221
 C 0.5248 0.7804 0.5377   -0.256796
 C 0.5716 0.8202 0.4889   0.231958
 C 0.565 0.7598 0.415   -0.25572
 C 0.517 0.6582 0.3924   0.223677
 C 0.8663 0.2398 0.6366   0.218418
 C 0.8222 0.1398 0.6143   -0.235494
 C 0.716 0.0804 0.582   0.238686
 C 0.6536 0.122 0.5754   -0.243974
 C 0.7004 0.2264 0.5994   0.189767
 N 0.14862 0.61752 0.93858   -0.355316
 N 0.30458 0.92446 0.00911   -0.064838
 N 0.3004 0.97506 0.06067   -0.104749
 N 0.47772 0.28414 0.12989   -0.357167
 N 0.5311 0.38248 0.56142   -0.355875
 N 0.38012 0.07554 0.49089   -0.064166
 N 0.32534 0.02494 0.43933   -0.105559
 N 0.19358 0.71586 0.37011   -0.356867
 N 0.85138 0.38248 0.06142   -0.355316
 N 0.69542 0.07554 0.99089   -0.064838
 N 0.6996 0.02494 0.93933   -0.104749
 N 0.52228 0.71586 0.87011   -0.357167
 N 0.4689 0.61752 0.43858   -0.355875
 N 0.61988 0.92446 0.50911   -0.064166
 N 0.67466 0.97506 0.56067   -0.105559
 N 0.80642 0.28414 0.62989   -0.356867
 O 0.51433 0.5904 0.63003   -0.576605
 O 0.46616 0.53644 0.72137   -0.590497
 O 0.28221 0.52974 0.82271   -0.645833
 O 0.11842 0.40438 0.79958   -0.577881
 O 0.01114 0.5706 0.6815   -0.593996
 O 0.0342 0.43762 0.64185   -0.56594
 O 0.22329 0.48596 0.50524   -0.594766
 O 0.33453 0.41556 0.47097   -0.608788
 O 0.92393 0.4096 0.86997   -0.57647
 O 0.92972 0.46356 0.77863   -0.590576
 O 0.75247 0.47026 0.67729   -0.646559
 O 0.71404 0.59562 0.70042   -0.578539
 O 0.44054 0.4294 0.8185   -0.594206
 O 0.59658 0.56238 0.85815   -0.566331
 O 0.73733 0.51404 0.99476   -0.594544
 O 0.91897 0.58444 0.02903   -0.607916
 O 0.48567 0.4096 0.36997   -0.576605
 O 0.53384 0.46356 0.27863   -0.590497
 O 0.71779 0.47026 0.17729   -0.645833
 O 0.88158 0.59562 0.20042   -0.577881
 O 0.98886 0.4294 0.3185   -0.593996
 O 0.9658 0.56238 0.35815   -0.56594
 O 0.77671 0.51404 0.49476   -0.594766
 O 0.66547 0.58444 0.52903   -0.608788
 O 0.07607 0.5904 0.13003   -0.57647
 O 0.07028 0.53644 0.22137   -0.590576
 O 0.24753 0.52974 0.32271   -0.646559
 O 0.28596 0.40438 0.29958   -0.578539
 O 0.55946 0.5706 0.1815   -0.594206
 O 0.40342 0.43762 0.14185   -0.566331
 O 0.26267 0.48596 0.00524   -0.594544
 O 0.08103 0.41556 0.97097   -0.607916
