{'_ref': 'TBD', '_srcid': 'CAKYAQ_clean', 'submitters': [{'name': 'Dalar Nazarian Jeff Camp and David Sholl', 'email': 'dalar@gatech.edu jcamp6@gatech.edu'}], '_method': 'VASP DFT with PBE;DDEC'}
data_MnH9C15NO4
_symmetry_space_group_name_H-M   'P 1'
_cell_length_a   7.84939982
_cell_length_b   9.98760034
_cell_length_c   12.60670000
_cell_angle_alpha   104.13099986
_cell_angle_beta   91.09400318
_cell_angle_gamma   111.88200068
_symmetry_Int_Tables_number   1
_chemical_formula_structural   MnH9C15NO4
_chemical_formula_sum   'Mn2 H18 C30 N2 O8'
_cell_volume   882.686249689
_cell_formula_units_Z   2
loop_
 _symmetry_equiv_pos_site_id
 _symmetry_equiv_pos_as_xyz
  1  'x, y, z'
loop_
 _atom_site_label
 _atom_site_fract_x
 _atom_site_fract_y
 _atom_site_fract_z
 _atom_site_charge
 Mn 0.98193 0.27892 0.46437   1.055968
 Mn 0.01807 0.72108 0.53563   1.055968
 H 0.4653 0.8064 0.4582   0.103157
 H 0.6282 0.8706 0.1679   0.10616
 H 0.2509 0.4766 0.1822   0.094057
 H 0.4799 0.6709 0.9936   0.080464
 H 0.2682 0.3866 0.0189   0.087491
 H 0.9067 0.1694 0.6824   0.083701
 H 0.0297 0.2264 0.8636   0.139574
 H 0.4142 0.5983 0.8221   0.133917
 H 0.2798 0.5294 0.6443   0.080709
 H 0.5347 0.1936 0.5418   0.103157
 H 0.3718 0.1294 0.8321   0.10616
 H 0.7491 0.5234 0.8178   0.094057
 H 0.5201 0.3291 0.0064   0.080463
 H 0.7318 0.6134 0.9811   0.087491
 H 0.0933 0.8306 0.3176   0.083701
 H 0.9703 0.7736 0.1364   0.139574
 H 0.5858 0.4017 0.1779   0.133917
 H 0.7202 0.4706 0.3557   0.080709
 C 0.2114 0.5384 0.3954   0.68031
 C 0.3328 0.6316 0.3299   -0.155042
 C 0.4558 0.7718 0.3819   -0.010326
 C 0.5695 0.866 0.322   -0.109032
 C 0.712 0.0171 0.3797   0.659155
 C 0.5578 0.8092 0.209   -0.080461
 C 0.4428 0.6624 0.1562   -0.013363
 C 0.3299 0.5748 0.2171   -0.079127
 C 0.4746 0.6007 0.0371   -0.022731
 C 0.3505 0.4391 0.9718   -0.080366
 C 0.0117 0.2565 0.7103   0.211891
 C 0.086 0.2893 0.8199   -0.230234
 C 0.2439 0.4163 0.862   0.125601
 C 0.3125 0.5083 0.7957   -0.209301
 C 0.2292 0.4661 0.6887   0.207875
 C 0.7886 0.4616 0.6046   0.68031
 C 0.6672 0.3684 0.6701   -0.155042
 C 0.5442 0.2282 0.6181   -0.010326
 C 0.4305 0.134 0.678   -0.109032
 C 0.288 0.9829 0.6203   0.659155
 C 0.4422 0.1908 0.791   -0.080461
 C 0.5572 0.3376 0.8438   -0.013363
 C 0.6701 0.4252 0.7829   -0.079129
 C 0.5254 0.3993 0.9629   -0.022732
 C 0.6495 0.5609 0.0282   -0.080367
 C 0.9883 0.7435 0.2897   0.211891
 C 0.914 0.7107 0.1801   -0.230236
 C 0.7561 0.5837 0.138   0.125601
 C 0.6875 0.4917 0.2043   -0.209301
 C 0.7708 0.5339 0.3113   0.207875
 N 0.0817 0.3413 0.645   -0.417018
 N 0.9183 0.6587 0.355   -0.417018
 O 0.1287 0.4003 0.3522   -0.592157
 O 0.1967 0.6001 0.4929   -0.628122
 O 0.7781 0.0431 0.4753   -0.609525
 O 0.763 0.1144 0.3267   -0.613223
 O 0.8713 0.5997 0.6478   -0.592157
 O 0.8033 0.3999 0.5071   -0.628122
 O 0.2219 0.9569 0.5247   -0.609525
 O 0.237 0.8856 0.6733   -0.613223
