{'_ref': 'TBD', '_srcid': 'CAKYAQ_clean', 'submitters': [{'name': 'Dalar Nazarian Jeff Camp and David Sholl', 'email': 'dalar@gatech.edu jcamp6@gatech.edu'}], '_method': 'VASP DFT with PBE;DDEC'}
data_ZnCu4(CN)6
_symmetry_space_group_name_H-M   'P 1'
_cell_length_a   9.47899957
_cell_length_b   9.47899996
_cell_length_c   16.38690000
_cell_angle_alpha   88.64220048
_cell_angle_beta   88.64220043
_cell_angle_gamma   83.20919860
_symmetry_Int_Tables_number   1
_chemical_formula_structural   ZnCu4(CN)6
_chemical_formula_sum   'Zn2 Cu8 C12 N12'
_cell_volume   1461.32267229
_cell_formula_units_Z   2
loop_
 _symmetry_equiv_pos_site_id
 _symmetry_equiv_pos_as_xyz
  1  'x, y, z'
loop_
 _atom_site_label
 _atom_site_fract_x
 _atom_site_fract_y
 _atom_site_fract_z
 _atom_site_charge
 Zn 0.0 0.0 0.5   1.056286
 Zn 0.0 0.0 0.0   1.056286
 Cu 0.13631 0.49227 0.50206   0.321193
 Cu 0.50773 0.86369 0.99794   0.321193
 Cu 0.86369 0.50773 0.49794   0.321194
 Cu 0.49227 0.13631 0.00206   0.321194
 Cu 0.36396 0.63604 0.75   0.201611
 Cu 0.63604 0.36396 0.25   0.201611
 Cu 0.39785 0.60215 0.25   0.215258
 Cu 0.60215 0.39785 0.75   0.215258
 C 0.2825 0.5705 0.6603   -0.065585
 C 0.0421 0.3173 0.5111   0.106767
 C 0.306 0.5366 0.3399   -0.066246
 C 0.4295 0.7175 0.8397   -0.065585
 C 0.6827 0.9579 0.9889   0.106767
 C 0.4634 0.694 0.1601   -0.066246
 C 0.7175 0.4295 0.3397   -0.065585
 C 0.9579 0.6827 0.4889   0.106767
 C 0.694 0.4634 0.6601   -0.066246
 C 0.5705 0.2825 0.1603   -0.065585
 C 0.3173 0.0421 0.0111   0.106767
 C 0.5366 0.306 0.8399   -0.066246
 N 0.2294 0.5424 0.6022   -0.282853
 N 0.0266 0.2022 0.5145   -0.46565
 N 0.244 0.5156 0.3988   -0.284204
 N 0.4576 0.7706 0.8978   -0.282853
 N 0.7978 0.9734 0.9855   -0.46565
 N 0.4844 0.756 0.1012   -0.284204
 N 0.7706 0.4576 0.3978   -0.282853
 N 0.9734 0.7978 0.4855   -0.46565
 N 0.756 0.4844 0.6012   -0.284204
 N 0.5424 0.2294 0.1022   -0.282853
 N 0.2022 0.0266 0.0145   -0.46565
 N 0.5156 0.244 0.8988   -0.284204
