{'_ref': 'TBD', '_srcid': 'CAKYAQ_clean', 'submitters': [{'name': 'Dalar Nazarian Jeff Camp and David Sholl', 'email': 'dalar@gatech.edu jcamp6@gatech.edu'}], '_method': 'VASP DFT with PBE;DDEC'}
data_DyH6(C2O)6
_symmetry_space_group_name_H-M   'P 1'
_cell_length_a   10.73830025
_cell_length_b   11.28080044
_cell_length_c   26.13800000
_cell_angle_alpha   85.11100206
_cell_angle_beta   88.14799992
_cell_angle_gamma   62.41499850
_symmetry_Int_Tables_number   1
_chemical_formula_structural   DyH6(C2O)6
_chemical_formula_sum   'Dy6 H36 C72 O36'
_cell_volume   2796.04090466
_cell_formula_units_Z   6
loop_
 _symmetry_equiv_pos_site_id
 _symmetry_equiv_pos_as_xyz
  1  'x, y, z'
loop_
 _atom_site_label
 _atom_site_fract_x
 _atom_site_fract_y
 _atom_site_fract_z
 _atom_site_charge
 Dy 0.61982 0.46422 0.93967   2.337736
 Dy 0.58851 0.88282 0.60037   2.271665
 Dy 0.65625 0.65355 0.75815   2.355692
 Dy 0.38018 0.53578 0.06033   2.337736
 Dy 0.41149 0.11718 0.39963   2.271664
 Dy 0.34375 0.34645 0.24185   2.355692
 H 0.5457 0.0926 0.9243   0.098986
 H 0.4553 0.1125 0.0741   0.113283
 H 0.9622 0.4944 0.95   0.08398
 H 0.1759 0.4847 0.973   0.095217
 H 0.1452 0.7339 0.8495   0.120591
 H 0.9275 0.7503 0.8296   0.116853
 H 0.662 0.1416 0.8541   0.103574
 H 0.6332 0.9823 0.8128   0.107055
 H 0.5412 0.219 0.6817   0.130766
 H 0.5658 0.3777 0.7231   0.102699
 H 0.079 0.669 0.7505   0.082777
 H 0.2914 0.6713 0.7408   0.089728
 H 0.1867 0.8326 0.5965   0.114054
 H 0.9801 0.8165 0.6049   0.095942
 H 0.866 0.132 0.5637   0.107028
 H 0.9432 0.8474 0.4673   0.112821
 H 0.6432 0.4303 0.5724   0.102847
 H 0.4067 0.7195 0.4655   0.106237
 H 0.4543 0.9074 0.0757   0.098986
 H 0.5447 0.8875 0.9259   0.113282
 H 0.0378 0.5056 0.05   0.08398
 H 0.8241 0.5153 0.027   0.095217
 H 0.8548 0.2661 0.1505   0.120591
 H 0.0725 0.2497 0.1704   0.116853
 H 0.338 0.8584 0.1459   0.103574
 H 0.3668 0.0177 0.1872   0.107055
 H 0.4588 0.781 0.3183   0.130766
 H 0.4342 0.6223 0.2769   0.102699
 H 0.921 0.331 0.2495   0.082777
 H 0.7086 0.3287 0.2592   0.089728
 H 0.8133 0.1674 0.4035   0.114054
 H 0.0199 0.1835 0.3951   0.095942
 H 0.134 0.868 0.4363   0.107028
 H 0.0568 0.1526 0.5327   0.11282
 H 0.3568 0.5697 0.4276   0.102846
 H 0.5933 0.2805 0.5345   0.106237
 C 0.5102 0.2537 0.99879   0.796233
 C 0.5049 0.121 0.99891   -0.144763
 C 0.5282 0.0549 0.95498   -0.052784
 C 0.4742 0.0673 0.04438   -0.068949
 C 0.7918 0.6228 0.87289   0.841396
 C 0.9248 0.6216 0.88845   -0.161259
 C 0.9981 0.5436 0.93001   -0.016484
 C 0.1282 0.5354 0.94349   -0.078441
 C 0.1834 0.6039 0.91219   -0.111046
 C 0.1088 0.6857 0.86979   -0.059034
 C 0.9785 0.6952 0.85783   -0.033173
 C 0.3234 0.5858 0.9243   0.764247
 C 0.6311 0.3824 0.81945   0.869902
 C 0.6165 0.2772 0.79247   -0.182178
 C 0.6367 0.1575 0.81956   -0.050702
 C 0.6189 0.0624 0.79478   -0.064924
 C 0.5801 0.0856 0.74354   -0.128229
 C 0.5634 0.2039 0.71649   -0.036333
 C 0.5798 0.2979 0.7413   -0.038741
 C 0.5593 0.9821 0.71745   0.826346
 C 0.8709 0.7349 0.68392   0.838092
 C 0.0071 0.7407 0.67794   -0.151706
 C 0.1012 0.6999 0.71919   -0.059874
 C 0.2268 0.7051 0.71376   -0.072553
 C 0.2587 0.7596 0.66897   -0.136883
 C 0.1658 0.7994 0.62756   -0.039574
 C 0.0415 0.7894 0.63278   -0.005959
 C 0.3895 0.7749 0.66453   0.855292
 C 0.7679 0.964 0.5437   0.662314
 C 0.8858 0.9846 0.51936   -0.094778
 C 0.9204 0.0786 0.53823   -0.075173
 C 0.9665 0.9084 0.48066   -0.055544
 C 0.561 0.6907 0.54605   0.697464
 C 0.5291 0.592 0.52285   -0.106264
 C 0.5857 0.4584 0.54343   -0.074708
 C 0.4442 0.6311 0.47945   -0.065322
 C 0.4898 0.7463 0.00121   0.796233
 C 0.4951 0.879 0.00109   -0.144763
 C 0.4718 0.9451 0.04502   -0.052782
 C 0.5258 0.9327 0.95562   -0.068947
 C 0.2082 0.3772 0.12711   0.841396
 C 0.0752 0.3784 0.11155   -0.161259
 C 0.0019 0.4564 0.06999   -0.016484
 C 0.8718 0.4646 0.05651   -0.078441
 C 0.8166 0.3961 0.08781   -0.111046
 C 0.8912 0.3143 0.13021   -0.059034
 C 0.0215 0.3048 0.14217   -0.033173
 C 0.6766 0.4142 0.0757   0.764247
 C 0.3689 0.6176 0.18055   0.869902
 C 0.3835 0.7228 0.20753   -0.182178
 C 0.3633 0.8425 0.18044   -0.050702
 C 0.3811 0.9376 0.20522   -0.064924
 C 0.4199 0.9144 0.25646   -0.128229
 C 0.4366 0.7961 0.28351   -0.036333
 C 0.4202 0.7021 0.2587   -0.038741
 C 0.4407 0.0179 0.28255   0.826346
 C 0.1291 0.2651 0.31608   0.838092
 C 0.9929 0.2593 0.32206   -0.151707
 C 0.8988 0.3001 0.28081   -0.059874
 C 0.7732 0.2949 0.28624   -0.072553
 C 0.7413 0.2404 0.33103   -0.136883
 C 0.8342 0.2006 0.37244   -0.039575
 C 0.9585 0.2106 0.36722   -0.005958
 C 0.6105 0.2251 0.33547   0.855292
 C 0.2321 0.036 0.4563   0.662315
 C 0.1142 0.0154 0.48064   -0.094782
 C 0.0796 0.9214 0.46177   -0.075162
 C 0.0335 0.0916 0.51934   -0.055533
 C 0.439 0.3093 0.45395   0.697464
 C 0.4709 0.408 0.47715   -0.106266
 C 0.4143 0.5416 0.45657   -0.074702
 C 0.5558 0.3689 0.52055   -0.065316
 O 0.5749 0.2787 0.96189   -0.757788
 O 0.4547 0.3218 0.03521   -0.722476
 O 0.7566 0.5446 0.89951   -0.831847
 O 0.7265 0.6939 0.83464   -0.762027
 O 0.3697 0.5498 0.97032   -0.924421
 O 0.4042 0.591 0.88909   -0.641555
 O 0.6656 0.3556 0.86582   -0.770932
 O 0.606 0.4898 0.79435   -0.865334
 O 0.5641 0.8841 0.74503   -0.796841
 O 0.5358 0.0022 0.6702   -0.739312
 O 0.8415 0.6972 0.7257   -0.808588
 O 0.7933 0.7646 0.64441   -0.78054
 O 0.4871 0.7071 0.69509   -0.883947
 O 0.3948 0.8558 0.62966   -0.719886
 O 0.6444 0.6525 0.58402   -0.724614
 O 0.5055 0.8105 0.52792   -0.695925
 O 0.6973 0.0319 0.57932   -0.709803
 O 0.7443 0.872 0.52791   -0.699621
 O 0.4251 0.7213 0.03811   -0.757788
 O 0.5453 0.6782 0.96479   -0.722476
 O 0.2434 0.4554 0.10049   -0.831847
 O 0.2735 0.3061 0.16536   -0.762027
 O 0.6303 0.4502 0.02968   -0.924421
 O 0.5958 0.409 0.11091   -0.641555
 O 0.3344 0.6444 0.13418   -0.770932
 O 0.394 0.5102 0.20565   -0.865334
 O 0.4359 0.1159 0.25497   -0.796841
 O 0.4642 0.9978 0.3298   -0.739312
 O 0.1585 0.3028 0.2743   -0.808588
 O 0.2067 0.2354 0.35559   -0.78054
 O 0.5129 0.2929 0.30491   -0.883947
 O 0.6052 0.1442 0.37034   -0.719886
 O 0.3556 0.3475 0.41598   -0.724614
 O 0.4945 0.1895 0.47208   -0.695925
 O 0.3027 0.9681 0.42068   -0.709803
 O 0.2557 0.128 0.47209   -0.699622
