{'_ref': 'TBD', '_srcid': 'CAKYAQ_clean', 'submitters': [{'name': 'Dalar Nazarian Jeff Camp and David Sholl', 'email': 'dalar@gatech.edu jcamp6@gatech.edu'}], '_method': 'VASP DFT with PBE;DDEC'}
data_ErH6(C2O)6
_symmetry_space_group_name_H-M   'P 1'
_cell_length_a   10.70980018
_cell_length_b   11.24489965
_cell_length_c   26.06600000
_cell_angle_alpha   84.99799799
_cell_angle_beta   88.13499798
_cell_angle_gamma   62.65999895
_symmetry_Int_Tables_number   1
_chemical_formula_structural   ErH6(C2O)6
_chemical_formula_sum   'Er6 H36 C72 O36'
_cell_volume   2777.77296939
_cell_formula_units_Z   6
loop_
 _symmetry_equiv_pos_site_id
 _symmetry_equiv_pos_as_xyz
  1  'x, y, z'
loop_
 _atom_site_label
 _atom_site_fract_x
 _atom_site_fract_y
 _atom_site_fract_z
 _atom_site_charge
 Er 0.41153 0.61717 0.89973   1.455568
 Er 0.34426 0.8459 0.74171   1.580179
 Er 0.38133 0.03485 0.56025   1.507443
 Er 0.58847 0.38283 0.10027   1.455568
 Er 0.65574 0.1541 0.25829   1.580179
 Er 0.61867 0.96515 0.43975   1.507443
 H 0.5415 0.3901 0.4252   0.11565
 H 0.452 0.4077 0.5756   0.098106
 H 0.4333 0.1197 0.7779   0.1036
 H 0.4611 0.2815 0.8187   0.114747
 H 0.3361 0.358 0.6461   0.103783
 H 0.3651 0.5192 0.6865   0.110863
 H 0.0376 0.0076 0.5492   0.088522
 H 0.8234 0.0202 0.5271   0.102634
 H 0.0737 0.7468 0.6701   0.107792
 H 0.8552 0.7661 0.6506   0.112811
 H 0.8134 0.6663 0.9036   0.098253
 H 0.0164 0.6893 0.8968   0.085834
 H 0.7118 0.8234 0.7578   0.107359
 H 0.9214 0.8334 0.7496   0.094011
 H 0.5948 0.779 0.0348   0.100225
 H 0.3594 0.066 0.9273   0.109581
 H 0.0557 0.6554 0.0309   0.116177
 H 0.1312 0.3724 0.9347   0.111237
 H 0.4585 0.6099 0.5748   0.115649
 H 0.548 0.5923 0.4244   0.098105
 H 0.5667 0.8803 0.2221   0.1036
 H 0.5389 0.7185 0.1813   0.114748
 H 0.6639 0.642 0.3539   0.103783
 H 0.6349 0.4808 0.3135   0.110863
 H 0.9624 0.9924 0.4508   0.088522
 H 0.1766 0.9798 0.4729   0.102634
 H 0.9263 0.2532 0.3299   0.107792
 H 0.1448 0.2339 0.3494   0.112811
 H 0.1866 0.3337 0.0964   0.098253
 H 0.9836 0.3107 0.1032   0.085834
 H 0.2882 0.1766 0.2422   0.107359
 H 0.0786 0.1666 0.2504   0.094011
 H 0.4052 0.221 0.9652   0.100224
 H 0.6406 0.934 0.0727   0.10958
 H 0.9443 0.3446 0.9691   0.116177
 H 0.8688 0.6276 0.0653   0.111237
 C 0.4876 0.2473 0.50095   0.687585
 C 0.4946 0.3786 0.50104   -0.108612
 C 0.5246 0.4341 0.45522   -0.059871
 C 0.4712 0.4451 0.54503   -0.052862
 C 0.3692 0.1173 0.68027   0.741102
 C 0.384 0.2222 0.70752   -0.142829
 C 0.4203 0.1994 0.75954   -0.054888
 C 0.437 0.2965 0.78397   -0.048182
 C 0.3624 0.3422 0.68071   -0.047675
 C 0.3794 0.4392 0.70485   -0.053841
 C 0.4179 0.4161 0.75667   -0.132202
 C 0.44 0.5191 0.78278   0.723089
 C 0.2104 0.8768 0.62725   0.73823
 C 0.0771 0.8771 0.61139   -0.138752
 C 0.0016 0.9581 0.56929   -0.030427
 C 0.8723 0.9672 0.55619   -0.080141
 C 0.0226 0.803 0.64194   -0.048979
 C 0.8924 0.8138 0.63001   -0.064282
 C 0.8174 0.8958 0.58733   -0.095596
 C 0.6737 0.9176 0.57485   0.67615
 C 0.609 0.7251 0.83506   0.729138
 C 0.7423 0.7406 0.83142   -0.112885
 C 0.8343 0.7009 0.87267   -0.052335
 C 0.9576 0.7123 0.86822   -0.030045
 C 0.7747 0.793 0.78541   -0.063056
 C 0.8998 0.8 0.78067   -0.042901
 C 0.9946 0.7573 0.82201   -0.122871
 C 0.1309 0.7657 0.81717   0.721599
 C 0.4391 0.8084 0.95338   0.61402
 C 0.4706 0.908 0.97731   -0.105061
 C 0.5563 0.8677 0.02084   -0.044274
 C 0.4158 0.0393 0.95668   -0.058407
 C 0.234 0.5355 0.95606   0.602206
 C 0.1149 0.515 0.98058   -0.100986
 C 0.034 0.5919 0.01858   -0.046415
 C 0.0792 0.4233 0.96115   -0.059737
 C 0.5124 0.7527 0.49905   0.687585
 C 0.5054 0.6214 0.49896   -0.108613
 C 0.4754 0.5659 0.54478   -0.059866
 C 0.5288 0.5549 0.45497   -0.052858
 C 0.6308 0.8827 0.31973   0.741102
 C 0.616 0.7778 0.29248   -0.142829
 C 0.5797 0.8006 0.24046   -0.054888
 C 0.563 0.7035 0.21603   -0.048182
 C 0.6376 0.6578 0.31929   -0.047675
 C 0.6206 0.5608 0.29515   -0.053841
 C 0.5821 0.5839 0.24333   -0.132202
 C 0.56 0.4809 0.21722   0.723089
 C 0.7896 0.1232 0.37275   0.73823
 C 0.9229 0.1229 0.38861   -0.138752
 C 0.9984 0.0419 0.43071   -0.030427
 C 0.1277 0.0328 0.44381   -0.080141
 C 0.9774 0.197 0.35806   -0.048979
 C 0.1076 0.1862 0.36999   -0.064282
 C 0.1826 0.1042 0.41267   -0.095596
 C 0.3263 0.0824 0.42515   0.67615
 C 0.391 0.2749 0.16494   0.729138
 C 0.2577 0.2594 0.16858   -0.112885
 C 0.1657 0.2991 0.12733   -0.052335
 C 0.0424 0.2877 0.13178   -0.030044
 C 0.2253 0.207 0.21459   -0.063056
 C 0.1002 0.2 0.21933   -0.042901
 C 0.0054 0.2427 0.17799   -0.122871
 C 0.8691 0.2343 0.18283   0.721599
 C 0.5609 0.1916 0.04662   0.61402
 C 0.5294 0.092 0.02269   -0.105063
 C 0.4437 0.1323 0.97916   -0.044268
 C 0.5842 0.9607 0.04332   -0.058401
 C 0.766 0.4645 0.04394   0.602207
 C 0.8851 0.485 0.01942   -0.100986
 C 0.966 0.4081 0.98142   -0.046414
 C 0.9208 0.5767 0.03885   -0.059736
 O 0.42667 0.21794 0.53808   -0.578383
 O 0.54282 0.17962 0.46457   -0.536953
 O 0.33516 0.14382 0.63347   -0.583776
 O 0.39494 0.00748 0.70575   -0.702084
 O 0.43575 0.61675 0.75508   -0.606164
 O 0.46279 0.49842 0.83005   -0.587729
 O 0.24602 0.95356 0.60023   -0.645842
 O 0.27425 0.80515 0.66574   -0.651746
 O 0.62949 0.95225 0.52938   -0.695776
 O 0.59463 0.9111 0.61053   -0.541067
 O 0.51204 0.79485 0.80428   -0.661232
 O 0.60394 0.64481 0.87015   -0.578361
 O 0.16167 0.80152 0.77409   -0.648917
 O 0.20696 0.73388 0.85669   -0.615112
 O 0.35606 0.84485 0.91569   -0.511518
 O 0.49752 0.68691 0.97174   -0.491994
 O 0.25661 0.62912 0.97192   -0.504677
 O 0.30239 0.46881 0.92098   -0.518059
 O 0.57333 0.78206 0.46192   -0.578383
 O 0.45718 0.82038 0.53543   -0.536953
 O 0.66484 0.85618 0.36653   -0.583776
 O 0.60506 0.99252 0.29425   -0.702084
 O 0.56425 0.38325 0.24492   -0.606164
 O 0.53721 0.50158 0.16995   -0.587729
 O 0.75398 0.04644 0.39977   -0.645842
 O 0.72575 0.19485 0.33426   -0.651746
 O 0.37051 0.04775 0.47062   -0.695776
 O 0.40537 0.0889 0.38947   -0.541067
 O 0.48796 0.20515 0.19572   -0.661232
 O 0.39606 0.35519 0.12985   -0.578361
 O 0.83833 0.19848 0.22591   -0.648917
 O 0.79304 0.26612 0.14331   -0.615112
 O 0.64394 0.15515 0.08431   -0.511518
 O 0.50248 0.31309 0.02826   -0.491994
 O 0.74339 0.37088 0.02808   -0.504677
 O 0.69761 0.53119 0.07902   -0.518059
