{'_ref': 'TBD', '_srcid': 'CAKYAQ_clean', 'submitters': [{'name': 'Dalar Nazarian Jeff Camp and David Sholl', 'email': 'dalar@gatech.edu jcamp6@gatech.edu'}], '_method': 'VASP DFT with PBE;DDEC'}
data_ZnH24C36NO4
_symmetry_space_group_name_H-M   'P 1'
_cell_length_a   9.67789975
_cell_length_b   14.63410029
_cell_length_c   14.63410000
_cell_angle_alpha   83.72290057
_cell_angle_beta   70.69109966
_cell_angle_gamma   70.69100173
_symmetry_Int_Tables_number   1
_chemical_formula_structural   ZnH24C36NO4
_chemical_formula_sum   'Zn2 H48 C72 N2 O8'
_cell_volume   1845.97775789
_cell_formula_units_Z   2
loop_
 _symmetry_equiv_pos_site_id
 _symmetry_equiv_pos_as_xyz
  1  'x, y, z'
loop_
 _atom_site_label
 _atom_site_fract_x
 _atom_site_fract_y
 _atom_site_fract_z
 _atom_site_charge
 Zn 0.84755 0.0 0.0   0.918655
 Zn 0.15245 0.0 0.0   0.918653
 H 0.5742 0.2212 0.2212   0.068147
 H 0.4562 0.3382 0.3382   0.094718
 H 0.0166 0.7788 0.7788   0.068169
 H 0.1326 0.6618 0.6618   0.095403
 H 0.7954 0.7788 0.2212   0.067481
 H 0.7944 0.6618 0.3382   0.095449
 H 0.7954 0.2212 0.7788   0.067501
 H 0.7944 0.3382 0.6618   0.095446
 H 0.4258 0.7788 0.7788   0.068147
 H 0.5438 0.6618 0.6618   0.094718
 H 0.9834 0.2212 0.2212   0.068169
 H 0.8674 0.3382 0.3382   0.095403
 H 0.2046 0.7788 0.2212   0.067501
 H 0.2056 0.6618 0.3382   0.095446
 H 0.2046 0.2212 0.7788   0.067481
 H 0.2056 0.3382 0.6618   0.095449
 H 0.5618 0.6656 0.2108   0.088569
 H 0.6187 0.5091 0.2535   0.098548
 H 0.4382 0.3344 0.7892   0.088569
 H 0.3813 0.4909 0.7465   0.098548
 H 0.7726 0.7892 0.6656   0.087891
 H 0.8722 0.7465 0.5091   0.098222
 H 0.2274 0.2108 0.3344   0.087891
 H 0.1278 0.2535 0.4909   0.098222
 H 0.4382 0.7892 0.3344   0.088571
 H 0.3813 0.7465 0.4909   0.098549
 H 0.5618 0.2108 0.6656   0.088571
 H 0.6187 0.2535 0.5091   0.098549
 H 0.2274 0.3344 0.2108   0.087892
 H 0.1278 0.4909 0.2535   0.098222
 H 0.7726 0.6656 0.7892   0.087892
 H 0.8722 0.5091 0.7465   0.098222
 H 0.6888 0.8544 0.0   0.23519
 H 0.5432 0.1456 0.0   0.23554
 H 0.6888 0.0 0.8544   0.23519
 H 0.5432 0.0 0.1456   0.235552
 H 0.3112 0.0 0.1456   0.235191
 H 0.4568 0.0 0.8544   0.235551
 H 0.3112 0.1456 0.0   0.23519
 H 0.4568 0.8544 0.0   0.235541
 H 0.607 0.892 0.108   0.236761
 H 0.607 0.108 0.892   0.236756
 H 0.715 0.892 0.892   0.236246
 H 0.499 0.108 0.108   0.236375
 H 0.393 0.892 0.108   0.236756
 H 0.393 0.108 0.892   0.236762
 H 0.285 0.108 0.108   0.236246
 H 0.501 0.892 0.892   0.236375
 C 0.6062 0.908 0.0398   -0.253188
 C 0.554 0.092 0.9602   -0.254398
 C 0.646 0.9602 0.908   -0.253212
 C 0.5142 0.0398 0.092   -0.254071
 C 0.3938 0.9602 0.092   -0.25321
 C 0.446 0.0398 0.908   -0.254472
 C 0.354 0.092 0.0398   -0.253201
 C 0.4858 0.908 0.9602   -0.254069
 C 0.3938 0.092 0.9602   -0.250352
 C 0.446 0.908 0.0398   -0.251557
 C 0.354 0.0398 0.092   -0.250383
 C 0.4858 0.9602 0.908   -0.251228
 C 0.6062 0.0398 0.908   -0.250373
 C 0.554 0.9602 0.092   -0.25163
 C 0.646 0.908 0.9602   -0.250371
 C 0.5142 0.092 0.0398   -0.251226
 C 0.6341 0.2448 0.2448   -0.01359
 C 0.5633 0.3149 0.3149   -0.150065
 C 0.1237 0.7552 0.7552   -0.014451
 C 0.1931 0.6851 0.6851   -0.150706
 C 0.8789 0.7552 0.2448   -0.01197
 C 0.8782 0.6851 0.3149   -0.151927
 C 0.8789 0.2448 0.7552   -0.012005
 C 0.8782 0.3149 0.6851   -0.151915
 C 0.3659 0.7552 0.7552   -0.01359
 C 0.4367 0.6851 0.6851   -0.150065
 C 0.8763 0.2448 0.2448   -0.014451
 C 0.8069 0.3149 0.3149   -0.150706
 C 0.1211 0.7552 0.2448   -0.012005
 C 0.1218 0.6851 0.3149   -0.151915
 C 0.1211 0.2448 0.7552   -0.01197
 C 0.1218 0.3149 0.6851   -0.151927
 C 0.5717 0.4283 0.4283   -0.054238
 C 0.7914 0.2086 0.2086   -0.174567
 C 0.6489 0.3511 0.3511   0.100525
 C 0.8686 0.1314 0.1314   0.709358
 C 0.4283 0.5717 0.5717   -0.054239
 C 0.2086 0.7914 0.7914   -0.174567
 C 0.3511 0.6489 0.6489   0.100525
 C 0.1314 0.8686 0.8686   0.709358
 C 0.0 0.5717 0.4283   -0.052554
 C 0.0 0.7914 0.2086   -0.175593
 C 0.0 0.6489 0.3511   0.101334
 C 0.0 0.8686 0.1314   0.708316
 C 0.0 0.4283 0.5717   -0.052554
 C 0.0 0.2086 0.7914   -0.175593
 C 0.0 0.3511 0.6489   0.101334
 C 0.0 0.1314 0.8686   0.708316
 C 0.5378 0.6484 0.276   -0.091604
 C 0.571 0.5563 0.3017   -0.1077
 C 0.5366 0.5267 0.4001   0.021219
 C 0.4622 0.3516 0.724   -0.091604
 C 0.429 0.4437 0.6983   -0.1077
 C 0.4634 0.4733 0.5999   0.021219
 C 0.8138 0.724 0.6484   -0.090221
 C 0.8727 0.6983 0.5563   -0.108348
 C 0.9367 0.5999 0.5267   0.020783
 C 0.1862 0.276 0.3516   -0.090221
 C 0.1273 0.3017 0.4437   -0.108348
 C 0.0633 0.4001 0.4733   0.020783
 C 0.4622 0.724 0.3516   -0.091621
 C 0.429 0.6983 0.4437   -0.107696
 C 0.4634 0.5999 0.4733   0.021216
 C 0.5378 0.276 0.6484   -0.091621
 C 0.571 0.3017 0.5563   -0.107696
 C 0.5366 0.4001 0.5267   0.021216
 C 0.1862 0.3516 0.276   -0.090223
 C 0.1273 0.4437 0.3017   -0.10836
 C 0.0633 0.4733 0.4001   0.020809
 C 0.8138 0.6484 0.724   -0.090223
 C 0.8727 0.5563 0.6983   -0.10836
 C 0.9367 0.5267 0.5999   0.020809
 N 0.6342 0.0 0.0   0.413832
 N 0.3658 0.0 0.0   0.413833
 O 0.7829 0.1022 0.1022   -0.598222
 O 0.9873 0.8978 0.8978   -0.599397
 O 0.8851 0.8978 0.1022   -0.598494
 O 0.8851 0.1022 0.8978   -0.598498
 O 0.2171 0.8978 0.8978   -0.598222
 O 0.0127 0.1022 0.1022   -0.599397
 O 0.1149 0.8978 0.1022   -0.598498
 O 0.1149 0.1022 0.8978   -0.598493
