{'_ref': 'TBD', '_srcid': 'CAKYAQ_clean', 'submitters': [{'name': 'Dalar Nazarian Jeff Camp and David Sholl', 'email': 'dalar@gatech.edu jcamp6@gatech.edu'}], '_method': 'VASP DFT with PBE;DDEC'}
data_Bi6H6C18O17
_symmetry_space_group_name_H-M   'P 1'
_cell_length_a   10.62800000
_cell_length_b   12.12699971
_cell_length_c   25.05500000
_cell_angle_alpha   90.00000000
_cell_angle_beta   90.00000000
_cell_angle_gamma   90.23000111
_symmetry_Int_Tables_number   1
_chemical_formula_structural   Bi6H6C18O17
_chemical_formula_sum   'Bi24 H24 C72 O68'
_cell_volume   3229.2065207
_cell_formula_units_Z   4
loop_
 _symmetry_equiv_pos_site_id
 _symmetry_equiv_pos_as_xyz
  1  'x, y, z'
loop_
 _atom_site_label
 _atom_site_fract_x
 _atom_site_fract_y
 _atom_site_fract_z
 _atom_site_charge
 Bi 0.86 0.07803 0.00566   0.973834
 Bi 0.14937 0.26576 0.98564   1.419842
 Bi 0.86022 0.41591 0.01384   1.38408
 Bi 0.01431 0.09681 0.8713   1.297143
 Bi 0.97782 0.26776 0.12722   0.986178
 Bi 0.02419 0.4079 0.86693   1.588113
 Bi 0.64 0.92197 0.50566   0.973834
 Bi 0.35063 0.73424 0.48564   1.419842
 Bi 0.63978 0.58409 0.51384   1.38408
 Bi 0.48569 0.90319 0.3713   1.297143
 Bi 0.52218 0.73224 0.62722   0.986178
 Bi 0.47581 0.5921 0.36693   1.588113
 Bi 0.14 0.92197 0.99434   0.973836
 Bi 0.85063 0.73424 0.01436   1.419845
 Bi 0.13978 0.58409 0.98616   1.384079
 Bi 0.98569 0.90319 0.1287   1.297139
 Bi 0.02218 0.73224 0.87278   0.986175
 Bi 0.97581 0.5921 0.13307   1.588113
 Bi 0.36 0.07803 0.49434   0.973836
 Bi 0.64937 0.26576 0.51436   1.419845
 Bi 0.36022 0.41591 0.48616   1.384079
 Bi 0.51431 0.09681 0.6287   1.297139
 Bi 0.47782 0.26776 0.37278   0.986175
 Bi 0.52419 0.4079 0.63307   1.588113
 H 0.2877 0.3493 0.1959   0.10262
 H 0.6272 0.4801 0.2174   0.100065
 H 0.4789 0.4833 0.0702   0.110411
 H 0.5298 0.1439 0.9319   0.10724
 H 0.6713 0.3124 0.8051   0.109792
 H 0.3367 0.1637 0.7939   0.100798
 H 0.2123 0.6507 0.6959   0.10262
 H 0.8728 0.5199 0.7174   0.100065
 H 0.0211 0.5167 0.5702   0.110411
 H 0.9702 0.8561 0.4319   0.10724
 H 0.8287 0.6876 0.3051   0.109792
 H 0.1633 0.8363 0.2939   0.100798
 H 0.7123 0.6507 0.8041   0.10262
 H 0.3728 0.5199 0.7826   0.100065
 H 0.5211 0.5167 0.9298   0.110413
 H 0.4702 0.8561 0.0681   0.10724
 H 0.3287 0.6876 0.1949   0.109792
 H 0.6633 0.8363 0.2061   0.100797
 H 0.7877 0.3493 0.3041   0.10262
 H 0.1272 0.4801 0.2826   0.100065
 H 0.9789 0.4833 0.4298   0.110413
 H 0.0298 0.1439 0.5681   0.10724
 H 0.1713 0.3124 0.6949   0.109792
 H 0.8367 0.1637 0.7061   0.100797
 C 0.264 0.3793 0.0895   0.663571
 C 0.366 0.415 0.1279   -0.171218
 C 0.358 0.3848 0.1823   0.040319
 C 0.4594 0.4096 0.2141   -0.150405
 C 0.562 0.4619 0.1944   0.0445
 C 0.474 0.466 0.1063   0.025677
 C 0.573 0.4893 0.1407   -0.18381
 C 0.454 0.3721 0.2714   0.63381
 C 0.69 0.5377 0.1183   0.651429
 C 0.625 0.2248 0.8714   -0.141406
 C 0.524 0.1669 0.8966   -0.018086
 C 0.747 0.2445 0.9017   0.707432
 C 0.61 0.2668 0.8197   0.021772
 C 0.5069 0.2418 0.7914   -0.160513
 C 0.415 0.1461 0.8657   -0.159662
 C 0.408 0.1806 0.8141   0.021025
 C 0.492 0.2782 0.7341   0.659278
 C 0.3079 0.0905 0.8926   0.706145
 C 0.236 0.6207 0.5895   0.663571
 C 0.134 0.585 0.6279   -0.171218
 C 0.142 0.6152 0.6823   0.040319
 C 0.0406 0.5904 0.7141   -0.150405
 C 0.938 0.5381 0.6944   0.0445
 C 0.026 0.534 0.6063   0.025677
 C 0.927 0.5107 0.6407   -0.18381
 C 0.046 0.6279 0.7714   0.63381
 C 0.81 0.4623 0.6183   0.651429
 C 0.875 0.7752 0.3714   -0.141406
 C 0.976 0.8331 0.3966   -0.018086
 C 0.753 0.7555 0.4017   0.707432
 C 0.89 0.7332 0.3197   0.021772
 C 0.9931 0.7582 0.2914   -0.160513
 C 0.085 0.8539 0.3657   -0.159662
 C 0.092 0.8194 0.3141   0.021025
 C 0.008 0.7218 0.2341   0.659278
 C 0.1921 0.9095 0.3926   0.706145
 C 0.736 0.6207 0.9105   0.663571
 C 0.634 0.585 0.8721   -0.171218
 C 0.642 0.6152 0.8177   0.040319
 C 0.5406 0.5904 0.7859   -0.150405
 C 0.438 0.5381 0.8056   0.044499
 C 0.526 0.534 0.8937   0.025676
 C 0.427 0.5107 0.8593   -0.18381
 C 0.546 0.6279 0.7286   0.63381
 C 0.31 0.4623 0.8817   0.651428
 C 0.375 0.7752 0.1286   -0.141406
 C 0.476 0.8331 0.1034   -0.018086
 C 0.253 0.7555 0.0983   0.707432
 C 0.39 0.7332 0.1803   0.021772
 C 0.4931 0.7582 0.2086   -0.160513
 C 0.585 0.8539 0.1343   -0.159663
 C 0.592 0.8194 0.1859   0.021025
 C 0.508 0.7218 0.2659   0.659278
 C 0.6921 0.9095 0.1074   0.706145
 C 0.764 0.3793 0.4105   0.663571
 C 0.866 0.415 0.3721   -0.171218
 C 0.858 0.3848 0.3177   0.040319
 C 0.9594 0.4096 0.2859   -0.150405
 C 0.062 0.4619 0.3056   0.044499
 C 0.974 0.466 0.3937   0.025676
 C 0.073 0.4893 0.3593   -0.18381
 C 0.954 0.3721 0.2286   0.63381
 C 0.19 0.5377 0.3817   0.651428
 C 0.125 0.2248 0.6286   -0.141406
 C 0.024 0.1669 0.6034   -0.018086
 C 0.247 0.2445 0.5983   0.707432
 C 0.11 0.2668 0.6803   0.021772
 C 0.0069 0.2418 0.7086   -0.160513
 C 0.915 0.1461 0.6343   -0.159663
 C 0.908 0.1806 0.6859   0.021025
 C 0.992 0.2782 0.7659   0.659278
 C 0.8079 0.0905 0.6074   0.706145
 O 0.0506 0.4179 0.9736   -0.831415
 O 0.974 0.2295 0.0255   -0.919109
 O 0.0837 0.2514 0.9017   -0.859544
 O 0.2179 0.058 0.8613   -0.649325
 O 0.0236 0.0496 0.9545   -0.768569
 O 0.1884 0.3025 0.1047   -0.615449
 O 0.261 0.4169 0.0429   -0.595148
 O 0.5424 0.4041 0.3039   -0.581546
 O 0.367 0.3086 0.2879   -0.52624
 O 0.704 0.5534 0.0682   -0.627233
 O 0.7769 0.5604 0.1528   -0.53894
 O 0.8045 0.1584 0.9165   -0.6378
 O 0.7876 0.3408 0.9064   -0.665171
 O 0.419 0.2361 0.703   -0.622096
 O 0.571 0.3523 0.7186   -0.584704
 O 0.304 0.0735 0.9408   -0.633573
 O 0.932 0.4154 0.0929   -0.814109
 O 0.4494 0.5821 0.4736   -0.831415
 O 0.526 0.7705 0.5255   -0.919109
 O 0.4163 0.7486 0.4017   -0.859544
 O 0.2821 0.942 0.3613   -0.649325
 O 0.4764 0.9504 0.4545   -0.768569
 O 0.3116 0.6975 0.6047   -0.615449
 O 0.239 0.5831 0.5429   -0.595148
 O 0.9576 0.5959 0.8039   -0.581546
 O 0.133 0.6914 0.7879   -0.52624
 O 0.796 0.4466 0.5682   -0.627233
 O 0.7231 0.4396 0.6528   -0.53894
 O 0.6955 0.8416 0.4165   -0.6378
 O 0.7124 0.6592 0.4064   -0.665171
 O 0.081 0.7639 0.203   -0.622096
 O 0.929 0.6477 0.2186   -0.584704
 O 0.196 0.9265 0.4408   -0.633573
 O 0.568 0.5846 0.5929   -0.814109
 O 0.9494 0.5821 0.0264   -0.831415
 O 0.026 0.7705 0.9745   -0.919109
 O 0.9163 0.7486 0.0983   -0.859544
 O 0.7821 0.942 0.1387   -0.649325
 O 0.9764 0.9504 0.0455   -0.768569
 O 0.8116 0.6975 0.8953   -0.615448
 O 0.739 0.5831 0.9571   -0.595148
 O 0.4576 0.5959 0.6961   -0.581546
 O 0.633 0.6914 0.7121   -0.52624
 O 0.296 0.4466 0.9318   -0.627232
 O 0.2231 0.4396 0.8472   -0.53894
 O 0.1955 0.8416 0.0835   -0.6378
 O 0.2124 0.6592 0.0936   -0.665171
 O 0.581 0.7639 0.297   -0.622096
 O 0.429 0.6477 0.2814   -0.584704
 O 0.696 0.9265 0.0592   -0.633573
 O 0.068 0.5846 0.9071   -0.814109
 O 0.5506 0.4179 0.5264   -0.831415
 O 0.474 0.2295 0.4745   -0.919109
 O 0.5837 0.2514 0.5983   -0.859544
 O 0.7179 0.058 0.6387   -0.649325
 O 0.5236 0.0496 0.5455   -0.768569
 O 0.6884 0.3025 0.3953   -0.615448
 O 0.761 0.4169 0.4571   -0.595148
 O 0.0424 0.4041 0.1961   -0.581546
 O 0.867 0.3086 0.2121   -0.52624
 O 0.204 0.5534 0.4318   -0.627232
 O 0.2769 0.5604 0.3472   -0.53894
 O 0.3045 0.1584 0.5835   -0.6378
 O 0.2876 0.3408 0.5936   -0.665171
 O 0.919 0.2361 0.797   -0.622096
 O 0.071 0.3523 0.7814   -0.584704
 O 0.804 0.0735 0.5592   -0.633573
 O 0.432 0.4154 0.4071   -0.814109
