{'_ref': 'TBD', '_srcid': 'CAKYAQ_clean', 'submitters': [{'name': 'Dalar Nazarian Jeff Camp and David Sholl', 'email': 'dalar@gatech.edu jcamp6@gatech.edu'}], '_method': 'VASP DFT with PBE;DDEC'}
data_AgSbH14C22N4(OF3)2
_symmetry_space_group_name_H-M   'P 1'
_cell_length_a   17.09010000
_cell_length_b   17.09010000
_cell_length_c   23.98700000
_cell_angle_alpha   90.00000000
_cell_angle_beta   90.00000000
_cell_angle_gamma   90.00000000
_symmetry_Int_Tables_number   1
_chemical_formula_structural   AgSbH14C22N4(OF3)2
_chemical_formula_sum   'Ag8 Sb8 H112 C176 N32 O16 F48'
_cell_volume   7005.91950251
_cell_formula_units_Z   8
loop_
 _symmetry_equiv_pos_site_id
 _symmetry_equiv_pos_as_xyz
  1  'x, y, z'
loop_
 _atom_site_label
 _atom_site_fract_x
 _atom_site_fract_y
 _atom_site_fract_z
 _atom_site_charge
 Ag 0.1146 0.75 0.125   0.638008
 Ag 0.3854 0.75 0.625   0.638008
 Ag 0.25 0.6146 0.375   0.638008
 Ag 0.25 0.8854 0.875   0.638008
 Ag 0.6146 0.25 0.625   0.638008
 Ag 0.8854 0.25 0.125   0.638008
 Ag 0.75 0.1146 0.875   0.638008
 Ag 0.75 0.3854 0.375   0.638008
 Sb 0.69019 0.30981 0.0   2.14297
 Sb 0.80981 0.19019 0.5   2.14297
 Sb 0.69019 0.19019 0.25   2.14297
 Sb 0.80981 0.30981 0.75   2.14297
 Sb 0.19019 0.80981 0.5   2.14297
 Sb 0.30981 0.69019 0.0   2.14297
 Sb 0.19019 0.69019 0.75   2.14297
 Sb 0.30981 0.80981 0.25   2.14297
 H 0.844 0.57 0.7775   0.085255
 H 0.656 0.93 0.2775   0.085255
 H 0.43 0.344 0.0275   0.085255
 H 0.07 0.156 0.5275   0.085255
 H 0.656 0.57 0.9725   0.085255
 H 0.844 0.93 0.4725   0.085255
 H 0.07 0.344 0.7225   0.085255
 H 0.43 0.156 0.2225   0.085255
 H 0.344 0.07 0.2775   0.085255
 H 0.156 0.43 0.7775   0.085255
 H 0.93 0.844 0.5275   0.085255
 H 0.57 0.656 0.0275   0.085255
 H 0.156 0.07 0.4725   0.085255
 H 0.344 0.43 0.9725   0.085255
 H 0.57 0.844 0.2225   0.085255
 H 0.93 0.656 0.7225   0.085255
 H 0.9079 0.5031 0.7763   0.076256
 H 0.5921 0.9969 0.2763   0.076256
 H 0.4969 0.4079 0.0263   0.076256
 H 0.0031 0.0921 0.5263   0.076256
 H 0.5921 0.5031 0.9737   0.076256
 H 0.9079 0.9969 0.4737   0.076256
 H 0.0031 0.4079 0.7237   0.076256
 H 0.4969 0.0921 0.2237   0.076256
 H 0.4079 0.0031 0.2763   0.076256
 H 0.0921 0.4969 0.7763   0.076256
 H 0.9969 0.9079 0.5263   0.076256
 H 0.5031 0.5921 0.0263   0.076256
 H 0.0921 0.0031 0.4737   0.076256
 H 0.4079 0.4969 0.9737   0.076256
 H 0.5031 0.9079 0.2237   0.076256
 H 0.9969 0.5921 0.7237   0.076256
 H 0.8439 0.482 0.8525   0.12621
 H 0.6561 0.018 0.3525   0.12621
 H 0.518 0.3439 0.1025   0.12621
 H 0.982 0.1561 0.6025   0.12621
 H 0.6561 0.482 0.8975   0.12621
 H 0.8439 0.018 0.3975   0.12621
 H 0.982 0.3439 0.6475   0.12621
 H 0.518 0.1561 0.1475   0.12621
 H 0.3439 0.982 0.3525   0.12621
 H 0.1561 0.518 0.8525   0.12621
 H 0.018 0.8439 0.6025   0.12621
 H 0.482 0.6561 0.1025   0.12621
 H 0.1561 0.982 0.3975   0.12621
 H 0.3439 0.518 0.8975   0.12621
 H 0.482 0.8439 0.1475   0.12621
 H 0.018 0.6561 0.6475   0.12621
 H 0.8118 0.4471 0.9416   0.090039
 H 0.6882 0.0529 0.4416   0.090039
 H 0.5529 0.3118 0.1916   0.090039
 H 0.9471 0.1882 0.6916   0.090039
 H 0.6882 0.4471 0.8084   0.090039
 H 0.8118 0.0529 0.3084   0.090039
 H 0.9471 0.3118 0.5584   0.090039
 H 0.5529 0.1882 0.0584   0.090039
 H 0.3118 0.9471 0.4416   0.090039
 H 0.1882 0.5529 0.9416   0.090039
 H 0.0529 0.8118 0.6916   0.090039
 H 0.4471 0.6882 0.1916   0.090039
 H 0.1882 0.9471 0.3084   0.090039
 H 0.3118 0.5529 0.8084   0.090039
 H 0.4471 0.8118 0.0584   0.090039
 H 0.0529 0.6882 0.5584   0.090039
 H 0.8693 0.5105 0.0157   0.119352
 H 0.6307 0.9895 0.5157   0.119352
 H 0.4895 0.3693 0.2657   0.119352
 H 0.0105 0.1307 0.7657   0.119352
 H 0.6307 0.5105 0.7343   0.119352
 H 0.8693 0.9895 0.2343   0.119352
 H 0.0105 0.3693 0.4843   0.119352
 H 0.4895 0.1307 0.9843   0.119352
 H 0.3693 0.0105 0.5157   0.119352
 H 0.1307 0.4895 0.0157   0.119352
 H 0.9895 0.8693 0.7657   0.119352
 H 0.5105 0.6307 0.2657   0.119352
 H 0.1307 0.0105 0.2343   0.119352
 H 0.3693 0.4895 0.7343   0.119352
 H 0.5105 0.8693 0.9843   0.119352
 H 0.9895 0.6307 0.4843   0.119352
 H 0.9598 0.6042 0.0024   0.093333
 H 0.5402 0.8958 0.5024   0.093333
 H 0.3958 0.4598 0.2524   0.093333
 H 0.1042 0.0402 0.7524   0.093333
 H 0.5402 0.6042 0.7476   0.093333
 H 0.9598 0.8958 0.2476   0.093333
 H 0.1042 0.4598 0.4976   0.093333
 H 0.3958 0.0402 0.9976   0.093333
 H 0.4598 0.1042 0.5024   0.093333
 H 0.0402 0.3958 0.0024   0.093333
 H 0.8958 0.9598 0.7524   0.093333
 H 0.6042 0.5402 0.2524   0.093333
 H 0.0402 0.1042 0.2476   0.093333
 H 0.4598 0.3958 0.7476   0.093333
 H 0.6042 0.9598 0.9976   0.093333
 H 0.8958 0.5402 0.4976   0.093333
 H 0.0237 0.6715 0.8677   0.10514
 H 0.4763 0.8285 0.3677   0.10514
 H 0.3285 0.5237 0.1177   0.10514
 H 0.1715 0.9763 0.6177   0.10514
 H 0.4763 0.6715 0.8823   0.10514
 H 0.0237 0.8285 0.3823   0.10514
 H 0.1715 0.5237 0.6323   0.10514
 H 0.3285 0.9763 0.1323   0.10514
 H 0.5237 0.1715 0.3677   0.10514
 H 0.9763 0.3285 0.8677   0.10514
 H 0.8285 0.0237 0.6177   0.10514
 H 0.6715 0.4763 0.1177   0.10514
 H 0.9763 0.1715 0.3823   0.10514
 H 0.5237 0.3285 0.8823   0.10514
 H 0.6715 0.0237 0.1323   0.10514
 H 0.8285 0.4763 0.6323   0.10514
 C 0.8998 0.5593 0.7766   0.050567
 C 0.6002 0.9407 0.2766   0.050567
 C 0.4407 0.3998 0.0266   0.050567
 C 0.0593 0.1002 0.5266   0.050567
 C 0.6002 0.5593 0.9734   0.050567
 C 0.8998 0.9407 0.4734   0.050567
 C 0.0593 0.3998 0.7234   0.050567
 C 0.4407 0.1002 0.2234   0.050567
 C 0.3998 0.0593 0.2766   0.050567
 C 0.1002 0.4407 0.7766   0.050567
 C 0.9407 0.8998 0.5266   0.050567
 C 0.5593 0.6002 0.0266   0.050567
 C 0.1002 0.0593 0.4734   0.050567
 C 0.3998 0.4407 0.9734   0.050567
 C 0.5593 0.8998 0.2234   0.050567
 C 0.9407 0.6002 0.7234   0.050567
 C 0.9185 0.568 0.8721   0.280914
 C 0.5815 0.932 0.3721   0.280914
 C 0.432 0.4185 0.1221   0.280914
 C 0.068 0.0815 0.6221   0.280914
 C 0.5815 0.568 0.8779   0.280914
 C 0.9185 0.932 0.3779   0.280914
 C 0.068 0.4185 0.6279   0.280914
 C 0.432 0.0815 0.1279   0.280914
 C 0.4185 0.068 0.3721   0.280914
 C 0.0815 0.432 0.8721   0.280914
 C 0.932 0.9185 0.6221   0.280914
 C 0.568 0.5815 0.1221   0.280914
 C 0.0815 0.068 0.3779   0.280914
 C 0.4185 0.432 0.8779   0.280914
 C 0.568 0.9185 0.1279   0.280914
 C 0.932 0.5815 0.6279   0.280914
 C 0.8666 0.5083 0.8824   -0.272187
 C 0.6334 0.9917 0.3824   -0.272187
 C 0.4917 0.3666 0.1324   -0.272187
 C 0.0083 0.1334 0.6324   -0.272187
 C 0.6334 0.5083 0.8676   -0.272187
 C 0.8666 0.9917 0.3676   -0.272187
 C 0.0083 0.3666 0.6176   -0.272187
 C 0.4917 0.1334 0.1176   -0.272187
 C 0.3666 0.0083 0.3824   -0.272187
 C 0.1334 0.4917 0.8824   -0.272187
 C 0.9917 0.8666 0.6324   -0.272187
 C 0.5083 0.6334 0.1324   -0.272187
 C 0.1334 0.0083 0.3676   -0.272187
 C 0.3666 0.4917 0.8676   -0.272187
 C 0.5083 0.8666 0.1176   -0.272187
 C 0.9917 0.6334 0.6176   -0.272187
 C 0.8478 0.4869 0.9353   0.052511
 C 0.6522 0.0131 0.4353   0.052511
 C 0.5131 0.3478 0.1853   0.052511
 C 0.9869 0.1522 0.6853   0.052511
 C 0.6522 0.4869 0.8147   0.052511
 C 0.8478 0.0131 0.3147   0.052511
 C 0.9869 0.3478 0.5647   0.052511
 C 0.5131 0.1522 0.0647   0.052511
 C 0.3478 0.9869 0.4353   0.052511
 C 0.1522 0.5131 0.9353   0.052511
 C 0.0131 0.8478 0.6853   0.052511
 C 0.4869 0.6522 0.1853   0.052511
 C 0.1522 0.9869 0.3147   0.052511
 C 0.3478 0.5131 0.8147   0.052511
 C 0.4869 0.8478 0.0647   0.052511
 C 0.0131 0.6522 0.5647   0.052511
 C 0.8827 0.5248 0.9796   -0.16249
 C 0.6173 0.9752 0.4796   -0.16249
 C 0.4752 0.3827 0.2296   -0.16249
 C 0.0248 0.1173 0.7296   -0.16249
 C 0.6173 0.5248 0.7704   -0.16249
 C 0.8827 0.9752 0.2704   -0.16249
 C 0.0248 0.3827 0.5204   -0.16249
 C 0.4752 0.1173 0.0204   -0.16249
 C 0.3827 0.0248 0.4796   -0.16249
 C 0.1173 0.4752 0.9796   -0.16249
 C 0.9752 0.8827 0.7296   -0.16249
 C 0.5248 0.6173 0.2296   -0.16249
 C 0.1173 0.0248 0.2704   -0.16249
 C 0.3827 0.4752 0.7704   -0.16249
 C 0.5248 0.8827 0.0204   -0.16249
 C 0.9752 0.6173 0.5204   -0.16249
 C 0.9354 0.5818 0.9717   -0.014561
 C 0.5646 0.9182 0.4717   -0.014561
 C 0.4182 0.4354 0.2217   -0.014561
 C 0.0818 0.0646 0.7217   -0.014561
 C 0.5646 0.5818 0.7783   -0.014561
 C 0.9354 0.9182 0.2783   -0.014561
 C 0.0818 0.4354 0.5283   -0.014561
 C 0.4182 0.0646 0.0283   -0.014561
 C 0.4354 0.0818 0.4717   -0.014561
 C 0.0646 0.4182 0.9717   -0.014561
 C 0.9182 0.9354 0.7217   -0.014561
 C 0.5818 0.5646 0.2217   -0.014561
 C 0.0646 0.0818 0.2783   -0.014561
 C 0.4354 0.4182 0.7783   -0.014561
 C 0.5818 0.9354 0.0283   -0.014561
 C 0.9182 0.5646 0.5283   -0.014561
 C 0.9544 0.6082 0.9185   -0.153581
 C 0.5456 0.8918 0.4185   -0.153581
 C 0.3918 0.4544 0.1685   -0.153581
 C 0.1082 0.0456 0.6685   -0.153581
 C 0.5456 0.6082 0.8315   -0.153581
 C 0.9544 0.8918 0.3315   -0.153581
 C 0.1082 0.4544 0.5815   -0.153581
 C 0.3918 0.0456 0.0815   -0.153581
 C 0.4544 0.1082 0.4185   -0.153581
 C 0.0456 0.3918 0.9185   -0.153581
 C 0.8918 0.9544 0.6685   -0.153581
 C 0.6082 0.5456 0.1685   -0.153581
 C 0.0456 0.1082 0.3315   -0.153581
 C 0.4544 0.3918 0.8315   -0.153581
 C 0.6082 0.9544 0.0815   -0.153581
 C 0.8918 0.5456 0.5815   -0.153581
 C 0.0106 0.6674 0.9053   0.081185
 C 0.4894 0.8326 0.4053   0.081185
 C 0.3326 0.5106 0.1553   0.081185
 C 0.1674 0.9894 0.6553   0.081185
 C 0.4894 0.6674 0.8447   0.081185
 C 0.0106 0.8326 0.3447   0.081185
 C 0.1674 0.5106 0.5947   0.081185
 C 0.3326 0.9894 0.0947   0.081185
 C 0.5106 0.1674 0.4053   0.081185
 C 0.9894 0.3326 0.9053   0.081185
 C 0.8326 0.0106 0.6553   0.081185
 C 0.6674 0.4894 0.1553   0.081185
 C 0.9894 0.1674 0.3447   0.081185
 C 0.5106 0.3326 0.8447   0.081185
 C 0.6674 0.0106 0.0947   0.081185
 C 0.8326 0.4894 0.5947   0.081185
 C 0.0473 0.7182 0.9395   -0.209836
 C 0.4527 0.7818 0.4395   -0.209836
 C 0.2818 0.5473 0.1895   -0.209836
 C 0.2182 0.9527 0.6895   -0.209836
 C 0.4527 0.7182 0.8105   -0.209836
 C 0.0473 0.7818 0.3105   -0.209836
 C 0.2182 0.5473 0.5605   -0.209836
 C 0.2818 0.9527 0.0605   -0.209836
 C 0.5473 0.2182 0.4395   -0.209836
 C 0.9527 0.2818 0.9395   -0.209836
 C 0.7818 0.0473 0.6895   -0.209836
 C 0.7182 0.4527 0.1895   -0.209836
 C 0.9527 0.2182 0.3105   -0.209836
 C 0.5473 0.2818 0.8105   -0.209836
 C 0.7182 0.0473 0.0605   -0.209836
 C 0.7818 0.4527 0.5605   -0.209836
 C 0.0389 0.721 0.9997   0.425954
 C 0.4611 0.779 0.4997   0.425954
 C 0.279 0.5389 0.2497   0.425954
 C 0.221 0.9611 0.7497   0.425954
 C 0.4611 0.721 0.7503   0.425954
 C 0.0389 0.779 0.2503   0.425954
 C 0.221 0.5389 0.5003   0.425954
 C 0.279 0.9611 0.000300000000003   0.425954
 C 0.5389 0.221 0.4997   0.425954
 C 0.9611 0.279 0.9997   0.425954
 C 0.779 0.0389 0.7497   0.425954
 C 0.721 0.4611 0.2497   0.425954
 C 0.9611 0.221 0.2503   0.425954
 C 0.5389 0.279 0.7503   0.425954
 C 0.721 0.0389 0.000300000000003   0.425954
 C 0.779 0.4611 0.5003   0.425954
 C 0.1005 0.7724 0.9185   0.402244
 C 0.3995 0.7276 0.4185   0.402244
 C 0.2276 0.6005 0.1685   0.402244
 C 0.2724 0.8995 0.6685   0.402244
 C 0.3995 0.7724 0.8315   0.402244
 C 0.1005 0.7276 0.3315   0.402244
 C 0.2724 0.6005 0.5815   0.402244
 C 0.2276 0.8995 0.0815   0.402244
 C 0.6005 0.2724 0.4185   0.402244
 C 0.8995 0.2276 0.9185   0.402244
 C 0.7276 0.1005 0.6685   0.402244
 C 0.7724 0.3995 0.1685   0.402244
 C 0.8995 0.2724 0.3315   0.402244
 C 0.6005 0.2276 0.8315   0.402244
 C 0.7724 0.1005 0.0815   0.402244
 C 0.7276 0.3995 0.5815   0.402244
 N 0.0365 0.7258 0.0454   -0.435956
 N 0.4635 0.7742 0.5454   -0.435956
 N 0.2742 0.5365 0.2954   -0.435956
 N 0.2258 0.9635 0.7954   -0.435956
 N 0.4635 0.7258 0.7046   -0.435956
 N 0.0365 0.7742 0.2046   -0.435956
 N 0.2258 0.5365 0.4546   -0.435956
 N 0.2742 0.9635 0.9546   -0.435956
 N 0.5365 0.2258 0.5454   -0.435956
 N 0.9635 0.2742 0.0454   -0.435956
 N 0.7742 0.0365 0.7954   -0.435956
 N 0.7258 0.4635 0.2954   -0.435956
 N 0.9635 0.2258 0.2046   -0.435956
 N 0.5365 0.2742 0.7046   -0.435956
 N 0.7258 0.0365 0.9546   -0.435956
 N 0.7742 0.4635 0.4546   -0.435956
 N 0.1414 0.8215 0.9018   -0.421308
 N 0.3586 0.6785 0.4018   -0.421308
 N 0.1785 0.6414 0.1518   -0.421308
 N 0.3215 0.8586 0.6518   -0.421308
 N 0.3586 0.8215 0.8482   -0.421308
 N 0.1414 0.6785 0.3482   -0.421308
 N 0.3215 0.6414 0.5982   -0.421308
 N 0.1785 0.8586 0.0982   -0.421308
 N 0.6414 0.3215 0.4018   -0.421308
 N 0.8586 0.1785 0.9018   -0.421308
 N 0.6785 0.1414 0.6518   -0.421308
 N 0.8215 0.3586 0.1518   -0.421308
 N 0.8586 0.3215 0.3482   -0.421308
 N 0.6414 0.1785 0.8482   -0.421308
 N 0.8215 0.1414 0.0982   -0.421308
 N 0.6785 0.3586 0.5982   -0.421308
 O 0.9392 0.5952 0.8228   -0.222609
 O 0.5608 0.9048 0.3228   -0.222609
 O 0.4048 0.4392 0.0728   -0.222609
 O 0.0952 0.0608 0.5728   -0.222609
 O 0.5608 0.5952 0.9272   -0.222609
 O 0.9392 0.9048 0.4272   -0.222609
 O 0.0952 0.4392 0.6772   -0.222609
 O 0.4048 0.0608 0.1772   -0.222609
 O 0.4392 0.0952 0.3228   -0.222609
 O 0.0608 0.4048 0.8228   -0.222609
 O 0.9048 0.9392 0.5728   -0.222609
 O 0.5952 0.5608 0.0728   -0.222609
 O 0.0608 0.0952 0.4272   -0.222609
 O 0.4392 0.4048 0.9272   -0.222609
 O 0.5952 0.9392 0.1772   -0.222609
 O 0.9048 0.5608 0.6772   -0.222609
 F 0.6903 0.4163 0.0193   -0.508741
 F 0.8097 0.0837 0.5193   -0.508741
 F 0.5837 0.1903 0.2693   -0.508741
 F 0.9163 0.3097 0.7693   -0.508741
 F 0.8097 0.4163 0.7307   -0.508741
 F 0.6903 0.0837 0.2307   -0.508741
 F 0.9163 0.1903 0.4807   -0.508741
 F 0.5837 0.3097 0.9807   -0.508741
 F 0.1903 0.9163 0.5193   -0.508741
 F 0.3097 0.5837 0.0193   -0.508741
 F 0.0837 0.6903 0.7693   -0.508741
 F 0.4163 0.8097 0.2693   -0.508741
 F 0.3097 0.9163 0.2307   -0.508741
 F 0.1903 0.5837 0.7307   -0.508741
 F 0.4163 0.6903 0.9807   -0.508741
 F 0.0837 0.8097 0.4807   -0.508741
 F 0.6618 0.2887 0.0719   -0.474238
 F 0.8382 0.2113 0.5719   -0.474238
 F 0.7113 0.1618 0.3219   -0.474238
 F 0.7887 0.3382 0.8219   -0.474238
 F 0.8382 0.2887 0.6781   -0.474238
 F 0.6618 0.2113 0.1781   -0.474238
 F 0.7887 0.1618 0.4281   -0.474238
 F 0.7113 0.3382 0.9281   -0.474238
 F 0.1618 0.7887 0.5719   -0.474238
 F 0.3382 0.7113 0.0719   -0.474238
 F 0.2113 0.6618 0.8219   -0.474238
 F 0.2887 0.8382 0.3219   -0.474238
 F 0.3382 0.7887 0.1781   -0.474238
 F 0.1618 0.7113 0.6781   -0.474238
 F 0.2887 0.6618 0.9281   -0.474238
 F 0.2113 0.8382 0.4281   -0.474238
 F 0.7947 0.3083 0.0178   -0.503941
 F 0.7053 0.1917 0.5178   -0.503941
 F 0.6917 0.2947 0.2678   -0.503941
 F 0.8083 0.2053 0.7678   -0.503941
 F 0.7053 0.3083 0.7322   -0.503941
 F 0.7947 0.1917 0.2322   -0.503941
 F 0.8083 0.2947 0.4822   -0.503941
 F 0.6917 0.2053 0.9822   -0.503941
 F 0.2947 0.8083 0.5178   -0.503941
 F 0.2053 0.6917 0.0178   -0.503941
 F 0.1917 0.7947 0.7678   -0.503941
 F 0.3083 0.7053 0.2678   -0.503941
 F 0.2053 0.8083 0.2322   -0.503941
 F 0.2947 0.6917 0.7322   -0.503941
 F 0.3083 0.7947 0.9822   -0.503941
 F 0.1917 0.7053 0.4822   -0.503941
