{'_ref': 'TBD', '_srcid': 'CAKYAQ_clean', 'submitters': [{'name': 'Dalar Nazarian Jeff Camp and David Sholl', 'email': 'dalar@gatech.edu jcamp6@gatech.edu'}], '_method': 'VASP DFT with PBE;DDEC'}
data_Mn2NbH4(C6N5)2
_symmetry_space_group_name_H-M   'P 1'
_cell_length_a   7.37850000
_cell_length_b   11.76249984
_cell_length_c   14.42880000
_cell_angle_alpha   90.00000000
_cell_angle_beta   90.00000000
_cell_angle_gamma   98.99900196
_symmetry_Int_Tables_number   1
_chemical_formula_structural   Mn2NbH4(C6N5)2
_chemical_formula_sum   'Mn4 Nb2 H8 C24 N20'
_cell_volume   1236.85574603
_cell_formula_units_Z   2
loop_
 _symmetry_equiv_pos_site_id
 _symmetry_equiv_pos_as_xyz
  1  'x, y, z'
loop_
 _atom_site_label
 _atom_site_fract_x
 _atom_site_fract_y
 _atom_site_fract_z
 _atom_site_charge
 Mn 0.50053 0.52418 0.50002   1.179124
 Mn 0.97104 0.97307 0.02671   1.074055
 Mn 0.49947 0.47582 1.99999999992e-05   1.179124
 Mn 0.02896 0.02693 0.52671   1.074061
 Nb 0.94357 0.33979 0.25848   0.32475
 Nb 0.05643 0.66021 0.75848   0.32475
 H 0.671 0.1415 0.0467   0.09183
 H 0.3582 0.1439 0.0419   0.10251
 H 0.2736 0.807 0.0049   0.10227
 H 0.586 0.8062 0.0074   0.100769
 H 0.329 0.8585 0.5467   0.09183
 H 0.6418 0.8561 0.5419   0.10251
 H 0.7264 0.193 0.5049   0.10227
 H 0.414 0.1938 0.5074   0.100769
 C 0.6932 0.2013 0.2725   0.018109
 C 0.9483 0.5309 0.2322   0.037493
 C 0.7706 0.3924 0.3733   0.129853
 C 0.1662 0.432 0.3492   0.131953
 C 0.1729 0.3931 0.1578   0.13208
 C 0.7669 0.3581 0.1356   0.13078
 C 0.9931 0.1888 0.173   0.150281
 C 0.0204 0.2182 0.3654   0.143953
 C 0.5903 0.0711 0.0376   0.136232
 C 0.4027 0.0727 0.0354   0.12871
 C 0.3542 0.8775 0.0135   0.129912
 C 0.541 0.877 0.0152   0.128296
 C 0.3068 0.7987 0.7725   0.018108
 C 0.0517 0.4691 0.7322   0.037493
 C 0.2294 0.6076 0.8733   0.129853
 C 0.8338 0.568 0.8492   0.131953
 C 0.8271 0.6069 0.6578   0.13208
 C 0.2331 0.6419 0.6356   0.13078
 C 0.0069 0.8112 0.673   0.150281
 C 0.9796 0.7818 0.8654   0.143953
 C 0.4097 0.9289 0.5376   0.136232
 C 0.5973 0.9273 0.5354   0.128711
 C 0.6458 0.1225 0.5135   0.129912
 C 0.459 0.123 0.5152   0.128296
 N 0.5694 0.129 0.2777   -0.422456
 N 0.9556 0.6261 0.2138   -0.441787
 N 0.6788 0.4185 0.4308   -0.468563
 N 0.2762 0.4764 0.3994   -0.455388
 N 0.2828 0.4194 0.1016   -0.459993
 N 0.6769 0.3712 0.07305   -0.471483
 N 0.0105 0.113 0.12539   -0.482655
 N 0.0545 0.1588 0.4236   -0.477886
 N 0.662 0.9743 0.02763   -0.346673
 N 0.2826 0.9753 0.02418   -0.34608
 N 0.4306 0.871 0.7777   -0.422456
 N 0.0444 0.3739 0.7138   -0.441787
 N 0.3212 0.5815 0.9308   -0.468563
 N 0.7238 0.5236 0.8994   -0.455387
 N 0.7172 0.5806 0.6016   -0.459993
 N 0.3231 0.6288 0.57305   -0.471482
 N 0.9895 0.887 0.62539   -0.482655
 N 0.9455 0.8412 0.9236   -0.477885
 N 0.338 0.0257 0.52763   -0.346673
 N 0.7174 0.0247 0.52418   -0.346081
