{'_ref': 'TBD', '_srcid': 'CAKYAQ_clean', 'submitters': [{'name': 'Dalar Nazarian Jeff Camp and David Sholl', 'email': 'dalar@gatech.edu jcamp6@gatech.edu'}], '_method': 'VASP DFT with PBE;DDEC'}
data_ZnH10C10(NO4)2
_symmetry_space_group_name_H-M   'P 1'
_cell_length_a   9.58659955
_cell_length_b   9.58659967
_cell_length_c   11.07200000
_cell_angle_alpha   91.18710200
_cell_angle_beta   91.18710202
_cell_angle_gamma   105.87800259
_symmetry_Int_Tables_number   1
_chemical_formula_structural   ZnH10C10(NO4)2
_chemical_formula_sum   'Zn2 H20 C20 N4 O16'
_cell_volume   978.147225672
_cell_formula_units_Z   2
loop_
 _symmetry_equiv_pos_site_id
 _symmetry_equiv_pos_as_xyz
  1  'x, y, z'
loop_
 _atom_site_label
 _atom_site_fract_x
 _atom_site_fract_y
 _atom_site_fract_z
 _atom_site_charge
 Zn 0.99495 0.00505 0.75   1.005822
 Zn 0.00505 0.99495 0.25   1.005822
 H 0.446 0.95 0.788   0.107061
 H 0.05 0.554 0.712   0.107061
 H 0.554 0.05 0.212   0.107059
 H 0.95 0.446 0.288   0.10706
 H 0.856 0.596 0.98   0.401567
 H 0.779 0.739 0.956   0.389933
 H 0.919 0.745 0.954   0.366791
 H 0.878 0.732 0.088   0.389958
 H 0.404 0.144 0.52   0.401567
 H 0.261 0.221 0.544   0.389934
 H 0.255 0.081 0.546   0.366791
 H 0.268 0.122 0.412   0.389958
 H 0.144 0.404 0.02   0.401566
 H 0.221 0.261 0.044   0.389934
 H 0.081 0.255 0.046   0.366791
 H 0.122 0.268 0.912   0.389958
 H 0.596 0.856 0.48   0.401566
 H 0.739 0.779 0.456   0.389934
 H 0.745 0.919 0.454   0.366791
 H 0.732 0.878 0.588   0.389958
 C 0.20752 0.94798 0.89966   0.716908
 C 0.35786 0.97862 0.95565   -0.06501
 C 0.46914 0.97836 0.87789   -0.079437
 C 0.38855 0.000970000000002 0.07962   -0.122401
 C 0.27417 0.00501 0.16921   0.675918
 C 0.05202 0.79248 0.60034   0.716908
 C 0.02138 0.64214 0.54435   -0.06501
 C 0.02164 0.53086 0.62211   -0.079437
 C 0.99903 0.61145 0.42038   -0.122401
 C 0.99499 0.72583 0.33079   0.675919
 C 0.79248 0.05202 0.10034   0.716908
 C 0.64214 0.02138 0.04435   -0.065015
 C 0.53086 0.02164 0.12211   -0.079425
 C 0.61145 0.99903 0.92038   -0.12239
 C 0.72583 0.99499 0.83079   0.675917
 C 0.94798 0.20752 0.39966   0.716908
 C 0.97862 0.35786 0.45565   -0.065015
 C 0.97836 0.46914 0.37789   -0.079425
 C 0.000970000000002 0.38855 0.57962   -0.12239
 C 0.00501 0.27417 0.66921   0.675917
 N 0.849 0.6968 0.998   -0.717871
 N 0.3032 0.151 0.502   -0.717871
 N 0.151 0.3032 0.002   -0.717871
 N 0.6968 0.849 0.498   -0.717871
 O 0.17844 0.05416 0.84694   -0.6832
 O 0.12594 0.82354 0.90031   -0.627552
 O 0.29851 0.99189 0.27795   -0.631287
 O 0.15639 0.02317 0.12755   -0.624298
 O 0.94584 0.82156 0.65306   -0.6832
 O 0.17646 0.87406 0.59969   -0.627552
 O 0.00811 0.70149 0.22205   -0.631287
 O 0.97683 0.84361 0.37245   -0.624298
 O 0.82156 0.94584 0.15306   -0.6832
 O 0.87406 0.17646 0.09969   -0.627552
 O 0.70149 0.00811 0.72205   -0.631286
 O 0.84361 0.97683 0.87245   -0.624298
 O 0.05416 0.17844 0.34694   -0.6832
 O 0.82354 0.12594 0.40031   -0.627552
 O 0.99189 0.29851 0.77795   -0.631287
 O 0.02317 0.15639 0.62755   -0.624298
