{'_ref': 'TBD', '_srcid': 'CAKYAQ_clean', 'submitters': [{'name': 'Dalar Nazarian Jeff Camp and David Sholl', 'email': 'dalar@gatech.edu jcamp6@gatech.edu'}], '_method': 'VASP DFT with PBE;DDEC'}
data_CdH8C14S2N6O
_symmetry_space_group_name_H-M   'P 1'
_cell_length_a   7.67999970
_cell_length_b   10.02900000
_cell_length_c   25.78600000
_cell_angle_alpha   90.00000000
_cell_angle_beta   93.77900133
_cell_angle_gamma   90.00000000
_symmetry_Int_Tables_number   1
_chemical_formula_structural   CdH8C14S2N6O
_chemical_formula_sum   'Cd4 H32 C56 S8 N24 O4'
_cell_volume   1981.78936637
_cell_formula_units_Z   4
loop_
 _symmetry_equiv_pos_site_id
 _symmetry_equiv_pos_as_xyz
  1  'x, y, z'
loop_
 _atom_site_label
 _atom_site_fract_x
 _atom_site_fract_y
 _atom_site_fract_z
 _atom_site_charge
 Cd 0.73472 0.25815 0.76152   0.8226
 Cd 0.26528 0.75815 0.73848   0.8226
 Cd 0.26528 0.74185 0.23848   0.8226
 Cd 0.73472 0.24185 0.26152   0.8226
 H 0.6636 0.5151 0.6889   0.068743
 H 0.5281 0.5917 0.6133   0.127904
 H 0.316 0.2303 0.5905   0.134757
 H 0.4571 0.1633 0.6672   0.081875
 H 0.0547 0.5865 0.3867   0.129442
 H 0.8951 0.5026 0.3161   0.075974
 H 0.8937 0.1482 0.3766   0.085978
 H 0.0547 0.2209 0.4499   0.140366
 H 0.3364 0.0151 0.8111   0.068743
 H 0.4719 0.0917 0.8867   0.127904
 H 0.684 0.7303 0.9095   0.134757
 H 0.5429 0.6633 0.8328   0.081875
 H 0.9453 0.0865 0.1133   0.129442
 H 0.1049 0.0026 0.1839   0.075974
 H 0.1063 0.6482 0.1234   0.085978
 H 0.9453 0.7209 0.0501   0.140366
 H 0.3364 0.4849 0.3111   0.068743
 H 0.4719 0.4083 0.3867   0.127904
 H 0.684 0.7697 0.4095   0.134757
 H 0.5429 0.8367 0.3328   0.081875
 H 0.9453 0.4135 0.6133   0.129442
 H 0.1049 0.4974 0.6839   0.075974
 H 0.1063 0.8518 0.6234   0.085978
 H 0.9453 0.7791 0.5501   0.140366
 H 0.6636 0.9849 0.1889   0.068743
 H 0.5281 0.9083 0.1133   0.127904
 H 0.316 0.2697 0.0905   0.134757
 H 0.4571 0.3367 0.1672   0.081875
 H 0.0547 0.9135 0.8867   0.129442
 H 0.8951 0.9974 0.8161   0.075974
 H 0.8937 0.3518 0.8766   0.085978
 H 0.0547 0.2791 0.9499   0.140366
 C 0.594 0.4567 0.66862   0.17428
 C 0.5133 0.5035 0.62323   -0.14489
 C 0.4096 0.4183 0.59221   0.010026
 C 0.3875 0.2896 0.6097   -0.155464
 C 0.4727 0.2501 0.6558   0.176195
 C 0.329 0.4671 0.5438   0.371494
 C 0.1798 0.4643 0.47082   0.352765
 C 0.0749 0.411 0.42609   0.015625
 C 0.0244 0.4967 0.38534   -0.163508
 C 0.929 0.4453 0.34327   0.171974
 C 0.9279 0.2371 0.3787   0.176002
 C 0.0247 0.2798 0.423   -0.150886
 C 0.0962 0.0722 0.71455   0.368568
 C 0.3822 0.4477 0.7819   0.363186
 C 0.406 0.9567 0.83138   0.17428
 C 0.4867 0.0035 0.87677   -0.14489
 C 0.5904 0.9183 0.90779   0.010026
 C 0.6125 0.7896 0.8903   -0.155464
 C 0.5273 0.7501 0.8442   0.176195
 C 0.671 0.9671 0.9562   0.371494
 C 0.8202 0.9643 0.02918   0.352765
 C 0.9251 0.911 0.07391   0.015625
 C 0.9756 0.9967 0.11466   -0.163508
 C 0.071 0.9453 0.15673   0.171974
 C 0.0721 0.7371 0.1213   0.176002
 C 0.9753 0.7798 0.077   -0.150886
 C 0.9038 0.5722 0.78545   0.368568
 C 0.6178 0.9477 0.7181   0.363186
 C 0.406 0.5433 0.33138   0.17428
 C 0.4867 0.4965 0.37677   -0.14489
 C 0.5904 0.5817 0.40779   0.010026
 C 0.6125 0.7104 0.3903   -0.155464
 C 0.5273 0.7499 0.3442   0.176195
 C 0.671 0.5329 0.4562   0.371494
 C 0.8202 0.5357 0.52918   0.352765
 C 0.9251 0.589 0.57391   0.015625
 C 0.9756 0.5033 0.61466   -0.163508
 C 0.071 0.5547 0.65673   0.171974
 C 0.0721 0.7629 0.6213   0.176002
 C 0.9753 0.7202 0.577   -0.150886
 C 0.9038 0.9278 0.28545   0.368568
 C 0.6178 0.5523 0.2181   0.363186
 C 0.594 0.0433 0.16862   0.17428
 C 0.5133 0.9965 0.12323   -0.14489
 C 0.4096 0.0817 0.09221   0.010026
 C 0.3875 0.2104 0.1097   -0.155464
 C 0.4727 0.2499 0.1558   0.176195
 C 0.329 0.0329 0.0438   0.371494
 C 0.1798 0.0357 0.97082   0.352765
 C 0.0749 0.089 0.92609   0.015625
 C 0.0244 0.0033 0.88534   -0.163508
 C 0.929 0.0547 0.84327   0.171974
 C 0.9279 0.2629 0.8787   0.176002
 C 0.0247 0.2202 0.923   -0.150886
 C 0.0962 0.4278 0.21455   0.368568
 C 0.3822 0.0523 0.2819   0.363186
 S 0.0192 0.22135 0.70196   -0.408643
 S 0.4477 0.31494 0.81555   -0.407542
 S 0.9808 0.72135 0.79804   -0.408643
 S 0.5523 0.81494 0.68445   -0.407542
 S 0.9808 0.77865 0.29804   -0.408643
 S 0.5523 0.68506 0.18445   -0.407542
 S 0.0192 0.27865 0.20196   -0.408643
 S 0.4477 0.18506 0.31555   -0.407542
 N 0.5778 0.3321 0.68513   -0.314167
 N 0.335 0.5868 0.52518   -0.288031
 N 0.2383 0.5841 0.47707   -0.277411
 N 0.882 0.3177 0.33909   -0.313926
 N 0.1528 0.9691 0.72373   -0.506595
 N 0.3412 0.542 0.75839   -0.507533
 N 0.4222 0.8321 0.81487   -0.314167
 N 0.665 0.0868 0.97482   -0.288031
 N 0.7617 0.0841 0.02293   -0.277411
 N 0.118 0.8177 0.16091   -0.313926
 N 0.8472 0.4691 0.77627   -0.506595
 N 0.6588 0.042 0.74161   -0.507533
 N 0.4222 0.6679 0.31487   -0.314167
 N 0.665 0.4132 0.47482   -0.288031
 N 0.7617 0.4159 0.52293   -0.277411
 N 0.118 0.6823 0.66091   -0.313926
 N 0.8472 0.0309 0.27627   -0.506595
 N 0.6588 0.458 0.24161   -0.507533
 N 0.5778 0.1679 0.18513   -0.314167
 N 0.335 0.9132 0.02518   -0.288031
 N 0.2383 0.9159 0.97707   -0.277411
 N 0.882 0.1823 0.83909   -0.313926
 N 0.1528 0.5309 0.22373   -0.506595
 N 0.3412 0.958 0.25839   -0.507533
 O 0.2317 0.3832 0.51169   -0.209157
 O 0.7683 0.8832 0.98831   -0.209157
 O 0.7683 0.6168 0.48831   -0.209157
 O 0.2317 0.1168 0.01169   -0.209157
