{'_ref': 'TBD', '_srcid': 'CAKYAQ_clean', 'submitters': [{'name': 'Dalar Nazarian Jeff Camp and David Sholl', 'email': 'dalar@gatech.edu jcamp6@gatech.edu'}], '_method': 'VASP DFT with PBE;DDEC'}
data_ZnH5C9O5
_symmetry_space_group_name_H-M   'P 1'
_cell_length_a   11.10990000
_cell_length_b   13.89090000
_cell_length_c   22.48500000
_cell_angle_alpha   90.00000000
_cell_angle_beta   90.00000000
_cell_angle_gamma   90.00000000
_symmetry_Int_Tables_number   1
_chemical_formula_structural   ZnH5C9O5
_chemical_formula_sum   'Zn8 H40 C72 O40'
_cell_volume   3470.03157533
_cell_formula_units_Z   8
loop_
 _symmetry_equiv_pos_site_id
 _symmetry_equiv_pos_as_xyz
  1  'x, y, z'
loop_
 _atom_site_label
 _atom_site_fract_x
 _atom_site_fract_y
 _atom_site_fract_z
 _atom_site_charge
 Zn 0.63211 0.14083 0.65299   1.015882
 Zn 0.86586 0.01874 0.56139   0.966367
 Zn 0.86789 0.85917 0.15299   1.015882
 Zn 0.63414 0.98126 0.06139   0.966367
 Zn 0.36789 0.64083 0.84701   1.015882
 Zn 0.13414 0.51874 0.93861   0.966367
 Zn 0.13211 0.35917 0.34701   1.015882
 Zn 0.36586 0.48126 0.43861   0.966367
 H 0.1379 0.5192 0.5697   0.129633
 H 0.9105 0.376 0.6804   0.131011
 H 0.9698 0.2779 0.5127   0.108745
 H 0.9074 0.533 0.7177   0.075387
 H 0.0102 0.4717 0.7509   0.070702
 H 0.1236 0.6165 0.7636   0.091892
 H 0.9984 0.6196 0.7987   0.066191
 H 0.928 0.854 0.6813   0.115476
 H 0.5833 0.8523 0.7404   0.12666
 H 0.8078 0.631 0.7814   0.120559
 H 0.3621 0.4808 0.0697   0.129633
 H 0.5895 0.624 0.1804   0.131011
 H 0.5302 0.7221 0.0127   0.108745
 H 0.5926 0.467 0.2177   0.075387
 H 0.4898 0.5283 0.2509   0.070702
 H 0.3764 0.3835 0.2636   0.091892
 H 0.5016 0.3804 0.2987   0.066191
 H 0.572 0.146 0.1813   0.115476
 H 0.9167 0.1477 0.2404   0.12666
 H 0.6922 0.369 0.2814   0.120559
 H 0.8621 0.0192 0.9303   0.129633
 H 0.0895 0.876 0.8196   0.131011
 H 0.0302 0.7779 0.9873   0.108745
 H 0.0926 0.033 0.7823   0.075387
 H 0.9898 0.9717 0.7491   0.070702
 H 0.8764 0.1165 0.7364   0.091892
 H 0.0016 0.1196 0.7013   0.066191
 H 0.072 0.354 0.8187   0.115476
 H 0.4167 0.3523 0.7596   0.12666
 H 0.1922 0.131 0.7186   0.120559
 H 0.6379 0.9808 0.4303   0.129633
 H 0.4105 0.124 0.3196   0.131011
 H 0.4698 0.2221 0.4873   0.108745
 H 0.4074 0.967 0.2823   0.075387
 H 0.5102 0.0283 0.2491   0.070702
 H 0.6236 0.8835 0.2364   0.091892
 H 0.4984 0.8804 0.2013   0.066191
 H 0.428 0.646 0.3187   0.115476
 H 0.0833 0.6477 0.2596   0.12666
 H 0.3078 0.869 0.2186   0.120559
 C 0.1135 0.41723 0.47091   0.720475
 C 0.059 0.4025 0.53123   -0.122987
 C 0.0838 0.46741 0.57654   -0.140981
 C 0.0299 0.4569 0.63185   0.257437
 C 0.9491 0.38205 0.64285   -0.193481
 C 0.9265 0.31599 0.59703   -0.107296
 C 0.983 0.325 0.54261   -0.033899
 C 0.8424 0.23222 0.60697   0.699083
 C 0.9947 0.5296 0.72638   0.053291
 C 0.0351 0.61872 0.75859   0.066063
 C 0.8867 0.73668 0.73234   0.259497
 C 0.8655 0.82439 0.70363   -0.169572
 C 0.7542 0.8682 0.70752   -0.12149
 C 0.6601 0.8226 0.73776   -0.045118
 C 0.6802 0.73265 0.764   -0.05567
 C 0.7938 0.6909 0.76218   -0.204032
 C 0.5816 0.6788 0.79568   0.62904
 C 0.7413 0.9661 0.68001   0.694639
 C 0.3865 0.58277 0.97091   0.720475
 C 0.441 0.5975 0.03123   -0.122987
 C 0.4162 0.53259 0.07654   -0.140981
 C 0.4701 0.5431 0.13185   0.257437
 C 0.5509 0.61795 0.14285   -0.193481
 C 0.5735 0.68401 0.09703   -0.107296
 C 0.517 0.675 0.04261   -0.033899
 C 0.6576 0.76778 0.10697   0.699083
 C 0.5053 0.4704 0.22638   0.053291
 C 0.4649 0.38128 0.25859   0.066063
 C 0.6133 0.26332 0.23234   0.259497
 C 0.6345 0.17561 0.20363   -0.169572
 C 0.7458 0.1318 0.20752   -0.12149
 C 0.8399 0.1774 0.23776   -0.045118
 C 0.8198 0.26735 0.264   -0.05567
 C 0.7062 0.3091 0.26218   -0.204032
 C 0.9184 0.3212 0.29568   0.62904
 C 0.7587 0.0339 0.18001   0.694639
 C 0.8865 0.91723 0.02909   0.720475
 C 0.941 0.9025 0.96877   -0.122987
 C 0.9162 0.96741 0.92346   -0.140981
 C 0.9701 0.9569 0.86815   0.257437
 C 0.0509 0.88205 0.85715   -0.193481
 C 0.0735 0.81599 0.90297   -0.107296
 C 0.017 0.825 0.95739   -0.033899
 C 0.1576 0.73222 0.89303   0.699083
 C 0.0053 0.0296 0.77362   0.053291
 C 0.9649 0.11872 0.74141   0.066063
 C 0.1133 0.23668 0.76766   0.259497
 C 0.1345 0.32439 0.79637   -0.169572
 C 0.2458 0.3682 0.79248   -0.12149
 C 0.3399 0.3226 0.76224   -0.045118
 C 0.3198 0.23265 0.736   -0.05567
 C 0.2062 0.1909 0.73782   -0.204032
 C 0.4184 0.1788 0.70432   0.62904
 C 0.2587 0.4661 0.81999   0.694639
 C 0.6135 0.08277 0.52909   0.720475
 C 0.559 0.0975 0.46877   -0.122987
 C 0.5838 0.03259 0.42346   -0.140981
 C 0.5299 0.0431 0.36815   0.257437
 C 0.4491 0.11795 0.35715   -0.193481
 C 0.4265 0.18401 0.40297   -0.107296
 C 0.483 0.175 0.45739   -0.033899
 C 0.3424 0.26778 0.39303   0.699083
 C 0.4947 0.9704 0.27362   0.053291
 C 0.5351 0.88128 0.24141   0.066063
 C 0.3867 0.76332 0.26766   0.259497
 C 0.3655 0.67561 0.29637   -0.169572
 C 0.2542 0.6318 0.29248   -0.12149
 C 0.1601 0.6774 0.26224   -0.045118
 C 0.1802 0.76735 0.236   -0.05567
 C 0.2938 0.8091 0.23782   -0.204032
 C 0.0816 0.8212 0.20432   0.62904
 C 0.2413 0.5339 0.31999   0.694639
 O 0.1847 0.4861 0.46396   -0.623274
 O 0.079 0.35946 0.43027   -0.568262
 O 0.771 0.23377 0.65088   -0.550599
 O 0.84935 0.16609 0.56874   -0.638138
 O 0.0621 0.5257 0.67263   -0.270367
 O 0.00326 0.70505 0.72796   -0.262775
 O 0.47733 0.71872 0.79776   -0.585892
 O 0.6052 0.59976 0.81886   -0.515637
 O 0.645 0.01293 0.6906   -0.53605
 O 0.8273 0.99842 0.65055   -0.652512
 O 0.3153 0.5139 0.96396   -0.623274
 O 0.421 0.64054 0.93027   -0.568262
 O 0.729 0.76623 0.15088   -0.550599
 O 0.65065 0.83391 0.06874   -0.638138
 O 0.4379 0.4743 0.17263   -0.270367
 O 0.49674 0.29495 0.22796   -0.262775
 O 0.02267 0.28128 0.29776   -0.585892
 O 0.8948 0.40024 0.31886   -0.515636
 O 0.855 0.98707 0.1906   -0.53605
 O 0.6727 0.00158 0.15055   -0.652512
 O 0.8153 0.9861 0.03604   -0.623274
 O 0.921 0.85946 0.06973   -0.568262
 O 0.229 0.73377 0.84912   -0.550599
 O 0.15065 0.66609 0.93126   -0.638138
 O 0.9379 0.0257 0.82737   -0.270367
 O 0.99674 0.20505 0.77204   -0.262775
 O 0.52267 0.21872 0.70224   -0.585892
 O 0.3948 0.09976 0.68114   -0.515636
 O 0.355 0.51293 0.8094   -0.53605
 O 0.1727 0.49842 0.84945   -0.652512
 O 0.6847 0.0139 0.53604   -0.623274
 O 0.579 0.14054 0.56973   -0.568262
 O 0.271 0.26623 0.34912   -0.550599
 O 0.34935 0.33391 0.43126   -0.638138
 O 0.5621 0.9743 0.32737   -0.270367
 O 0.50326 0.79495 0.27204   -0.262775
 O 0.97733 0.78128 0.20224   -0.585892
 O 0.1052 0.90024 0.18114   -0.515636
 O 0.145 0.48707 0.3094   -0.53605
 O 0.3273 0.50158 0.34945   -0.652512
