{'_ref': 'TBD', '_srcid': 'CAKYAQ_clean', 'submitters': [{'name': 'Dalar Nazarian Jeff Camp and David Sholl', 'email': 'dalar@gatech.edu jcamp6@gatech.edu'}], '_method': 'VASP DFT with PBE;DDEC'}
data_NiH6(C3O2)3
_symmetry_space_group_name_H-M   'P 1'
_cell_length_a   10.07770039
_cell_length_b   11.00120056
_cell_length_c   15.05730000
_cell_angle_alpha   72.94899985
_cell_angle_beta   77.04679965
_cell_angle_gamma   81.37049801
_symmetry_Int_Tables_number   1
_chemical_formula_structural   NiH6(C3O2)3
_chemical_formula_sum   'Ni4 H24 C36 O24'
_cell_volume   1548.98271208
_cell_formula_units_Z   4
loop_
 _symmetry_equiv_pos_site_id
 _symmetry_equiv_pos_as_xyz
  1  'x, y, z'
loop_
 _atom_site_label
 _atom_site_fract_x
 _atom_site_fract_y
 _atom_site_fract_z
 _atom_site_charge
 Ni 0.49609 0.35831 0.50768   1.017188
 Ni 0.63681 0.40881 0.67501   1.069482
 Ni 0.50391 0.64169 0.49232   1.017188
 Ni 0.36319 0.59119 0.32499   1.069482
 H 0.5991 0.9527 0.5826   0.126512
 H 0.8379 0.6678 0.7298   0.124133
 H 0.8367 0.031 0.7397   0.141439
 H 0.9598 0.6272 0.8251   0.057418
 H 0.1039 0.6834 0.7724   0.082591
 H 0.1058 0.7483 0.914   0.0819
 H 0.1201 0.5959 0.9315   0.06459
 H 0.7283 0.6559 0.1062   0.148304
 H 0.9032 0.6216 0.3315   0.13127
 H 0.1404 0.6501 0.0707   0.136548
 H 0.6131 0.4102 0.3322   0.427127
 H 0.6408 0.3966 0.429   0.340119
 H 0.4009 0.0473 0.4174   0.126511
 H 0.1621 0.3322 0.2702   0.124133
 H 0.1633 0.969 0.2603   0.141439
 H 0.0402 0.3728 0.1749   0.057418
 H 0.8961 0.3166 0.2276   0.082591
 H 0.8942 0.2517 0.086   0.0819
 H 0.8799 0.4041 0.0685   0.064589
 H 0.2717 0.3441 0.8938   0.148303
 H 0.0968 0.3784 0.6685   0.131268
 H 0.8596 0.3499 0.9293   0.136548
 H 0.3869 0.5898 0.6678   0.427127
 H 0.3592 0.6034 0.571   0.340119
 C 0.6529 0.1508 0.63249   0.680411
 C 0.7076 0.0129 0.65855   -0.086097
 C 0.6617 0.9249 0.62475   -0.062265
 C 0.7075 0.7965 0.65261   -0.054665
 C 0.6485 0.7007 0.62339   0.672561
 C 0.8057 0.7555 0.71116   -0.192028
 C 0.8549 0.8451 0.74127   0.277525
 C 0.8048 0.9713 0.71676   -0.144209
 C 0.021 0.692 0.8207   0.073284
 C 0.0588 0.6749 0.91509   0.06681
 C 0.9347 0.6563 0.07425   0.260195
 C 0.8071 0.6514 0.13217   -0.165578
 C 0.7931 0.6399 0.22872   -0.088988
 C 0.6557 0.6366 0.29169   0.65118
 C 0.9111 0.6306 0.26584   -0.060197
 C 0.038 0.6345 0.20816   -0.067258
 C 0.1628 0.622 0.24983   0.58641
 C 0.0527 0.6474 0.11064   -0.208509
 C 0.3471 0.8492 0.36751   0.680412
 C 0.2924 0.9871 0.34145   -0.086098
 C 0.3383 0.0751 0.37525   -0.062267
 C 0.2925 0.2035 0.34739   -0.054666
 C 0.3515 0.2993 0.37661   0.672561
 C 0.1943 0.2445 0.28884   -0.192029
 C 0.1451 0.1549 0.25873   0.277523
 C 0.1952 0.0287 0.28324   -0.144212
 C 0.979 0.308 0.1793   0.073284
 C 0.9412 0.3251 0.08491   0.066811
 C 0.0653 0.3437 0.92575   0.260195
 C 0.1929 0.3486 0.86783   -0.165576
 C 0.2069 0.3601 0.77128   -0.088989
 C 0.3443 0.3634 0.70831   0.651183
 C 0.0889 0.3694 0.73416   -0.060196
 C 0.962 0.3655 0.79184   -0.067258
 C 0.8372 0.378 0.75017   0.58641
 C 0.9473 0.3526 0.88936   -0.208508
 O 0.66812 0.21843 0.6838   -0.541117
 O 0.59656 0.18693 0.56141   -0.507054
 O 0.62281 0.73485 0.54027   -0.492344
 O 0.6268 0.59613 0.68346   -0.557769
 O 0.95241 0.81849 0.79636   -0.274962
 O 0.93446 0.6672 0.98098   -0.27732
 O 0.64681 0.66448 0.36837   -0.50541
 O 0.56047 0.60409 0.26364   -0.553439
 O 0.14896 0.59134 0.33997   -0.47113
 O 0.27902 0.63891 0.19753   -0.465571
 O 0.61125 0.46819 0.54143   -0.72951
 O 0.64494 0.35974 0.38274   -0.711576
 O 0.33188 0.78157 0.3162   -0.541117
 O 0.40344 0.81307 0.43859   -0.507053
 O 0.37719 0.26515 0.45973   -0.492344
 O 0.3732 0.40387 0.31654   -0.557769
 O 0.04759 0.18151 0.20364   -0.274962
 O 0.06554 0.3328 0.01902   -0.27732
 O 0.35319 0.33552 0.63163   -0.50541
 O 0.43953 0.39591 0.73636   -0.553439
 O 0.85104 0.40866 0.66003   -0.471131
 O 0.72098 0.36109 0.80247   -0.46557
 O 0.38875 0.53181 0.45857   -0.72951
 O 0.35506 0.64026 0.61726   -0.711576
