{'_ref': 'TBD', '_srcid': 'CAKYAQ_clean', 'submitters': [{'name': 'Dalar Nazarian Jeff Camp and David Sholl', 'email': 'dalar@gatech.edu jcamp6@gatech.edu'}], '_method': 'VASP DFT with PBE;DDEC'}
data_NdPH12(C3O)7
_symmetry_space_group_name_H-M   'P 1'
_cell_length_a   10.72980008
_cell_length_b   11.90789970
_cell_length_c   14.76780000
_cell_angle_alpha   73.05699709
_cell_angle_beta   71.52800293
_cell_angle_gamma   66.45599927
_symmetry_Int_Tables_number   1
_chemical_formula_structural   NdPH12(C3O)7
_chemical_formula_sum   'Nd2 P2 H24 C42 O14'
_cell_volume   1610.91775204
_cell_formula_units_Z   2
loop_
 _symmetry_equiv_pos_site_id
 _symmetry_equiv_pos_as_xyz
  1  'x, y, z'
loop_
 _atom_site_label
 _atom_site_fract_x
 _atom_site_fract_y
 _atom_site_fract_z
 _atom_site_charge
 Nd 0.01495 0.45055 0.37171   2.311042
 Nd 0.98505 0.54945 0.62829   2.311042
 P 0.85928 0.2819 0.27352   1.117255
 P 0.14072 0.7181 0.72648   1.117255
 H 0.4977 0.3626 0.5578   0.119078
 H 0.0498 0.1028 0.3814   0.094861
 H 0.7263 0.3196 0.4632   0.103176
 H 0.0278 0.1753 0.1075   0.096949
 H 0.3591 0.3853 0.3246   0.085309
 H 0.5894 0.3349 0.2311   0.1009
 H 0.8152 0.0841 0.2218   0.098172
 H 0.7503 0.5775 0.9834   0.118022
 H 0.0606 0.2509 0.9392   0.11863
 H 0.1154 0.887 0.4353   0.103073
 H 0.8954 0.8644 0.2672   0.12723
 H 0.7256 0.5082 0.1523   0.10745
 H 0.5023 0.6374 0.4422   0.119078
 H 0.9502 0.8972 0.6186   0.094861
 H 0.2737 0.6804 0.5368   0.103176
 H 0.9722 0.8247 0.8925   0.096949
 H 0.6409 0.6147 0.6754   0.085309
 H 0.4106 0.6651 0.7689   0.1009
 H 0.1848 0.9159 0.7782   0.098172
 H 0.2497 0.4225 0.0166   0.118022
 H 0.9394 0.7491 0.0608   0.118631
 H 0.8846 0.113 0.5647   0.103073
 H 0.1046 0.1356 0.7328   0.12723
 H 0.2744 0.4918 0.8477   0.107451
 C 0.8716 0.3343 0.1456   -0.312299
 C 0.5161 0.3585 0.4914   -0.059915
 C 0.924 0.1135 0.2987   -0.301913
 C 0.679 0.325 0.3379   -0.287727
 C 0.0151 0.0551 0.3604   -0.004927
 C 0.6519 0.3324 0.4353   0.005026
 C 0.406 0.379 0.45   -0.121359
 C 0.9724 0.257 0.0827   -0.017498
 C 0.4336 0.3711 0.3528   -0.033184
 C 0.5703 0.3425 0.2968   -0.031231
 C 0.8774 0.0437 0.2642   -0.032582
 C 0.9073 0.4202 0.9457   -0.051583
 C 0.9298 0.4628 0.8374   0.665932
 C 0.8074 0.4968 0.0085   -0.07863
 C 0.9905 0.3019 0.9826   -0.086745
 C 0.0086 0.8563 0.3585   -0.101779
 C 0.0554 0.9269 0.3914   -0.068716
 C 0.9229 0.9133 0.2927   -0.066153
 C 0.0449 0.7176 0.3978   0.7555
 C 0.2606 0.4127 0.511   0.742887
 C 0.7912 0.4548 0.109   0.002845
 C 0.1284 0.6657 0.8544   -0.312299
 C 0.4839 0.6415 0.5086   -0.059915
 C 0.076 0.8865 0.7013   -0.301913
 C 0.321 0.675 0.6621   -0.287727
 C 0.9849 0.9449 0.6396   -0.004927
 C 0.3481 0.6676 0.5647   0.005026
 C 0.594 0.621 0.55   -0.121359
 C 0.0276 0.743 0.9173   -0.017498
 C 0.5664 0.6289 0.6472   -0.033184
 C 0.4297 0.6575 0.7032   -0.031231
 C 0.1226 0.9563 0.7358   -0.032582
 C 0.0927 0.5798 0.0543   -0.051583
 C 0.0702 0.5372 0.1626   0.665932
 C 0.1926 0.5032 0.9915   -0.07863
 C 0.0095 0.6981 0.0174   -0.086745
 C 0.9914 0.1437 0.6415   -0.101779
 C 0.9446 0.0731 0.6086   -0.068716
 C 0.0771 0.0867 0.7073   -0.066154
 C 0.9551 0.2824 0.6022   0.7555
 C 0.7394 0.5873 0.489   0.742887
 C 0.2088 0.5452 0.891   0.002845
 O 0.0489 0.4187 0.7854   -0.652285
 O 0.2387 0.4339 0.5947   -0.631517
 O 0.0724 0.6799 0.4807   -0.746879
 O 0.8266 0.5404 0.8003   -0.736043
 O 0.0425 0.6515 0.3462   -0.704977
 O 0.1594 0.4229 0.4775   -0.878039
 O 0.9391 0.3297 0.3111   -0.867356
 O 0.9511 0.5813 0.2146   -0.652285
 O 0.7613 0.5661 0.4053   -0.631517
 O 0.9276 0.3201 0.5193   -0.746879
 O 0.1734 0.4596 0.1997   -0.736043
 O 0.9575 0.3485 0.6538   -0.704977
 O 0.8406 0.5771 0.5225   -0.878039
 O 0.0609 0.6703 0.6889   -0.867356
