{'_ref': 'TBD', '_srcid': 'CAKYAQ_clean', 'submitters': [{'name': 'Dalar Nazarian Jeff Camp and David Sholl', 'email': 'dalar@gatech.edu jcamp6@gatech.edu'}], '_method': 'VASP DFT with PBE;DDEC'}
data_MnH26C25S2(NO)4
_symmetry_space_group_name_H-M   'P 1'
_cell_length_a   12.17500000
_cell_length_b   12.17500000
_cell_length_c   24.92400000
_cell_angle_alpha   90.00000000
_cell_angle_beta   90.00000000
_cell_angle_gamma   90.00000000
_symmetry_Int_Tables_number   1
_chemical_formula_structural   MnH26C25S2(NO)4
_chemical_formula_sum   'Mn4 H104 C100 S8 N16 O16'
_cell_volume   3694.5000975
_cell_formula_units_Z   4
loop_
 _symmetry_equiv_pos_site_id
 _symmetry_equiv_pos_as_xyz
  1  'x, y, z'
loop_
 _atom_site_label
 _atom_site_fract_x
 _atom_site_fract_y
 _atom_site_fract_z
 _atom_site_charge
 Mn 0.75 0.75 0.92384   0.257074
 Mn 0.25 0.25 0.42384   0.257074
 Mn 0.25 0.25 0.07616   0.257074
 Mn 0.75 0.75 0.57616   0.257074
 H 0.9229 0.9191 0.8723   0.061308
 H 0.0575 0.9387 0.809   0.15572
 H 0.9938 0.6314 0.7614   0.13639
 H 0.8613 0.6249 0.8264   0.06382
 H 0.1743 0.6475 0.7292   0.069996
 H 0.092 0.6929 0.6858   0.074171
 H 0.3258 0.5996 0.6614   0.066353
 H 0.3443 0.6819 0.6136   0.076568
 H 0.0555 0.5006 0.5643   0.144084
 H 0.3788 0.5354 0.5688   0.128361
 H 0.077 0.3811 0.4949   0.045552
 H 0.3889 0.3993 0.5037   0.078295
 H 0.7592 0.518 0.8884   0.069929
 H 0.5771 0.5809 0.8723   0.061308
 H 0.4425 0.5613 0.809   0.155716
 H 0.5062 0.8686 0.7614   0.13639
 H 0.6387 0.8751 0.8264   0.06382
 H 0.3257 0.8525 0.7292   0.069994
 H 0.408 0.8071 0.6858   0.074171
 H 0.1742 0.9004 0.6614   0.066351
 H 0.1557 0.8181 0.6136   0.076568
 H 0.4445 0.9994 0.5643   0.144085
 H 0.1212 0.9646 0.5688   0.128361
 H 0.423 0.1189 0.4949   0.045553
 H 0.1111 0.1007 0.5037   0.078295
 H 0.7408 0.982 0.8884   0.069929
 H 0.0809 0.4229 0.3723   0.061308
 H 0.0613 0.5575 0.309   0.15572
 H 0.3686 0.4938 0.2614   0.13639
 H 0.3751 0.3613 0.3264   0.06382
 H 0.3525 0.6743 0.2292   0.069996
 H 0.3071 0.592 0.1858   0.074171
 H 0.4004 0.8258 0.1614   0.066353
 H 0.3181 0.8443 0.1136   0.076568
 H 0.4994 0.5555 0.0643   0.144085
 H 0.4646 0.8788 0.0688   0.128361
 H 0.6189 0.577 0.9949   0.045552
 H 0.6007 0.8889 0.0037   0.078294
 H 0.482 0.2592 0.3884   0.069929
 H 0.4191 0.0771 0.3723   0.061308
 H 0.4387 0.9425 0.309   0.155716
 H 0.1314 0.0062 0.2614   0.13639
 H 0.1249 0.1387 0.3264   0.06382
 H 0.1475 0.8257 0.2292   0.069994
 H 0.1929 0.908 0.1858   0.074171
 H 0.0996 0.6742 0.1614   0.066351
 H 0.1819 0.6557 0.1136   0.076568
 H 0.000599999999999 0.9445 0.0643   0.144085
 H 0.0354 0.6212 0.0688   0.128361
 H 0.8811 0.923 0.9949   0.045553
 H 0.8993 0.6111 0.0037   0.078295
 H 0.018 0.2408 0.3884   0.069929
 H 0.0771 0.0809 0.1277   0.061308
 H 0.9425 0.0613 0.191   0.155716
 H 0.0062 0.3686 0.2386   0.136388
 H 0.1387 0.3751 0.1736   0.063819
 H 0.8257 0.3525 0.2708   0.069994
 H 0.908 0.3071 0.3142   0.07417
 H 0.6742 0.4004 0.3386   0.066352
 H 0.6557 0.3181 0.3864   0.076568
 H 0.9445 0.4994 0.4357   0.144085
 H 0.6212 0.4646 0.4312   0.128362
 H 0.923 0.6189 0.5051   0.045552
 H 0.6111 0.6007 0.4963   0.078295
 H 0.2408 0.482 0.1116   0.069929
 H 0.4229 0.4191 0.1277   0.061308
 H 0.5575 0.4387 0.191   0.155712
 H 0.4938 0.1314 0.2386   0.136388
 H 0.3613 0.1249 0.1736   0.06382
 H 0.6743 0.1475 0.2708   0.069992
 H 0.592 0.1929 0.3142   0.07417
 H 0.8258 0.0996 0.3386   0.06635
 H 0.8443 0.1819 0.3864   0.076568
 H 0.5555 0.000599999999999 0.4357   0.144085
 H 0.8788 0.0354 0.4312   0.128361
 H 0.577 0.8811 0.5051   0.045553
 H 0.8889 0.8993 0.4963   0.078295
 H 0.2592 0.018 0.1116   0.069929
 H 0.9191 0.5771 0.6277   0.061308
 H 0.9387 0.4425 0.691   0.155716
 H 0.6314 0.5062 0.7386   0.136388
 H 0.6249 0.6387 0.6736   0.063819
 H 0.6475 0.3257 0.7708   0.069994
 H 0.6929 0.408 0.8142   0.07417
 H 0.5996 0.1742 0.8386   0.066352
 H 0.6819 0.1557 0.8864   0.076568
 H 0.5006 0.4445 0.9357   0.144085
 H 0.5354 0.1212 0.9312   0.128362
 H 0.3811 0.423 0.0051   0.045552
 H 0.3993 0.1111 0.9963   0.078295
 H 0.518 0.7408 0.6116   0.069929
 H 0.5809 0.9229 0.6277   0.061308
 H 0.5613 0.0575 0.691   0.155712
 H 0.8686 0.9938 0.7386   0.136388
 H 0.8751 0.8613 0.6736   0.06382
 H 0.8525 0.1743 0.7708   0.069992
 H 0.8071 0.092 0.8142   0.07417
 H 0.9004 0.3258 0.8386   0.06635
 H 0.8181 0.3443 0.8864   0.076568
 H 0.9994 0.0555 0.9357   0.144085
 H 0.9646 0.3788 0.9312   0.128362
 H 0.1189 0.077 0.0051   0.045553
 H 0.1007 0.3889 0.9963   0.078295
 H 0.982 0.7592 0.6116   0.069929
 C 0.9377 0.86 0.8498   0.177573
 C 0.0192 0.8729 0.81196   -0.323504
 C 0.0424 0.7862 0.7789   0.350697
 C 0.9817 0.6914 0.78378   -0.338678
 C 0.9024 0.689 0.82306   0.182068
 C 0.1539 0.7118 0.70846   0.074236
 C 0.2909 0.6552 0.63938   0.071361
 C 0.2146 0.5366 0.57251   0.352072
 C 0.1254 0.4857 0.55118   -0.32081
 C 0.3151 0.5048 0.55467   -0.327266
 C 0.1398 0.4119 0.50991   0.186046
 C 0.32 0.4243 0.51426   0.175487
 C 0.5623 0.64 0.8498   0.177573
 C 0.4808 0.6271 0.81196   -0.3235
 C 0.4576 0.7138 0.7789   0.350697
 C 0.5183 0.8086 0.78378   -0.338678
 C 0.5976 0.811 0.82306   0.182068
 C 0.3461 0.7882 0.70846   0.074236
 C 0.2091 0.8448 0.63938   0.071361
 C 0.2854 0.9634 0.57251   0.352074
 C 0.3746 0.0143 0.55118   -0.32081
 C 0.1849 0.9952 0.55467   -0.327265
 C 0.3602 0.0881 0.50991   0.186046
 C 0.18 0.0757 0.51426   0.175487
 C 0.14 0.4377 0.3498   0.177574
 C 0.1271 0.5192 0.31196   -0.323503
 C 0.2138 0.5424 0.2789   0.350697
 C 0.3086 0.4817 0.28378   -0.338678
 C 0.311 0.4024 0.32306   0.182069
 C 0.2882 0.6539 0.20846   0.074236
 C 0.3448 0.7909 0.13938   0.071361
 C 0.4634 0.7146 0.07251   0.352072
 C 0.5143 0.6254 0.05118   -0.32081
 C 0.4952 0.8151 0.05467   -0.327266
 C 0.5881 0.6398 0.00991   0.186047
 C 0.5757 0.82 0.01426   0.175488
 C 0.36 0.0623 0.3498   0.177574
 C 0.3729 0.9808 0.31196   -0.323499
 C 0.2862 0.9576 0.2789   0.350697
 C 0.1914 0.0183 0.28378   -0.338678
 C 0.189 0.0976 0.32306   0.182068
 C 0.2118 0.8461 0.20846   0.074236
 C 0.1552 0.7091 0.13938   0.071361
 C 0.0366 0.7854 0.07251   0.352074
 C 0.9857 0.8746 0.05118   -0.320811
 C 0.0048 0.6849 0.05467   -0.327265
 C 0.9119 0.8602 0.00991   0.186047
 C 0.9243 0.68 0.01426   0.175489
 C 0.25 0.75 0.67449   -0.046709
 C 0.25 0.75 0.17449   -0.046709
 C 0.0623 0.14 0.1502   0.177573
 C 0.9808 0.1271 0.18804   -0.323502
 C 0.9576 0.2138 0.2211   0.350696
 C 0.0183 0.3086 0.21622   -0.338678
 C 0.0976 0.311 0.17694   0.182068
 C 0.8461 0.2882 0.29154   0.074236
 C 0.7091 0.3448 0.36062   0.071361
 C 0.7854 0.4634 0.42749   0.352072
 C 0.8746 0.5143 0.44882   -0.32081
 C 0.6849 0.4952 0.44533   -0.327265
 C 0.8602 0.5881 0.49009   0.186046
 C 0.68 0.5757 0.48574   0.175487
 C 0.4377 0.36 0.1502   0.177572
 C 0.5192 0.3729 0.18804   -0.323499
 C 0.5424 0.2862 0.2211   0.350696
 C 0.4817 0.1914 0.21622   -0.338678
 C 0.4024 0.189 0.17694   0.182068
 C 0.6539 0.2118 0.29154   0.074237
 C 0.7909 0.1552 0.36062   0.071361
 C 0.7146 0.0366 0.42749   0.352074
 C 0.6254 0.9857 0.44882   -0.32081
 C 0.8151 0.0048 0.44533   -0.327265
 C 0.6398 0.9119 0.49009   0.186046
 C 0.82 0.9243 0.48574   0.175487
 C 0.86 0.5623 0.6502   0.177574
 C 0.8729 0.4808 0.68804   -0.323501
 C 0.7862 0.4576 0.7211   0.350696
 C 0.6914 0.5183 0.71622   -0.338678
 C 0.689 0.5976 0.67694   0.182069
 C 0.7118 0.3461 0.79154   0.074236
 C 0.6552 0.2091 0.86062   0.071361
 C 0.5366 0.2854 0.92749   0.352072
 C 0.4857 0.3746 0.94882   -0.32081
 C 0.5048 0.1849 0.94533   -0.327266
 C 0.4119 0.3602 0.99009   0.186047
 C 0.4243 0.18 0.98574   0.175488
 C 0.64 0.9377 0.6502   0.177573
 C 0.6271 0.0192 0.68804   -0.323498
 C 0.7138 0.0424 0.7211   0.350696
 C 0.8086 0.9817 0.71622   -0.338678
 C 0.811 0.9024 0.67694   0.182068
 C 0.7882 0.1539 0.79154   0.074237
 C 0.8448 0.2909 0.86062   0.071361
 C 0.9634 0.2146 0.92749   0.352074
 C 0.0143 0.1254 0.94882   -0.32081
 C 0.9952 0.3151 0.94533   -0.327265
 C 0.0881 0.1398 0.99009   0.186047
 C 0.0757 0.32 0.98574   0.175488
 C 0.75 0.25 0.32551   -0.04671
 C 0.75 0.25 0.82551   -0.04671
 S 0.77679 0.54627 0.92334   -0.510146
 S 0.72321 0.95373 0.92334   -0.510146
 S 0.45373 0.27679 0.42334   -0.510146
 S 0.04627 0.22321 0.42334   -0.510146
 S 0.22321 0.45373 0.07666   -0.510146
 S 0.27679 0.04627 0.07666   -0.510146
 S 0.54627 0.72321 0.57666   -0.510146
 S 0.95373 0.77679 0.57666   -0.510146
 N 0.8797 0.7705 0.85643   -0.242217
 N 0.2329 0.3819 0.49036   -0.235279
 N 0.6203 0.7295 0.85643   -0.242217
 N 0.2671 0.1181 0.49036   -0.235278
 N 0.2295 0.3797 0.35643   -0.242217
 N 0.6181 0.7329 0.99036   -0.235279
 N 0.2705 0.1203 0.35643   -0.242217
 N 0.8819 0.7671 0.99036   -0.235278
 N 0.1203 0.2295 0.14357   -0.242217
 N 0.7671 0.6181 0.50964   -0.235279
 N 0.3797 0.2705 0.14357   -0.242216
 N 0.7329 0.8819 0.50964   -0.235278
 N 0.7705 0.6203 0.64357   -0.242217
 N 0.3819 0.2671 0.00964   -0.235279
 N 0.7295 0.8797 0.64357   -0.242217
 N 0.1181 0.2329 0.00964   -0.235278
 O 0.1254 0.8007 0.74354   -0.281503
 O 0.19774 0.60933 0.612   -0.265865
 O 0.3746 0.6993 0.74354   -0.281503
 O 0.30226 0.89067 0.612   -0.265865
 O 0.1993 0.6254 0.24354   -0.281503
 O 0.39067 0.69774 0.112   -0.265865
 O 0.3007 0.8746 0.24354   -0.281503
 O 0.10933 0.80226 0.112   -0.265865
 O 0.8746 0.1993 0.25646   -0.281503
 O 0.80226 0.39067 0.388   -0.265865
 O 0.6254 0.3007 0.25646   -0.281503
 O 0.69774 0.10933 0.388   -0.265865
 O 0.8007 0.3746 0.75646   -0.281503
 O 0.60933 0.30226 0.888   -0.265865
 O 0.6993 0.1254 0.75646   -0.281503
 O 0.89067 0.19774 0.888   -0.265865
