{'_ref': 'TBD', '_srcid': 'CAKYAQ_clean', 'submitters': [{'name': 'Dalar Nazarian Jeff Camp and David Sholl', 'email': 'dalar@gatech.edu jcamp6@gatech.edu'}], '_method': 'VASP DFT with PBE;DDEC'}
data_FeAg2H4(C4N3)2
_symmetry_space_group_name_H-M   'P 1'
_cell_length_a   7.38519957
_cell_length_b   13.29620000
_cell_length_c   14.70350000
_cell_angle_alpha   90.00000000
_cell_angle_beta   91.44100291
_cell_angle_gamma   90.00000000
_symmetry_Int_Tables_number   1
_chemical_formula_structural   FeAg2H4(C4N3)2
_chemical_formula_sum   'Fe4 Ag8 H16 C32 N24'
_cell_volume   1443.35490798
_cell_formula_units_Z   4
loop_
 _symmetry_equiv_pos_site_id
 _symmetry_equiv_pos_as_xyz
  1  'x, y, z'
loop_
 _atom_site_label
 _atom_site_fract_x
 _atom_site_fract_y
 _atom_site_fract_z
 _atom_site_charge
 Fe 0.5 0.5 0.0   0.381757
 Fe 0.0 0.0 0.0   0.381757
 Fe 0.0 0.0 0.5   1.043923
 Fe 0.5 0.5 0.5   1.043923
 Ag 0.73004 0.245 0.74968   0.185861
 Ag 0.97177 0.44327 0.77109   0.189479
 Ag 0.76996 0.745 0.25032   0.185876
 Ag 0.52823 0.94327 0.2289   0.189406
 Ag 0.26996 0.755 0.25032   0.185884
 Ag 0.02823 0.55673 0.2289   0.189408
 Ag 0.23004 0.255 0.74968   0.185869
 Ag 0.47177 0.05673 0.77109   0.189481
 H 0.435 0.269 0.019   0.090382
 H 0.447 0.143 0.122   0.135267
 H 0.523 0.185 0.274   0.06856
 H 0.539 0.463 0.2067   0.057791
 H 0.065 0.769 0.981   0.090382
 H 0.053 0.643 0.878   0.13527
 H 0.977 0.685 0.726   0.06856
 H 0.961 0.963 0.7933   0.057791
 H 0.565 0.731 0.981   0.090382
 H 0.553 0.857 0.878   0.13527
 H 0.477 0.815 0.726   0.06856
 H 0.461 0.537 0.7933   0.057792
 H 0.935 0.231 0.019   0.090382
 H 0.947 0.357 0.122   0.135267
 H 0.023 0.315 0.274   0.068561
 H 0.039 0.037 0.2067   0.057792
 C 0.6612 0.33906 0.85483   -0.063658
 C 0.1402 0.44264 0.88503   -0.057501
 C 0.4594 0.28378 0.07943   0.198734
 C 0.4707 0.2066 0.14148   -0.245416
 C 0.5076 0.2313 0.23067   0.257188
 C 0.519 0.39616 0.19279   0.360717
 C 0.8055 0.15214 0.64501   0.032661
 C 0.8136 0.47908 0.65826   0.034745
 C 0.8388 0.83906 0.14517   -0.063661
 C 0.3598 0.94264 0.11497   -0.057457
 C 0.0406 0.78378 0.92057   0.198734
 C 0.0293 0.7066 0.85852   -0.245417
 C 0.9924 0.7313 0.76933   0.257189
 C 0.981 0.89616 0.80721   0.360715
 C 0.6945 0.65214 0.35499   0.032659
 C 0.6864 0.97908 0.34174   0.034784
 C 0.3388 0.66094 0.14517   -0.06366
 C 0.8598 0.55736 0.11497   -0.057454
 C 0.5406 0.71622 0.92057   0.198731
 C 0.5293 0.7934 0.85852   -0.245422
 C 0.4924 0.7687 0.76933   0.257181
 C 0.481 0.60384 0.80721   0.360709
 C 0.1945 0.84786 0.35499   0.032662
 C 0.1864 0.52092 0.34174   0.034786
 C 0.1612 0.16094 0.85483   -0.063657
 C 0.6402 0.05736 0.88503   -0.057499
 C 0.9594 0.21622 0.07943   0.19873
 C 0.9707 0.2934 0.14148   -0.245421
 C 0.0076 0.2687 0.23067   0.25718
 C 0.019 0.10384 0.19279   0.360711
 C 0.3055 0.34786 0.64501   0.032664
 C 0.3136 0.02092 0.65826   0.034747
 N 0.6208 0.39426 0.91026   -0.220446
 N 0.246 0.45332 0.94215   -0.233698
 N 0.4855 0.37946 0.1044   -0.274427
 N 0.532 0.32643 0.25752   -0.436803
 N 0.8528 0.09912 0.58998   -0.401525
 N 0.7157 0.4983 0.59979   -0.390749
 N 0.8792 0.89426 0.08974   -0.220442
 N 0.254 0.95332 0.05785   -0.233714
 N 0.0145 0.87946 0.8956   -0.274426
 N 0.968 0.82643 0.74248   -0.436803
 N 0.6472 0.59912 0.41002   -0.401525
 N 0.7843 0.9983 0.40021   -0.390763
 N 0.3792 0.60574 0.08974   -0.220441
 N 0.754 0.54668 0.05785   -0.233713
 N 0.5145 0.62054 0.8956   -0.274426
 N 0.468 0.67357 0.74248   -0.436804
 N 0.1472 0.90088 0.41002   -0.401525
 N 0.2843 0.5017 0.40021   -0.390766
 N 0.1208 0.10574 0.91026   -0.220444
 N 0.746 0.04668 0.94215   -0.233698
 N 0.9855 0.12054 0.1044   -0.274426
 N 0.032 0.17357 0.25752   -0.436803
 N 0.3528 0.40088 0.58998   -0.401522
 N 0.2157 0.0017 0.59979   -0.390748
