{'_ref': 'TBD', '_srcid': 'CAKYAQ_clean', 'submitters': [{'name': 'Dalar Nazarian Jeff Camp and David Sholl', 'email': 'dalar@gatech.edu jcamp6@gatech.edu'}], '_method': 'VASP DFT with PBE;DDEC'}
data_CdH2(C3O2)2
_symmetry_space_group_name_H-M   'P 1'
_cell_length_a   7.68190022
_cell_length_b   8.87150007
_cell_length_c   10.32050000
_cell_angle_alpha   105.85200303
_cell_angle_beta   93.05499704
_cell_angle_gamma   105.70499928
_symmetry_Int_Tables_number   1
_chemical_formula_structural   CdH2(C3O2)2
_chemical_formula_sum   'Cd3 H6 C18 O12'
_cell_volume   645.158804379
_cell_formula_units_Z   3
loop_
 _symmetry_equiv_pos_site_id
 _symmetry_equiv_pos_as_xyz
  1  'x, y, z'
loop_
 _atom_site_label
 _atom_site_fract_x
 _atom_site_fract_y
 _atom_site_fract_z
 _atom_site_charge
 Cd 0.84092 0.61598 0.66792   1.163963
 Cd 0.15908 0.38402 0.33208   1.163963
 Cd 0.5 0.0 0.5   1.124924
 H 0.1252 0.4247 0.8645   0.115766
 H 0.5305 0.7769 0.1388   0.092389
 H 0.6349 0.8901 0.9672   0.119854
 H 0.8748 0.5753 0.1355   0.115767
 H 0.4695 0.2231 0.8612   0.092391
 H 0.3651 0.1099 0.0328   0.119854
 C 0.4442 0.7223 0.8124   -0.058406
 C 0.2906 0.5856 0.7827   -0.128674
 C 0.2299 0.5179 0.885   0.00853
 C 0.3217 0.586 0.017   -0.124938
 C 0.4709 0.727 0.0479   -0.021316
 C 0.5326 0.7946 0.946   -0.10204
 C 0.5154 0.8 0.7049   0.731145
 C 0.1941 0.5021 0.6402   0.657011
 C 0.2622 0.5053 0.1237   0.6592
 C 0.5558 0.2777 0.1876   -0.058406
 C 0.7094 0.4144 0.2173   -0.128674
 C 0.7701 0.4821 0.115   0.00853
 C 0.6783 0.414 0.983   -0.124937
 C 0.5291 0.273 0.9521   -0.021319
 C 0.4674 0.2054 0.054   -0.102041
 C 0.4846 0.2 0.2951   0.731143
 C 0.8059 0.4979 0.3598   0.65701
 C 0.7378 0.4947 0.8763   0.659199
 O 0.6672 0.7941 0.67056   -0.632091
 O 0.4168 0.8726 0.65947   -0.584645
 O 0.2926 0.4962 0.54644   -0.548728
 O 0.0231 0.44 0.62302   -0.656637
 O 0.1307 0.3762 0.09533   -0.608168
 O 0.3462 0.5695 0.24416   -0.64468
 O 0.3328 0.2059 0.32944   -0.63209
 O 0.5832 0.1274 0.34053   -0.584645
 O 0.7074 0.5038 0.45356   -0.548722
 O 0.9769 0.56 0.37698   -0.656636
 O 0.8693 0.6238 0.90467   -0.608168
 O 0.6538 0.4305 0.75584   -0.644678
