{'_ref': 'TBD', '_srcid': 'CAKYAQ_clean', 'submitters': [{'name': 'Dalar Nazarian Jeff Camp and David Sholl', 'email': 'dalar@gatech.edu jcamp6@gatech.edu'}], '_method': 'VASP DFT with PBE;DDEC'}
data_CdC2(N2O)2
_symmetry_space_group_name_H-M   'P 1'
_cell_length_a   9.15550000
_cell_length_b   11.53810000
_cell_length_c   11.74700000
_cell_angle_alpha   90.00000000
_cell_angle_beta   90.00000000
_cell_angle_gamma   90.00000000
_symmetry_Int_Tables_number   1
_chemical_formula_structural   CdC2(N2O)2
_chemical_formula_sum   'Cd8 C16 N32 O16'
_cell_volume   1240.91871474
_cell_formula_units_Z   8
loop_
 _symmetry_equiv_pos_site_id
 _symmetry_equiv_pos_as_xyz
  1  'x, y, z'
loop_
 _atom_site_label
 _atom_site_fract_x
 _atom_site_fract_y
 _atom_site_fract_z
 _atom_site_charge
 Cd 0.12649 0.8468 0.94003   1.029142
 Cd 0.62972 0.8774 0.96879   0.88414
 Cd 0.87351 0.3468 0.05997   1.02914
 Cd 0.37028 0.3774 0.03121   0.88414
 Cd 0.37351 0.8468 0.44003   1.029141
 Cd 0.87028 0.8774 0.46879   0.884141
 Cd 0.62649 0.3468 0.55997   1.02914
 Cd 0.12972 0.3774 0.53121   0.88414
 C 0.7963 0.8702 0.2061   0.153347
 C 0.6419 0.8659 0.244   0.606497
 C 0.4652 0.112 0.003   0.153032
 C 0.6212 0.1506 0.000399999999999   0.613008
 C 0.2037 0.3702 0.7939   0.153347
 C 0.3581 0.3659 0.756   0.606495
 C 0.5348 0.612 0.997   0.153031
 C 0.3788 0.6506 0.9996   0.613008
 C 0.7037 0.8702 0.7061   0.153346
 C 0.8581 0.8659 0.744   0.606497
 C 0.0348 0.112 0.503   0.153032
 C 0.8788 0.1506 0.5004   0.613008
 C 0.2963 0.3702 0.2939   0.153347
 C 0.1419 0.3659 0.256   0.606496
 C 0.9652 0.612 0.497   0.153031
 C 0.1212 0.6506 0.4996   0.613008
 N 0.8348 0.8669 0.0965   -0.192613
 N 0.9809 0.8728 0.0984   -0.073329
 N 0.0278 0.8773 0.2053   -0.125779
 N 0.914 0.8771 0.2738   -0.184981
 N 0.4228 0.0036 0.9874   -0.191815
 N 0.2821 0.0036 0.0012   -0.05836
 N 0.2348 0.1085 0.0252   -0.141826
 N 0.3504 0.1792 0.0283   -0.186173
 N 0.1652 0.3669 0.9035   -0.192612
 N 0.0191 0.3728 0.9016   -0.07333
 N 0.9722 0.3773 0.7947   -0.125779
 N 0.086 0.3771 0.7262   -0.184981
 N 0.5772 0.5036 0.0126   -0.191815
 N 0.7179 0.5036 0.9988   -0.05836
 N 0.7652 0.6085 0.9748   -0.141826
 N 0.6496 0.6792 0.9717   -0.186172
 N 0.6652 0.8669 0.5965   -0.192613
 N 0.5191 0.8728 0.5984   -0.073329
 N 0.4722 0.8773 0.7053   -0.125779
 N 0.586 0.8771 0.7738   -0.184981
 N 0.0772 0.0036 0.4874   -0.191816
 N 0.2179 0.0036 0.5012   -0.05836
 N 0.2652 0.1085 0.5252   -0.141826
 N 0.1496 0.1792 0.5283   -0.186173
 N 0.3348 0.3669 0.4035   -0.192612
 N 0.4809 0.3728 0.4016   -0.07333
 N 0.5278 0.3773 0.2947   -0.125779
 N 0.414 0.3771 0.2262   -0.184981
 N 0.9228 0.5036 0.5126   -0.191816
 N 0.7821 0.5036 0.4988   -0.058359
 N 0.7348 0.6085 0.4748   -0.141826
 N 0.8504 0.6792 0.4717   -0.186172
 O 0.5498 0.8618 0.1644   -0.573664
 O 0.6189 0.8704 0.3497   -0.567565
 O 0.7141 0.072 0.9801   -0.570099
 O 0.6468 0.2549 0.0251   -0.572958
 O 0.4502 0.3618 0.8356   -0.573664
 O 0.3811 0.3704 0.6503   -0.567565
 O 0.2859 0.572 0.0199   -0.570099
 O 0.3532 0.7549 0.9749   -0.572958
 O 0.9502 0.8618 0.6644   -0.573664
 O 0.8811 0.8704 0.8497   -0.567566
 O 0.7859 0.072 0.4801   -0.5701
 O 0.8532 0.2549 0.5251   -0.572958
 O 0.0498 0.3618 0.3356   -0.573664
 O 0.1189 0.3704 0.1503   -0.567566
 O 0.2141 0.572 0.5199   -0.5701
 O 0.1468 0.7549 0.4749   -0.572958
