{'_ref': 'TBD', '_srcid': 'CAKYAQ_clean', 'submitters': [{'name': 'Dalar Nazarian Jeff Camp and David Sholl', 'email': 'dalar@gatech.edu jcamp6@gatech.edu'}], '_method': 'VASP DFT with PBE;DDEC'}
data_CdC2(N2O)2
_symmetry_space_group_name_H-M   'P 1'
_cell_length_a   8.32400000
_cell_length_b   11.81800000
_cell_length_c   11.91500000
_cell_angle_alpha   90.00000000
_cell_angle_beta   90.00000000
_cell_angle_gamma   90.00000000
_symmetry_Int_Tables_number   1
_chemical_formula_structural   CdC2(N2O)2
_chemical_formula_sum   'Cd8 C16 N32 O16'
_cell_volume   1172.11467628
_cell_formula_units_Z   8
loop_
 _symmetry_equiv_pos_site_id
 _symmetry_equiv_pos_as_xyz
  1  'x, y, z'
loop_
 _atom_site_label
 _atom_site_fract_x
 _atom_site_fract_y
 _atom_site_fract_z
 _atom_site_charge
 Cd 0.117 0.992 0.864   0.985328
 Cd 0.878 0.52 0.88   0.851088
 Cd 0.883 0.008 0.364   0.985328
 Cd 0.122 0.48 0.38   0.851088
 Cd 0.383 0.492 0.864   0.985328
 Cd 0.622 0.02 0.88   0.851088
 Cd 0.617 0.508 0.364   0.985328
 Cd 0.378 0.98 0.38   0.851088
 C 0.726 0.755 0.876   0.170499
 C 0.901 0.784 0.875   0.541903
 C 0.475 0.005 0.125   0.146921
 C 0.647 0.009 0.16   0.589353
 C 0.274 0.245 0.376   0.170498
 C 0.099 0.216 0.375   0.541903
 C 0.525 0.995 0.625   0.146921
 C 0.353 0.991 0.66   0.589354
 C 0.774 0.255 0.876   0.170497
 C 0.599 0.284 0.875   0.541901
 C 0.025 0.505 0.125   0.14692
 C 0.853 0.509 0.16   0.589351
 C 0.226 0.745 0.376   0.170497
 C 0.401 0.716 0.375   0.541901
 C 0.975 0.495 0.625   0.14692
 C 0.147 0.491 0.66   0.589351
 N 0.661 0.648 0.878   -0.278681
 N 0.50428 0.655 0.877   0.00114
 N 0.4716 0.763 0.869   -0.089578
 N 0.6 0.829 0.869   -0.166597
 N 0.421 0.99 0.0173   -0.218093
 N 0.265 0.98 0.0272   -0.034755
 N 0.214 0.99 0.131   -0.071929
 N 0.34 0.012 0.191   -0.209703
 N 0.339 0.352 0.378   -0.278681
 N 0.49572 0.345 0.377   0.00114
 N 0.5284 0.237 0.369   -0.089578
 N 0.4 0.171 0.369   -0.166597
 N 0.579 0.01 0.5173   -0.218093
 N 0.735 0.02 0.5272   -0.034755
 N 0.786 0.01 0.631   -0.071929
 N 0.66 0.988 0.691   -0.209702
 N 0.839 0.148 0.878   -0.278681
 N 0.99572 0.155 0.877   0.00114
 N 0.0284 0.263 0.869   -0.089578
 N 0.9 0.329 0.869   -0.166597
 N 0.079 0.49 0.0173   -0.218093
 N 0.235 0.48 0.0272   -0.034755
 N 0.286 0.49 0.131   -0.071929
 N 0.16 0.512 0.191   -0.209703
 N 0.161 0.852 0.378   -0.278681
 N 0.00428 0.845 0.377   0.00114
 N 0.9716 0.737 0.369   -0.089579
 N 0.1 0.671 0.369   -0.166596
 N 0.921 0.51 0.5173   -0.218093
 N 0.765 0.52 0.5272   -0.034755
 N 0.714 0.51 0.631   -0.07193
 N 0.84 0.488 0.691   -0.209702
 O 0.011 0.734 0.828   -0.501405
 O 0.931 0.879 0.9362   -0.592993
 O 0.766 0.0 0.102   -0.484181
 O 0.671 0.024 0.272   -0.638316
 O 0.989 0.266 0.328   -0.501405
 O 0.069 0.121 0.4362   -0.592993
 O 0.234 0.0 0.602   -0.484181
 O 0.329 0.976 0.772   -0.638316
 O 0.489 0.234 0.828   -0.501404
 O 0.569 0.379 0.9362   -0.592993
 O 0.734 0.5 0.102   -0.484181
 O 0.829 0.524 0.272   -0.638315
 O 0.511 0.766 0.328   -0.501404
 O 0.431 0.621 0.4362   -0.592993
 O 0.266 0.5 0.602   -0.484181
 O 0.171 0.476 0.772   -0.638315
