{'_ref': 'TBD', '_srcid': 'CAKYAQ_clean', 'submitters': [{'name': 'Dalar Nazarian Jeff Camp and David Sholl', 'email': 'dalar@gatech.edu jcamp6@gatech.edu'}], '_method': 'VASP DFT with PBE;DDEC'}
data_CuH8C14N2O5
_symmetry_space_group_name_H-M   'P 1'
_cell_length_a   8.40500044
_cell_length_b   10.29300000
_cell_length_c   17.67850000
_cell_angle_alpha   90.00000000
_cell_angle_beta   102.81300129
_cell_angle_gamma   90.00000000
_symmetry_Int_Tables_number   1
_chemical_formula_structural   CuH8C14N2O5
_chemical_formula_sum   'Cu4 H32 C56 N8 O20'
_cell_volume   1491.33037118
_cell_formula_units_Z   4
loop_
 _symmetry_equiv_pos_site_id
 _symmetry_equiv_pos_as_xyz
  1  'x, y, z'
loop_
 _atom_site_label
 _atom_site_fract_x
 _atom_site_fract_y
 _atom_site_fract_z
 _atom_site_charge
 Cu 0.32634 0.44245 0.93198   0.852761
 Cu 0.82634 0.05755 0.43198   0.852761
 Cu 0.17366 0.94245 0.56802   0.852761
 Cu 0.67366 0.55755 0.06802   0.852761
 H 0.36 0.6629 0.5946   0.285267
 H 0.3133 0.55 0.7   0.129079
 H 0.0363 0.2277 0.6692   0.112782
 H 0.1438 0.4105 0.4845   0.121409
 H 0.7353 0.9355 0.5645   0.102325
 H 0.5687 0.7724 0.5917   0.145423
 H 0.3923 0.7284 0.3631   0.141147
 H 0.5639 0.8911 0.3413   0.096418
 H 0.86 0.8371 0.0946   0.285267
 H 0.8133 0.95 0.2   0.129079
 H 0.5363 0.2723 0.1692   0.112782
 H 0.6438 0.0895 0.9845   0.121409
 H 0.2353 0.5645 0.0645   0.102326
 H 0.0687 0.7276 0.0917   0.145422
 H 0.8923 0.7716 0.8631   0.141147
 H 0.0639 0.6089 0.8413   0.096418
 H 0.14 0.1629 0.9054   0.285267
 H 0.1867 0.05 0.8   0.129081
 H 0.4637 0.7277 0.8308   0.112783
 H 0.3562 0.9105 0.0155   0.121409
 H 0.7647 0.4355 0.9355   0.102326
 H 0.9313 0.2724 0.9083   0.145423
 H 0.1077 0.2284 0.1369   0.141147
 H 0.9361 0.3911 0.1587   0.096418
 H 0.64 0.3371 0.4054   0.285267
 H 0.6867 0.45 0.3   0.129081
 H 0.9637 0.7723 0.3308   0.112783
 H 0.8562 0.5895 0.5155   0.121409
 H 0.2647 0.0645 0.4355   0.102326
 H 0.4313 0.2276 0.4083   0.145422
 H 0.6077 0.2716 0.6369   0.141147
 H 0.4361 0.1089 0.6587   0.096418
 C 0.24416 0.4971 0.58786   0.210198
 C 0.2541 0.4881 0.667   -0.103905
 C 0.17708 0.388 0.69788   -0.120663
 C 0.08788 0.2952 0.64908   -0.01362
 C 0.07716 0.3051 0.56946   -0.123867
 C 0.15318 0.405 0.53778   -0.121443
 C 0.35947 0.6152 0.49097   0.492365
 C 0.6662 0.8927 0.5238   0.17248
 C 0.56635 0.7949 0.54055   -0.144033
 C 0.46316 0.731 0.48026   -0.011078
 C 0.46178 0.7687 0.40468   -0.124072
 C 0.56476 0.8666 0.39206   0.163371
 C 0.19462 0.3792 0.78422   0.656334
 C 0.98548 0.2069 0.51648   0.582775
 C 0.74416 0.0029 0.08786   0.210198
 C 0.7541 0.0119 0.167   -0.103905
 C 0.67708 0.112 0.19788   -0.120663
 C 0.58788 0.2048 0.14908   -0.01362
 C 0.57716 0.1949 0.06946   -0.123867
 C 0.65318 0.095 0.03778   -0.121443
 C 0.85947 0.8848 0.99097   0.492365
 C 0.1662 0.6073 0.0238   0.17248
 C 0.06635 0.7051 0.04055   -0.144033
 C 0.96316 0.769 0.98026   -0.011078
 C 0.96178 0.7313 0.90468   -0.124072
 C 0.06476 0.6334 0.89206   0.163371
 C 0.69462 0.1208 0.28422   0.656334
 C 0.48548 0.2931 0.01648   0.582775
 C 0.25584 0.9971 0.91214   0.210198
 C 0.2459 0.9881 0.833   -0.103905
 C 0.32292 0.888 0.80212   -0.120663
 C 0.41212 0.7952 0.85092   -0.013621
 C 0.42284 0.8051 0.93054   -0.123867
 C 0.34682 0.905 0.96222   -0.121443
 C 0.14053 0.1152 0.00903   0.492365
 C 0.8338 0.3927 0.9762   0.172478
 C 0.93365 0.2949 0.95945   -0.144033
 C 0.03684 0.231 0.01974   -0.011079
 C 0.03822 0.2687 0.09532   -0.124072
 C 0.93524 0.3666 0.10794   0.16337
 C 0.30538 0.8792 0.71578   0.656334
 C 0.51452 0.7069 0.98352   0.582776
 C 0.75584 0.5029 0.41214   0.210198
 C 0.7459 0.5119 0.333   -0.103905
 C 0.82292 0.612 0.30212   -0.120663
 C 0.91212 0.7048 0.35092   -0.013621
 C 0.92284 0.6949 0.43054   -0.123867
 C 0.84682 0.595 0.46222   -0.121443
 C 0.64053 0.3848 0.50903   0.492365
 C 0.3338 0.1073 0.4762   0.172478
 C 0.43365 0.2051 0.45945   -0.144033
 C 0.53684 0.269 0.51974   -0.011079
 C 0.53822 0.2313 0.59532   -0.124072
 C 0.43524 0.1334 0.60794   0.16337
 C 0.80538 0.6208 0.21578   0.656334
 C 0.01452 0.7931 0.48352   0.582776
 N 0.32692 0.6016 0.56182   -0.380163
 N 0.66638 0.9278 0.45068   -0.396054
 N 0.82692 0.8984 0.06182   -0.380163
 N 0.16638 0.5722 0.95068   -0.396054
 N 0.17308 0.1016 0.93818   -0.380163
 N 0.83362 0.4278 0.04932   -0.396053
 N 0.67308 0.3984 0.43818   -0.380163
 N 0.33362 0.0722 0.54932   -0.396053
 O 0.31234 0.5409 0.43674   -0.480487
 O 0.29285 0.4625 0.82375   -0.570622
 O 0.11932 0.2974 0.81292   -0.594991
 O 0.91978 0.1092 0.54178   -0.577428
 O 0.97095 0.2153 0.44385   -0.501707
 O 0.81234 0.9591 0.93674   -0.480487
 O 0.79285 0.0375 0.32375   -0.570622
 O 0.61932 0.2026 0.31292   -0.594991
 O 0.41978 0.3908 0.04178   -0.577428
 O 0.47095 0.2847 0.94385   -0.501707
 O 0.18766 0.0409 0.06326   -0.480487
 O 0.20715 0.9625 0.67625   -0.570622
 O 0.38068 0.7974 0.68708   -0.594991
 O 0.58022 0.6092 0.95822   -0.577428
 O 0.52905 0.7153 0.05615   -0.501707
 O 0.68766 0.4591 0.56326   -0.480487
 O 0.70715 0.5375 0.17625   -0.570622
 O 0.88068 0.7026 0.18708   -0.594991
 O 0.08022 0.8908 0.45822   -0.577428
 O 0.02905 0.7847 0.55615   -0.501707
