{'_ref': 'TBD', '_srcid': 'CAKYAQ_clean', 'submitters': [{'name': 'Dalar Nazarian Jeff Camp and David Sholl', 'email': 'dalar@gatech.edu jcamp6@gatech.edu'}], '_method': 'VASP DFT with PBE;DDEC'}
data_CuH8C14N2O5
_symmetry_space_group_name_H-M   'P 1'
_cell_length_a   8.49700026
_cell_length_b   10.29600000
_cell_length_c   17.63730000
_cell_angle_alpha   90.00000000
_cell_angle_beta   103.16099972
_cell_angle_gamma   90.00000000
_symmetry_Int_Tables_number   1
_chemical_formula_structural   CuH8C14N2O5
_chemical_formula_sum   'Cu4 H32 C56 N8 O20'
_cell_volume   1502.47291553
_cell_formula_units_Z   4
loop_
 _symmetry_equiv_pos_site_id
 _symmetry_equiv_pos_as_xyz
  1  'x, y, z'
loop_
 _atom_site_label
 _atom_site_fract_x
 _atom_site_fract_y
 _atom_site_fract_z
 _atom_site_charge
 Cu 0.82031 0.55548 0.93216   0.847624
 Cu 0.32031 0.94452 0.43216   0.847624
 Cu 0.67969 0.05548 0.56784   0.847625
 Cu 0.17969 0.44452 0.06784   0.847625
 H 0.8557 0.341 0.5942   0.287397
 H 0.8095 0.4524 0.7   0.128485
 H 0.5314 0.7726 0.6687   0.112225
 H 0.6418 0.5934 0.4839   0.121718
 H 0.2347 0.0712 0.5661   0.10046
 H 0.0711 0.2349 0.5931   0.145441
 H 0.893 0.2755 0.3641   0.140541
 H 0.0628 0.1142 0.3432   0.094955
 H 0.3557 0.159 0.0942   0.287397
 H 0.3095 0.0476 0.2   0.128485
 H 0.0314 0.7274 0.1687   0.112225
 H 0.1418 0.9066 0.9839   0.121718
 H 0.7347 0.4288 0.0661   0.10046
 H 0.5711 0.2651 0.0931   0.14544
 H 0.393 0.2245 0.8641   0.14054
 H 0.5628 0.3858 0.8432   0.094955
 H 0.6443 0.841 0.9058   0.287397
 H 0.6905 0.9524 0.8   0.128485
 H 0.9686 0.2726 0.8313   0.112226
 H 0.8582 0.0934 0.0161   0.121718
 H 0.2653 0.5712 0.9339   0.10046
 H 0.4289 0.7349 0.9069   0.145441
 H 0.607 0.7755 0.1359   0.140541
 H 0.4372 0.6142 0.1568   0.094955
 H 0.1443 0.659 0.4058   0.287397
 H 0.1905 0.5476 0.3   0.128486
 H 0.4686 0.2274 0.3313   0.112226
 H 0.3582 0.4066 0.5161   0.121718
 H 0.7653 0.9288 0.4339   0.10046
 H 0.9289 0.7651 0.4069   0.14544
 H 0.107 0.7245 0.6359   0.14054
 H 0.9372 0.8858 0.6568   0.094955
 C 0.74048 0.506 0.58708   0.208017
 C 0.75024 0.5141 0.66684   -0.103087
 C 0.6725 0.6134 0.6976   -0.119258
 C 0.58338 0.7058 0.64858   -0.01274
 C 0.57321 0.6967 0.56881   -0.125116
 C 0.6502 0.598 0.5373   -0.125183
 C 0.85816 0.3893 0.49066   0.495763
 C 0.16547 0.1134 0.52507   0.180946
 C 0.0669 0.2115 0.5418   -0.149544
 C 0.96263 0.2739 0.48153   -0.007121
 C 0.9621 0.2356 0.4062   -0.129695
 C 0.06379 0.1385 0.39409   0.163026
 C 0.68837 0.6207 0.78427   0.658287
 C 0.48021 0.7948 0.51571   0.585413
 C 0.24048 0.994 0.08708   0.208017
 C 0.25024 0.9859 0.16684   -0.103087
 C 0.1725 0.8866 0.1976   -0.119258
 C 0.08338 0.7942 0.14858   -0.01274
 C 0.07321 0.8033 0.06881   -0.125116
 C 0.1502 0.902 0.0373   -0.125182
 C 0.35816 0.1107 0.99066   0.495763
 C 0.66547 0.3866 0.02507   0.180946
 C 0.5669 0.2885 0.0418   -0.149543
 C 0.46263 0.2261 0.98153   -0.007122
 C 0.4621 0.2644 0.9062   -0.129695
 C 0.56379 0.3615 0.89409   0.163026
 C 0.18837 0.8793 0.28427   0.658287
 C 0.98021 0.7052 0.01571   0.585413
 C 0.75952 0.006 0.91292   0.208016
 C 0.74976 0.0141 0.83316   -0.103086
 C 0.8275 0.1134 0.8024   -0.119258
 C 0.91662 0.2058 0.85142   -0.012741
 C 0.92679 0.1967 0.93119   -0.125116
 C 0.8498 0.098 0.9627   -0.125183
 C 0.64184 0.8893 0.00934   0.495763
 C 0.33453 0.6134 0.97493   0.180946
 C 0.4331 0.7115 0.9582   -0.149544
 C 0.53737 0.7739 0.01847   -0.007122
 C 0.5379 0.7356 0.0938   -0.129695
 C 0.43621 0.6385 0.10591   0.163026
 C 0.81163 0.1207 0.71573   0.658287
 C 0.01979 0.2948 0.98429   0.585413
 C 0.25952 0.494 0.41292   0.208016
 C 0.24976 0.4859 0.33316   -0.103086
 C 0.3275 0.3866 0.3024   -0.119258
 C 0.41662 0.2942 0.35142   -0.012741
 C 0.42679 0.3033 0.43119   -0.125116
 C 0.3498 0.402 0.4627   -0.125183
 C 0.14184 0.6107 0.50934   0.495763
 C 0.83453 0.8866 0.47493   0.180946
 C 0.9331 0.7885 0.4582   -0.149543
 C 0.03737 0.7261 0.51847   -0.007122
 C 0.0379 0.7644 0.5938   -0.129695
 C 0.93621 0.8615 0.60591   0.163026
 C 0.31163 0.3793 0.21573   0.658287
 C 0.51979 0.2052 0.48429   0.585413
 N 0.82346 0.4025 0.56136   -0.38427
 N 0.16482 0.0771 0.45262   -0.392131
 N 0.32346 0.0975 0.06136   -0.38427
 N 0.66482 0.4229 0.95262   -0.39213
 N 0.67654 0.9025 0.93864   -0.38427
 N 0.33518 0.5771 0.04738   -0.39213
 N 0.17654 0.5975 0.43864   -0.38427
 N 0.83518 0.9229 0.54738   -0.39213
 O 0.81338 0.4626 0.43638   -0.477275
 O 0.77951 0.53397 0.82341   -0.570946
 O 0.61637 0.7046 0.81257   -0.595893
 O 0.41392 0.8901 0.54192   -0.574484
 O 0.46617 0.78903 0.44327   -0.503556
 O 0.31338 0.0374 0.93638   -0.477275
 O 0.27951 0.96603 0.32341   -0.570946
 O 0.11637 0.7954 0.31257   -0.595893
 O 0.91392 0.6099 0.04192   -0.574484
 O 0.96617 0.71097 0.94327   -0.503556
 O 0.68662 0.9626 0.06362   -0.477275
 O 0.72049 0.03397 0.67659   -0.570946
 O 0.88363 0.2046 0.68743   -0.595893
 O 0.08608 0.3901 0.95808   -0.574484
 O 0.03383 0.28903 0.05673   -0.503556
 O 0.18662 0.5374 0.56362   -0.477275
 O 0.22049 0.46603 0.17659   -0.570946
 O 0.38363 0.2954 0.18743   -0.595893
 O 0.58608 0.1099 0.45808   -0.574484
 O 0.53383 0.21097 0.55673   -0.503556
