{'_ref': 'TBD', '_srcid': 'CAKYAQ_clean', 'submitters': [{'name': 'Dalar Nazarian Jeff Camp and David Sholl', 'email': 'dalar@gatech.edu jcamp6@gatech.edu'}], '_method': 'VASP DFT with PBE;DDEC'}
data_Zn4H12C24O13
_symmetry_space_group_name_H-M   'P 1'
_cell_length_a   18.14239975
_cell_length_b   18.14240042
_cell_length_c   18.14240000
_cell_angle_alpha   60.00000077
_cell_angle_beta   59.99999955
_cell_angle_gamma   59.99999986
_symmetry_Int_Tables_number   1
_chemical_formula_structural   Zn4H12C24O13
_chemical_formula_sum   'Zn8 H24 C48 O26'
_cell_volume   4222.49574628
_cell_formula_units_Z   2
loop_
 _symmetry_equiv_pos_site_id
 _symmetry_equiv_pos_as_xyz
  1  'x, y, z'
loop_
 _atom_site_label
 _atom_site_fract_x
 _atom_site_fract_y
 _atom_site_fract_z
 _atom_site_charge
 Zn 0.79369 0.79368 0.61895   1.093158
 Zn 0.79369 0.79368 0.79368   1.093158
 Zn 0.61896 0.79368 0.79368   1.093155
 Zn 0.79369 0.61895 0.79368   1.093158
 Zn 0.20631 0.20632 0.38105   1.093159
 Zn 0.20631 0.20632 0.20632   1.093158
 Zn 0.20631 0.38105 0.20632   1.093158
 Zn 0.38104 0.20632 0.20632   1.093156
 H 0.6559 0.9555 0.4331   0.114093
 H 0.9555 0.6559 0.9555   0.114098
 H 0.4331 0.9555 0.6559   0.114095
 H 0.9555 0.4331 0.9555   0.114098
 H 0.6559 0.4331 0.9555   0.114092
 H 0.9555 0.9555 0.4331   0.114097
 H 0.4331 0.6559 0.9555   0.114095
 H 0.9555 0.9555 0.6559   0.114097
 H 0.6559 0.9555 0.9555   0.114092
 H 0.9555 0.4331 0.6559   0.114097
 H 0.4331 0.9555 0.9555   0.114094
 H 0.9555 0.6559 0.4331   0.114097
 H 0.0445 0.3441 0.5669   0.114091
 H 0.3441 0.0445 0.0445   0.114087
 H 0.0445 0.5669 0.3441   0.114091
 H 0.5669 0.0445 0.0445   0.114089
 H 0.5669 0.3441 0.0445   0.114088
 H 0.0445 0.0445 0.5669   0.114091
 H 0.3441 0.5669 0.0445   0.114086
 H 0.0445 0.0445 0.3441   0.114091
 H 0.0445 0.3441 0.0445   0.11409
 H 0.5669 0.0445 0.3441   0.114088
 H 0.0445 0.5669 0.0445   0.11409
 H 0.3441 0.0445 0.5669   0.114085
 C 0.59211 0.97397 0.45995   -0.055779
 C 0.97397 0.59211 0.97397   -0.055774
 C 0.45995 0.97397 0.59211   -0.055779
 C 0.97397 0.45995 0.97397   -0.055774
 C 0.59211 0.45995 0.97397   -0.055779
 C 0.97397 0.97397 0.45995   -0.055774
 C 0.45995 0.59211 0.97397   -0.055779
 C 0.97397 0.97397 0.59211   -0.055774
 C 0.59211 0.97397 0.97397   -0.055779
 C 0.97397 0.45995 0.59211   -0.055774
 C 0.45995 0.97397 0.97397   -0.055779
 C 0.97397 0.59211 0.45995   -0.055774
 C 0.02603 0.40789 0.54005   -0.055732
 C 0.40789 0.02603 0.02603   -0.055737
 C 0.02603 0.54005 0.40789   -0.055732
 C 0.54005 0.02603 0.02603   -0.055737
 C 0.54005 0.40789 0.02603   -0.055737
 C 0.02603 0.02603 0.54005   -0.055732
 C 0.40789 0.54005 0.02603   -0.055737
 C 0.02603 0.02603 0.40789   -0.055732
 C 0.02603 0.40789 0.02603   -0.055732
 C 0.54005 0.02603 0.40789   -0.055737
 C 0.02603 0.54005 0.02603   -0.055732
 C 0.40789 0.02603 0.54005   -0.055737
 C 0.5532 0.9468 0.5532   -0.110951
 C 0.6116 0.8884 0.6116   0.661507
 C 0.9468 0.5532 0.9468   -0.110949
 C 0.8884 0.6116 0.8884   0.661497
 C 0.5532 0.5532 0.9468   -0.110951
 C 0.6116 0.6116 0.8884   0.661508
 C 0.9468 0.9468 0.5532   -0.110949
 C 0.8884 0.8884 0.6116   0.661497
 C 0.5532 0.9468 0.9468   -0.110951
 C 0.6116 0.8884 0.8884   0.661508
 C 0.9468 0.5532 0.5532   -0.110949
 C 0.8884 0.6116 0.6116   0.661497
 C 0.0532 0.4468 0.4468   -0.110966
 C 0.1116 0.3884 0.3884   0.661499
 C 0.4468 0.0532 0.0532   -0.110968
 C 0.3884 0.1116 0.1116   0.66151
 C 0.4468 0.4468 0.0532   -0.110967
 C 0.3884 0.3884 0.1116   0.66151
 C 0.0532 0.0532 0.4468   -0.110966
 C 0.1116 0.1116 0.3884   0.6615
 C 0.0532 0.4468 0.0532   -0.110966
 C 0.1116 0.3884 0.1116   0.6615
 C 0.4468 0.0532 0.4468   -0.110967
 C 0.3884 0.1116 0.3884   0.66151
 O 0.75 0.75 0.75   -1.258531
 O 0.25 0.25 0.25   -1.258531
 O 0.69809 0.86635 0.56921   -0.59314
 O 0.86635 0.69809 0.86635   -0.593108
 O 0.56921 0.86635 0.69809   -0.593111
 O 0.86635 0.56921 0.86635   -0.593108
 O 0.69809 0.56921 0.86635   -0.59314
 O 0.86635 0.86635 0.56921   -0.593109
 O 0.56921 0.69809 0.86635   -0.593112
 O 0.86635 0.86635 0.69809   -0.593108
 O 0.69809 0.86635 0.86635   -0.59314
 O 0.86635 0.56921 0.69809   -0.593108
 O 0.56921 0.86635 0.86635   -0.593112
 O 0.86635 0.69809 0.56921   -0.593109
 O 0.13365 0.30191 0.43079   -0.593109
 O 0.30191 0.13365 0.13365   -0.59314
 O 0.13365 0.43079 0.30191   -0.593108
 O 0.43079 0.13365 0.13365   -0.593112
 O 0.43079 0.30191 0.13365   -0.593112
 O 0.13365 0.13365 0.43079   -0.593109
 O 0.30191 0.43079 0.13365   -0.593141
 O 0.13365 0.13365 0.30191   -0.593109
 O 0.13365 0.30191 0.13365   -0.593109
 O 0.43079 0.13365 0.30191   -0.593112
 O 0.13365 0.43079 0.13365   -0.593109
 O 0.30191 0.13365 0.43079   -0.593141
