{'_ref': 'TBD', '_srcid': 'CAKYAQ_clean', 'submitters': [{'name': 'Dalar Nazarian Jeff Camp and David Sholl', 'email': 'dalar@gatech.edu jcamp6@gatech.edu'}], '_method': 'VASP DFT with PBE;DDEC'}
data_CdH14C22(NO)4
_symmetry_space_group_name_H-M   'P 1'
_cell_length_a   12.59839952
_cell_length_b   14.17769977
_cell_length_c   14.17770000
_cell_angle_alpha   98.68030105
_cell_angle_beta   98.25549900
_cell_angle_gamma   98.25549848
_symmetry_Int_Tables_number   1
_chemical_formula_structural   CdH14C22(NO)4
_chemical_formula_sum   'Cd4 H56 C88 N16 O16'
_cell_volume   2441.81918559
_cell_formula_units_Z   4
loop_
 _symmetry_equiv_pos_site_id
 _symmetry_equiv_pos_as_xyz
  1  'x, y, z'
loop_
 _atom_site_label
 _atom_site_fract_x
 _atom_site_fract_y
 _atom_site_fract_z
 _atom_site_charge
 Cd 0.423 0.30505 0.40134   0.958413
 Cd 0.077 0.59866 0.69495   0.958411
 Cd 0.577 0.69495 0.59866   0.958413
 Cd 0.923 0.40134 0.30505   0.958411
 H 0.624 0.1558 0.6276   0.108505
 H 0.6939 0.0583 0.7499   0.104032
 H 0.8399 0.0142 0.8376   0.064853
 H 0.0147 0.0734 0.8208   0.078119
 H 0.0459 0.1738 0.7134   0.10331
 H 0.9743 0.2594 0.5834   0.107876
 H 0.3461 0.1084 0.4686   0.098009
 H 0.2011 0.0098 0.5052   0.140572
 H 0.0072 0.1793 0.3969   0.1363
 H 0.1574 0.2769 0.3685   0.090057
 H 0.5885 0.1791 0.3003   0.082746
 H 0.6025 0.072 0.166   0.13496
 H 0.3055 0.1038 0.0482   0.128235
 H 0.3007 0.2111 0.1849   0.075563
 H 0.876 0.3724 0.8442   0.108505
 H 0.8061 0.2501 0.9417   0.104032
 H 0.6601 0.1624 0.9858   0.064853
 H 0.4853 0.1792 0.9266   0.078121
 H 0.4541 0.2866 0.8262   0.103323
 H 0.5257 0.4166 0.7406   0.107875
 H 0.1539 0.5314 0.8916   0.098009
 H 0.2989 0.4948 0.9902   0.140572
 H 0.4928 0.6031 0.8207   0.1363
 H 0.3426 0.6315 0.7231   0.090057
 H 0.9115 0.6997 0.8209   0.082746
 H 0.8975 0.834 0.928   0.134961
 H 0.1945 0.9518 0.8962   0.12824
 H 0.1993 0.8151 0.7889   0.075562
 H 0.376 0.8442 0.3724   0.108501
 H 0.3061 0.9417 0.2501   0.104031
 H 0.1601 0.9858 0.1624   0.064855
 H 0.9853 0.9266 0.1792   0.078118
 H 0.9541 0.8262 0.2866   0.10331
 H 0.0257 0.7406 0.4166   0.107876
 H 0.6539 0.8916 0.5314   0.098003
 H 0.7989 0.9902 0.4948   0.140569
 H 0.9928 0.8207 0.6031   0.136299
 H 0.8426 0.7231 0.6315   0.090057
 H 0.4115 0.8209 0.6997   0.082743
 H 0.3975 0.928 0.834   0.134959
 H 0.6945 0.8962 0.9518   0.128234
 H 0.6993 0.7889 0.8151   0.075562
 H 0.124 0.6276 0.1558   0.108501
 H 0.1939 0.7499 0.0583   0.10403
 H 0.3399 0.8376 0.0142   0.064855
 H 0.5147 0.8208 0.0734   0.07812
 H 0.5459 0.7134 0.1738   0.103323
 H 0.4743 0.5834 0.2594   0.107876
 H 0.8461 0.4686 0.1084   0.098003
 H 0.7011 0.5052 0.0098   0.140569
 H 0.5072 0.3969 0.1793   0.136299
 H 0.6574 0.3685 0.2769   0.090057
 H 0.0885 0.3003 0.1791   0.082743
 H 0.1025 0.166 0.072   0.134959
 H 0.8055 0.0482 0.1038   0.128239
 H 0.8007 0.1849 0.2111   0.075562
 C 0.6106 0.25462 0.49178   0.641273
 C 0.71 0.22697 0.54665   -0.064623
 C 0.6945 0.17372 0.61668   -0.096788
 C 0.7814 0.14423 0.67437   0.035043
 C 0.7642 0.0816 0.7416   -0.119731
 C 0.8512 0.056 0.794   -0.082207
 C 0.9563 0.0911 0.7835   -0.096455
 C 0.9748 0.1509 0.7197   -0.116242
 C 0.8879 0.17917 0.66283   0.04177
 C 0.9036 0.23612 0.59068   -0.109048
 C 0.8195 0.2584 0.53184   -0.062811
 C 0.8451 0.3024 0.4458   0.642633
 C 0.2769 0.1241 0.4557   0.180878
 C 0.1903 0.0634 0.4768   -0.227266
 C 0.0884 0.0852 0.4544   0.238527
 C 0.0762 0.1642 0.4134   -0.221311
 C 0.1668 0.2226 0.3962   0.19387
 C 0.5307 0.1637 0.2489   0.205845
 C 0.5398 0.0991 0.1683   -0.230079
 C 0.4556 0.07569 0.09231   0.238889
 C 0.3644 0.1182 0.0988   -0.224188
 C 0.3621 0.1822 0.1814   0.192005
 C 0.8894 0.50822 0.74538   0.641275
 C 0.79 0.45335 0.77303   -0.064622
 C 0.8055 0.38332 0.82628   -0.096786
 C 0.7186 0.32563 0.85577   0.035043
 C 0.7358 0.2584 0.9184   -0.119729
 C 0.6488 0.206 0.944   -0.082206
 C 0.5437 0.2165 0.9089   -0.096454
 C 0.5252 0.2803 0.8491   -0.116248
 C 0.6121 0.33717 0.82083   0.041772
 C 0.5964 0.40932 0.76388   -0.109047
 C 0.6805 0.46816 0.7416   -0.06281
 C 0.6549 0.5542 0.6976   0.642633
 C 0.2231 0.5443 0.8759   0.180877
 C 0.3097 0.5232 0.9366   -0.227266
 C 0.4116 0.5456 0.9148   0.238527
 C 0.4238 0.5866 0.8358   -0.221311
 C 0.3332 0.6038 0.7774   0.19387
 C 0.9693 0.7511 0.8363   0.205845
 C 0.9602 0.8317 0.9009   -0.230078
 C 0.0444 0.90769 0.92431   0.23889
 C 0.1356 0.9012 0.8818   -0.22419
 C 0.1379 0.8186 0.8178   0.192005
 C 0.3894 0.74538 0.50822   0.641274
 C 0.29 0.77303 0.45335   -0.064624
 C 0.3055 0.82628 0.38332   -0.096786
 C 0.2186 0.85577 0.32563   0.035043
 C 0.2358 0.9184 0.2584   -0.119728
 C 0.1488 0.944 0.206   -0.082203
 C 0.0437 0.9089 0.2165   -0.096454
 C 0.0252 0.8491 0.2803   -0.116241
 C 0.1121 0.82083 0.33717   0.04177
 C 0.0964 0.76388 0.40932   -0.109051
 C 0.1805 0.7416 0.46816   -0.062811
 C 0.1549 0.6976 0.5542   0.642633
 C 0.7231 0.8759 0.5443   0.180881
 C 0.8097 0.9366 0.5232   -0.227259
 C 0.9116 0.9148 0.5456   0.238516
 C 0.9238 0.8358 0.5866   -0.221307
 C 0.8332 0.7774 0.6038   0.193874
 C 0.4693 0.8363 0.7511   0.205847
 C 0.4602 0.9009 0.8317   -0.230077
 C 0.5444 0.92431 0.90769   0.238881
 C 0.6356 0.8818 0.9012   -0.224188
 C 0.6379 0.8178 0.8186   0.192007
 C 0.1106 0.49178 0.25462   0.641275
 C 0.21 0.54665 0.22697   -0.064623
 C 0.1945 0.61668 0.17372   -0.096784
 C 0.2814 0.67437 0.14423   0.035043
 C 0.2642 0.7416 0.0816   -0.119726
 C 0.3512 0.794 0.056   -0.082203
 C 0.4563 0.7835 0.0911   -0.096452
 C 0.4748 0.7197 0.1509   -0.116246
 C 0.3879 0.66283 0.17917   0.041772
 C 0.4036 0.59068 0.23612   -0.109049
 C 0.3195 0.53184 0.2584   -0.06281
 C 0.3451 0.4458 0.3024   0.642633
 C 0.7769 0.4557 0.1241   0.18088
 C 0.6903 0.4768 0.0634   -0.227259
 C 0.5884 0.4544 0.0852   0.238516
 C 0.5762 0.4134 0.1642   -0.221307
 C 0.6668 0.3962 0.2226   0.193874
 C 0.0307 0.2489 0.1637   0.205847
 C 0.0398 0.1683 0.0991   -0.230077
 C 0.9556 0.09231 0.07569   0.238882
 C 0.8644 0.0988 0.1182   -0.22419
 C 0.8621 0.1814 0.1822   0.192007
 N 0.267 0.20337 0.41787   -0.360275
 N 0.4427 0.20495 0.25619   -0.344392
 N 0.4546 0.01012 0.00464   -0.136361
 N 0.9907 0.02735 0.47165   -0.134973
 N 0.233 0.58213 0.79663   -0.360275
 N 0.0573 0.74381 0.79505   -0.344392
 N 0.0454 0.99536 0.98988   -0.136361
 N 0.5093 0.52835 0.97265   -0.134973
 N 0.733 0.79663 0.58213   -0.360276
 N 0.5573 0.79505 0.74381   -0.344393
 N 0.5454 0.98988 0.99536   -0.136279
 N 0.0093 0.97265 0.52835   -0.134857
 N 0.767 0.41787 0.20337   -0.360276
 N 0.9427 0.25619 0.20495   -0.344393
 N 0.9546 0.00464 0.01012   -0.136279
 N 0.4907 0.47165 0.02735   -0.134857
 O 0.52454 0.19334 0.47556   -0.639385
 O 0.61168 0.33516 0.46648   -0.557222
 O 0.78263 0.27916 0.3667   -0.61076
 O 0.93528 0.35955 0.45583   -0.588268
 O 0.97546 0.52444 0.80666   -0.639385
 O 0.88832 0.53352 0.66484   -0.557223
 O 0.71737 0.6333 0.72084   -0.610761
 O 0.56472 0.54417 0.64045   -0.588268
 O 0.47546 0.80666 0.52444   -0.639385
 O 0.38832 0.66484 0.53352   -0.557223
 O 0.21737 0.72084 0.6333   -0.61076
 O 0.06472 0.64045 0.54417   -0.588268
 O 0.02454 0.47556 0.19334   -0.639385
 O 0.11168 0.46648 0.33516   -0.557223
 O 0.28263 0.3667 0.27916   -0.61076
 O 0.43528 0.45583 0.35955   -0.588268
