{'_ref': 'TBD', '_srcid': 'CAKYAQ_clean', 'submitters': [{'name': 'Dalar Nazarian Jeff Camp and David Sholl', 'email': 'dalar@gatech.edu jcamp6@gatech.edu'}], '_method': 'VASP DFT with PBE;DDEC'}
data_NiH5C5(NO)2
_symmetry_space_group_name_H-M   'P 1'
_cell_length_a   7.00770000
_cell_length_b   7.81690012
_cell_length_c   15.65860000
_cell_angle_alpha   98.97100256
_cell_angle_beta   90.00000000
_cell_angle_gamma   90.00000000
_symmetry_Int_Tables_number   1
_chemical_formula_structural   NiH5C5(NO)2
_chemical_formula_sum   'Ni4 H20 C20 N8 O8'
_cell_volume   847.261899475
_cell_formula_units_Z   4
loop_
 _symmetry_equiv_pos_site_id
 _symmetry_equiv_pos_as_xyz
  1  'x, y, z'
loop_
 _atom_site_label
 _atom_site_fract_x
 _atom_site_fract_y
 _atom_site_fract_z
 _atom_site_charge
 Ni 0.74343 0.69995 0.35065   0.379915
 Ni 0.24343 0.30005 0.14935   0.379912
 Ni 0.25657 0.30005 0.64935   0.379915
 Ni 0.75657 0.69995 0.85065   0.379912
 H 0.9253 0.7831 0.5346   0.083153
 H 0.9075 0.3548 0.3706   0.091542
 H 0.6973 0.0827 0.3999   0.085083
 H 0.4776 0.7153 0.5109   0.092283
 H 0.8653 0.6521 0.1625   -0.055094
 H 0.4253 0.2169 0.9654   0.083153
 H 0.4075 0.6452 0.1294   0.091542
 H 0.1973 0.9173 0.1001   0.085083
 H 0.9776 0.2847 0.9891   0.092283
 H 0.3653 0.3479 0.3375   -0.055094
 H 0.0747 0.2169 0.4654   0.083153
 H 0.0925 0.6452 0.6294   0.091542
 H 0.3027 0.9173 0.6001   0.085084
 H 0.5224 0.2847 0.4891   0.092284
 H 0.1347 0.3479 0.8375   -0.055095
 H 0.5747 0.7831 0.0346   0.083153
 H 0.5925 0.3548 0.8706   0.091542
 H 0.8027 0.0827 0.8999   0.085084
 H 0.0224 0.7153 0.0109   0.092283
 H 0.6347 0.6521 0.6625   -0.055095
 C 0.9547 0.6663 0.51916   0.030475
 C 0.9442 0.4169 0.42358   0.0791
 C 0.6169 0.0463 0.44076   0.019773
 C 0.4888 0.8316 0.5055   0.072821
 C 0.9254 0.5636 0.18555   0.614513
 C 0.4547 0.3337 0.98084   0.030475
 C 0.4442 0.5831 0.07642   0.079101
 C 0.1169 0.9537 0.05924   0.019773
 C 0.9888 0.1684 0.9945   0.072821
 C 0.4254 0.4364 0.31445   0.614515
 C 0.0453 0.3337 0.48084   0.030476
 C 0.0558 0.5831 0.57642   0.079101
 C 0.3831 0.9537 0.55924   0.019767
 C 0.5112 0.1684 0.4945   0.072815
 C 0.0746 0.4364 0.81445   0.614514
 C 0.5453 0.6663 0.01916   0.030476
 C 0.5558 0.4169 0.92358   0.079102
 C 0.8831 0.0463 0.94076   0.019767
 C 0.0112 0.8316 0.0055   0.072815
 C 0.5746 0.5636 0.68555   0.614515
 N 0.89831 0.58341 0.44244   -0.197333
 N 0.60636 0.87771 0.44606   -0.253426
 N 0.39831 0.41659 0.05756   -0.197333
 N 0.10636 0.12229 0.05394   -0.253426
 N 0.10169 0.41659 0.55756   -0.197334
 N 0.39364 0.12229 0.55394   -0.253425
 N 0.60169 0.58341 0.94244   -0.197334
 N 0.89364 0.87771 0.94606   -0.253424
 O 0.88182 0.53363 0.25787   -0.52599
 O 0.03704 0.48008 0.13244   -0.51681
 O 0.38182 0.46637 0.24213   -0.52599
 O 0.53704 0.51992 0.36756   -0.51681
 O 0.11818 0.46637 0.74213   -0.52599
 O 0.96296 0.51992 0.86756   -0.51681
 O 0.61818 0.53363 0.75787   -0.52599
 O 0.46296 0.48008 0.63244   -0.51681
