{'_ref': 'TBD', '_srcid': 'CAKYAQ_clean', 'submitters': [{'name': 'Dalar Nazarian Jeff Camp and David Sholl', 'email': 'dalar@gatech.edu jcamp6@gatech.edu'}], '_method': 'VASP DFT with PBE;DDEC'}
data_Co2H48C42N4O7
_symmetry_space_group_name_H-M   'P 1'
_cell_length_a   12.02010000
_cell_length_b   12.93829978
_cell_length_c   20.74630000
_cell_angle_alpha   90.00000000
_cell_angle_beta   90.00000000
_cell_angle_gamma   90.16210127
_symmetry_Int_Tables_number   1
_chemical_formula_structural   Co2H48C42N4O7
_chemical_formula_sum   'Co4 H96 C84 N8 O14'
_cell_volume   3226.44455136
_cell_formula_units_Z   2
loop_
 _symmetry_equiv_pos_site_id
 _symmetry_equiv_pos_as_xyz
  1  'x, y, z'
loop_
 _atom_site_label
 _atom_site_fract_x
 _atom_site_fract_y
 _atom_site_fract_z
 _atom_site_charge
 Co 0.30675 0.11759 0.82664   0.576707
 Co 0.16542 0.1147 0.67384   0.583235
 Co 0.80675 0.61759 0.17336   0.576707
 Co 0.66542 0.6147 0.32616   0.583235
 H 0.1955 0.9763 0.7514   0.406166
 H 0.3039 0.9729 0.7452   0.378691
 H 0.2904 0.6511 0.6744   0.39522
 H 0.6999 0.2552 0.8806   0.406478
 H 0.2975 0.463 0.722   0.094246
 H 0.2707 0.4218 0.6525   0.105805
 H 0.4105 0.309 0.5946   0.088097
 H 0.5233 0.2812 0.6284   0.080559
 H 0.5647 0.3461 0.7401   0.08205
 H 0.4778 0.4154 0.7764   0.081147
 H 0.3757 0.491 0.558   0.100412
 H 0.4676 0.5762 0.5679   0.090137
 H 0.5532 0.4148 0.5525   0.047728
 H 0.6502 0.5289 0.622   0.077025
 H 0.6683 0.4148 0.6459   0.08154
 H 0.6204 0.5219 0.7339   0.047507
 H 0.4432 0.5962 0.7384   0.087338
 H 0.5096 0.6412 0.6793   0.094211
 H 0.13 0.4162 0.8518   0.080713
 H 0.0945 0.3362 0.9051   0.087002
 H 0.03 0.4182 0.7442   0.087897
 H 0.9304 0.3415 0.732   0.086258
 H 0.9366 0.2138 0.8845   0.098275
 H 0.8735 0.2155 0.8183   0.101451
 H 0.9115 0.3589 0.9626   0.093408
 H 0.834 0.4523 0.9449   0.092421
 H 0.0205 0.5002 0.9306   0.044758
 H 0.0067 0.5637 0.8242   0.072997
 H 0.8928 0.579 0.8601   0.075183
 H 0.8597 0.5078 0.7581   0.04161
 H 0.75 0.3642 0.79   0.096853
 H 0.7336 0.4554 0.8391   0.097741
 H 0.5396 0.1937 0.0253   0.110471
 H 0.4342 0.0972 0.9566   0.063715
 H 0.339 0.3435 0.8642   0.073938
 H 0.4449 0.4463 0.9286   0.117767
 H 0.8317 0.2362 0.545   0.123734
 H 0.9298 0.1366 0.614   0.071027
 H 0.202 0.2828 0.5727   0.067837
 H 0.1102 0.3891 0.503   0.124305
 H 0.5261 0.5379 0.9977   0.121696
 H 0.661 0.2838 0.0723   0.119154
 H 0.639 0.6338 0.0627   0.072288
 H 0.7679 0.3864 0.1369   0.044551
 H 0.7496 0.3999 0.5255   0.113671
 H 0.6547 0.5103 0.46   0.059836
 H 0.9113 0.5445 0.3488   0.069461
 H 0.0132 0.4312 0.409   0.124321
 H 0.6955 0.4763 0.2486   0.406166
 H 0.8039 0.4729 0.2548   0.378691
 H 0.7904 0.1511 0.3256   0.395221
 H 0.1999 0.7552 0.1194   0.406478
 H 0.7975 0.963 0.278   0.094246
 H 0.7707 0.9218 0.3475   0.105805
 H 0.9105 0.809 0.4054   0.088097
 H 0.0233 0.7812 0.3716   0.080559
 H 0.0647 0.8461 0.2599   0.08205
 H 0.9778 0.9154 0.2236   0.081147
 H 0.8757 0.991 0.442   0.100413
 H 0.9676 0.0762 0.4321   0.090137
 H 0.0532 0.9148 0.4475   0.047728
 H 0.1502 0.0289 0.378   0.077025
 H 0.1683 0.9148 0.3541   0.08154
 H 0.1204 0.0219 0.2661   0.047507
 H 0.9432 0.0962 0.2616   0.087339
 H 0.0096 0.1412 0.3207   0.09421
 H 0.63 0.9162 0.1482   0.080713
 H 0.5945 0.8362 0.0949   0.087002
 H 0.53 0.9182 0.2558   0.087897
 H 0.4304 0.8415 0.268   0.086258
 H 0.4366 0.7138 0.1155   0.098275
 H 0.3735 0.7155 0.1817   0.101451
 H 0.4115 0.8589 0.0374   0.093408
 H 0.334 0.9523 0.0551   0.092421
 H 0.5205 0.0002 0.0694   0.044759
 H 0.5067 0.0637 0.1758   0.072997
 H 0.3928 0.079 0.1399   0.075183
 H 0.3597 0.0078 0.2419   0.04161
 H 0.25 0.8642 0.21   0.096853
 H 0.2336 0.9554 0.1609   0.097741
 H 0.0396 0.6937 0.9747   0.110472
 H 0.9342 0.5972 0.0434   0.063715
 H 0.839 0.8435 0.1358   0.073938
 H 0.9449 0.9463 0.0714   0.117768
 H 0.3317 0.7362 0.455   0.123734
 H 0.4298 0.6366 0.386   0.071027
 H 0.702 0.7828 0.4273   0.067837
 H 0.6102 0.8891 0.497   0.124305
 H 0.0261 0.0379 0.0023   0.121697
 H 0.161 0.7838 0.9277   0.119155
 H 0.139 0.1338 0.9373   0.072288
 H 0.2679 0.8864 0.8631   0.044552
 H 0.2496 0.8999 0.4745   0.113671
 H 0.1547 0.0103 0.54   0.059836
 H 0.4113 0.0445 0.6512   0.069461
 H 0.5132 0.9312 0.591   0.124319
 C 0.4159 0.3591 0.68948   0.025748
 C 0.3299 0.4456 0.6806   -0.295624
 C 0.4676 0.3347 0.62352   -0.207588
 C 0.5086 0.3991 0.73446   -0.216668
 C 0.3845 0.5415 0.6515   0.39638
 C 0.4339 0.515 0.58674   -0.266553
 C 0.5211 0.4315 0.59461   0.059414
 C 0.6134 0.4689 0.64023   -0.217779
 C 0.5619 0.4965 0.705   0.078464
 C 0.4753 0.5792 0.6968   -0.306687
 C 0.3589 0.2607 0.71336   0.633363
 C 0.01 0.3131 0.81885   0.028188
 C 0.0671 0.3799 0.87058   -0.21897
 C 0.9678 0.3829 0.76443   -0.205802
 C 0.9105 0.2583 0.85009   -0.297271
 C 0.8285 0.3367 0.87722   0.392734
 C 0.886 0.4023 0.92747   -0.266465
 C 0.9838 0.458 0.8976   0.061954
 C 0.9439 0.5278 0.8432   -0.2128
 C 0.8862 0.4627 0.79274   0.073828
 C 0.7868 0.4058 0.82253   -0.308068
 C 0.0904 0.232 0.79277   0.634921
 C 0.5083 0.333 0.98457   0.072855
 C 0.501 0.226 0.9921   -0.201773
 C 0.437 0.1684 0.9506   0.119858
 C 0.3817 0.3128 0.89626   0.161987
 C 0.4447 0.3752 0.93522   -0.218491
 C 0.9574 0.3291 0.5175   0.078983
 C 0.9072 0.2489 0.55068   -0.212633
 C 0.967 0.1883 0.59158   0.140123
 C 0.1257 0.274 0.56755   0.159598
 C 0.0709 0.3389 0.52567   -0.226393
 C 0.5753 0.5048 0.02541   -0.2134
 C 0.6542 0.3552 0.06946   -0.189991
 C 0.6433 0.5621 0.06511   0.159212
 C 0.719 0.4178 0.10823   0.107759
 C 0.5801 0.3976 0.02674   0.077989
 C 0.8938 0.4004 0.47539   0.079147
 C 0.7845 0.4272 0.48925   -0.207401
 C 0.7279 0.494 0.44965   0.134774
 C 0.8777 0.5135 0.38428   0.138043
 C 0.9404 0.4461 0.42078   -0.226572
 C 0.9159 0.8591 0.31052   0.025748
 C 0.8299 0.9456 0.3194   -0.295624
 C 0.9676 0.8347 0.37648   -0.207588
 C 0.0086 0.8991 0.26554   -0.216668
 C 0.8845 0.0415 0.3485   0.39638
 C 0.9339 0.015 0.41326   -0.266553
 C 0.0211 0.9315 0.40539   0.059414
 C 0.1134 0.9689 0.35977   -0.217779
 C 0.0619 0.9965 0.295   0.078464
 C 0.9753 0.0792 0.3032   -0.306687
 C 0.8589 0.7607 0.28664   0.633363
 C 0.51 0.8131 0.18115   0.028188
 C 0.5671 0.8799 0.12942   -0.21897
 C 0.4678 0.8829 0.23557   -0.205802
 C 0.4105 0.7583 0.14991   -0.297272
 C 0.3285 0.8367 0.12278   0.392734
 C 0.386 0.9023 0.07253   -0.266466
 C 0.4838 0.958 0.1024   0.061954
 C 0.4439 0.0278 0.1568   -0.2128
 C 0.3862 0.9627 0.20726   0.073828
 C 0.2868 0.9058 0.17747   -0.308068
 C 0.5904 0.732 0.20723   0.634921
 C 0.0083 0.833 0.01543   0.072856
 C 0.000999999999998 0.726 0.0079   -0.201773
 C 0.937 0.6684 0.0494   0.119858
 C 0.8817 0.8128 0.10374   0.161987
 C 0.9447 0.8752 0.06478   -0.218491
 C 0.4574 0.8291 0.4825   0.078983
 C 0.4072 0.7489 0.44932   -0.212633
 C 0.467 0.6883 0.40842   0.140123
 C 0.6257 0.774 0.43245   0.159598
 C 0.5709 0.8389 0.47433   -0.226393
 C 0.0753 0.0048 0.97459   -0.2134
 C 0.1542 0.8552 0.93054   -0.189991
 C 0.1433 0.0621 0.93489   0.159212
 C 0.219 0.9178 0.89177   0.107759
 C 0.0801 0.8976 0.97326   0.077989
 C 0.3938 0.9004 0.52461   0.079146
 C 0.2845 0.9272 0.51075   -0.207401
 C 0.2279 0.994 0.55035   0.134774
 C 0.3777 0.0135 0.61572   0.138043
 C 0.4404 0.9461 0.57922   -0.226571
 N 0.37865 0.20915 0.90216   -0.317764
 N 0.07571 0.19921 0.60113   -0.313329
 N 0.71511 0.52111 0.10683   -0.360119
 N 0.77279 0.53679 0.39671   -0.371204
 N 0.87865 0.70915 0.09784   -0.317764
 N 0.57571 0.69921 0.39887   -0.313329
 N 0.21511 0.02111 0.89317   -0.360119
 N 0.27279 0.03679 0.60329   -0.371204
 O 0.24575 0.02265 0.74854   -0.685468
 O 0.27645 0.23185 0.68089   -0.551587
 O 0.3962 0.2145 0.76186   -0.598198
 O 0.3015 0.6193 0.64086   -0.648732
 O 0.18033 0.21983 0.82268   -0.543486
 O 0.06025 0.17905 0.74459   -0.605609
 O 0.7372 0.2854 0.90783   -0.641542
 O 0.74575 0.52265 0.25146   -0.685468
 O 0.77645 0.73185 0.31911   -0.551587
 O 0.8962 0.7145 0.23814   -0.598198
 O 0.8015 0.1193 0.35914   -0.648733
 O 0.68033 0.71983 0.17732   -0.543486
 O 0.56025 0.67905 0.25541   -0.605609
 O 0.2372 0.7854 0.09217   -0.641542
