{'_ref': 'TBD', '_srcid': 'CAKYAQ_clean', 'submitters': [{'name': 'Dalar Nazarian Jeff Camp and David Sholl', 'email': 'dalar@gatech.edu jcamp6@gatech.edu'}], '_method': 'VASP DFT with PBE;DDEC'}
data_CoH6(C5N2)2
_symmetry_space_group_name_H-M   'P 1'
_cell_length_a   15.46250000
_cell_length_b   15.46250000
_cell_length_c   20.04740000
_cell_angle_alpha   90.00000000
_cell_angle_beta   90.00000000
_cell_angle_gamma   90.00000000
_symmetry_Int_Tables_number   1
_chemical_formula_structural   CoH6(C5N2)2
_chemical_formula_sum   'Co12 H72 C120 N48'
_cell_volume   4793.11093916
_cell_formula_units_Z   12
loop_
 _symmetry_equiv_pos_site_id
 _symmetry_equiv_pos_as_xyz
  1  'x, y, z'
loop_
 _atom_site_label
 _atom_site_fract_x
 _atom_site_fract_y
 _atom_site_fract_z
 _atom_site_charge
 Co 0.25 0.75 0.0   0.712596
 Co 0.75 0.25 0.5   0.712703
 Co 0.75 0.25 0.0   0.712578
 Co 0.25 0.75 0.5   0.709723
 Co 0.08575 0.91425 0.0   0.680124
 Co 0.41425 0.58575 0.0   0.680121
 Co 0.58575 0.08575 0.5   0.680113
 Co 0.91425 0.41425 0.5   0.6802
 Co 0.91425 0.08575 0.0   0.680065
 Co 0.58575 0.41425 0.0   0.680039
 Co 0.41425 0.91425 0.5   0.677916
 Co 0.08575 0.58575 0.5   0.677951
 H 0.15307 0.96777 0.74102   0.1149
 H 0.13712 0.95399 0.84833   0.105991
 H 0.2206 0.05342 0.07682   0.110954
 H 0.35509 0.84075 0.12474   0.10849
 H 0.34693 0.53223 0.74102   0.114897
 H 0.36288 0.54601 0.84833   0.106007
 H 0.2794 0.44658 0.07682   0.110956
 H 0.14491 0.65925 0.12474   0.108488
 H 0.53223 0.15307 0.24102   0.1149
 H 0.54601 0.13712 0.34833   0.105978
 H 0.44658 0.2206 0.57682   0.110927
 H 0.65925 0.35509 0.62474   0.108492
 H 0.96777 0.34693 0.24102   0.114896
 H 0.95399 0.36288 0.34833   0.106004
 H 0.05342 0.2794 0.57682   0.110933
 H 0.84075 0.14491 0.62474   0.108505
 H 0.84693 0.46777 0.75898   0.114897
 H 0.86288 0.45399 0.65167   0.105976
 H 0.7794 0.55342 0.42318   0.110934
 H 0.64491 0.34075 0.37526   0.108507
 H 0.65307 0.03223 0.75898   0.114893
 H 0.63712 0.04601 0.65167   0.105966
 H 0.7206 0.94658 0.42318   0.110926
 H 0.85509 0.15925 0.37526   0.108491
 H 0.46777 0.65307 0.25898   0.114898
 H 0.45399 0.63712 0.15167   0.105979
 H 0.55342 0.7206 0.92318   0.110955
 H 0.34075 0.85509 0.87526   0.108488
 H 0.03223 0.84693 0.25898   0.114895
 H 0.04601 0.86288 0.15167   0.105978
 H 0.94658 0.7794 0.92318   0.110956
 H 0.15925 0.64491 0.87526   0.10849
 H 0.84693 0.03223 0.25898   0.114941
 H 0.86288 0.04601 0.15167   0.106028
 H 0.7794 0.94658 0.92318   0.110868
 H 0.64491 0.15925 0.87526   0.108425
 H 0.65307 0.46777 0.25898   0.11494
 H 0.63712 0.45399 0.15167   0.106027
 H 0.7206 0.55342 0.92318   0.110874
 H 0.85509 0.34075 0.87526   0.108423
 H 0.46777 0.84693 0.75898   0.114858
 H 0.45399 0.86288 0.65167   0.105939
 H 0.55342 0.7794 0.42318   0.110997
 H 0.34075 0.64491 0.37526   0.108505
 H 0.03223 0.65307 0.75898   0.114861
 H 0.04601 0.63712 0.65167   0.105952
 H 0.94658 0.7206 0.42318   0.110998
 H 0.15925 0.85509 0.37526   0.108512
 H 0.15307 0.53223 0.24102   0.11486
 H 0.13712 0.54601 0.34833   0.105923
 H 0.2206 0.44658 0.57682   0.111
 H 0.35509 0.65925 0.62474   0.108513
 H 0.34693 0.96777 0.24102   0.114865
 H 0.36288 0.95399 0.34833   0.105925
 H 0.2794 0.05342 0.57682   0.110996
 H 0.14491 0.84075 0.62474   0.108507
 H 0.53223 0.34693 0.74102   0.114942
 H 0.54601 0.36288 0.84833   0.106
 H 0.44658 0.2794 0.07682   0.110873
 H 0.65925 0.14491 0.12474   0.108425
 H 0.96777 0.15307 0.74102   0.114944
 H 0.95399 0.13712 0.84833   0.106011
 H 0.05342 0.2206 0.07682   0.110869
 H 0.84075 0.35509 0.12474   0.108424
 H 0.08492 0.08492 0.56794   0.118323
 H 0.41508 0.41508 0.56794   0.118325
 H 0.41508 0.08492 0.06794   0.118339
 H 0.08492 0.41508 0.06794   0.118339
 H 0.91508 0.58492 0.93206   0.118343
 H 0.58492 0.91508 0.93206   0.118335
 H 0.58492 0.58492 0.43206   0.118323
 H 0.91508 0.91508 0.43206   0.118325
 C 0.11891 0.00884 0.71761   -0.212663
 C 0.12843 0.01831 0.64905   0.113082
 C 0.09402 0.99354 0.86283   0.021961
 C 0.1905 0.9655 0.61326   -0.09017
 C 0.23835 0.99478 0.08038   0.012481
 C 0.3122 0.87801 0.10669   0.01691
 C 0.38109 0.49116 0.71761   -0.212645
 C 0.37157 0.48169 0.64905   0.113076
 C 0.40598 0.50646 0.86283   0.02185
 C 0.3095 0.5345 0.61326   -0.090165
 C 0.26165 0.50522 0.08038   0.01248
 C 0.1878 0.62199 0.10669   0.016908
 C 0.49116 0.11891 0.21761   -0.212756
 C 0.48169 0.12843 0.14905   0.113326
 C 0.50646 0.09402 0.36283   0.021891
 C 0.5345 0.1905 0.11326   -0.090654
 C 0.50522 0.23835 0.58038   0.012503
 C 0.62199 0.3122 0.60669   0.0169
 C 0.00884 0.38109 0.21761   -0.212738
 C 0.01831 0.37157 0.14905   0.113325
 C 0.99354 0.40598 0.36283   0.021792
 C 0.9655 0.3095 0.11326   -0.090657
 C 0.99478 0.26165 0.58038   0.012511
 C 0.87801 0.1878 0.60669   0.016915
 C 0.88109 0.50884 0.78239   -0.212722
 C 0.87157 0.51831 0.85095   0.11332
 C 0.90598 0.49354 0.63717   0.021928
 C 0.8095 0.4655 0.88674   -0.090659
 C 0.76165 0.49478 0.41962   0.01251
 C 0.6878 0.37801 0.39331   0.016914
 C 0.61891 0.99116 0.78239   -0.212727
 C 0.62843 0.98169 0.85095   0.113313
 C 0.59402 0.00646 0.63717   0.021917
 C 0.6905 0.0345 0.88674   -0.09065
 C 0.73835 0.00522 0.41962   0.012503
 C 0.8122 0.12199 0.39331   0.016901
 C 0.50884 0.61891 0.28239   -0.212632
 C 0.51831 0.62843 0.35095   0.113073
 C 0.49354 0.59402 0.13717   0.021986
 C 0.4655 0.6905 0.38674   -0.090169
 C 0.49478 0.73835 0.91962   0.01248
 C 0.37801 0.8122 0.89331   0.016909
 C 0.99116 0.88109 0.28239   -0.212634
 C 0.98169 0.87157 0.35095   0.113069
 C 0.00646 0.90598 0.13717   0.021987
 C 0.0345 0.8095 0.38674   -0.090165
 C 0.00522 0.76165 0.91962   0.01248
 C 0.12199 0.6878 0.89331   0.016909
 C 0.88109 0.99116 0.28239   -0.212603
 C 0.87157 0.98169 0.35095   0.113287
 C 0.90598 0.00646 0.13717   0.021858
 C 0.8095 0.0345 0.38674   -0.090605
 C 0.76165 0.00522 0.91962   0.012447
 C 0.6878 0.12199 0.89331   0.016933
 C 0.61891 0.50884 0.28239   -0.212604
 C 0.62843 0.51831 0.35095   0.11328
 C 0.59402 0.49354 0.13717   0.021862
 C 0.6905 0.4655 0.38674   -0.090595
 C 0.73835 0.49478 0.91962   0.012444
 C 0.8122 0.37801 0.89331   0.016927
 C 0.50884 0.88109 0.78239   -0.212753
 C 0.51831 0.87157 0.85095   0.113268
 C 0.49354 0.90598 0.63717   0.021726
 C 0.4655 0.8095 0.88674   -0.090553
 C 0.49478 0.76165 0.41962   0.012383
 C 0.37801 0.6878 0.39331   0.016703
 C 0.99116 0.61891 0.78239   -0.212749
 C 0.98169 0.62843 0.85095   0.113274
 C 0.00646 0.59402 0.63717   0.021742
 C 0.0345 0.6905 0.88674   -0.090559
 C 0.00522 0.73835 0.41962   0.012382
 C 0.12199 0.8122 0.39331   0.016707
 C 0.11891 0.49116 0.21761   -0.212737
 C 0.12843 0.48169 0.14905   0.113266
 C 0.09402 0.50646 0.36283   0.021877
 C 0.1905 0.5345 0.11326   -0.090559
 C 0.23835 0.50522 0.58038   0.012382
 C 0.3122 0.62199 0.60669   0.016707
 C 0.38109 0.00884 0.21761   -0.21277
 C 0.37157 0.01831 0.14905   0.113271
 C 0.40598 0.99354 0.36283   0.021836
 C 0.3095 0.9655 0.11326   -0.090555
 C 0.26165 0.99478 0.58038   0.012384
 C 0.1878 0.87801 0.60669   0.016703
 C 0.49116 0.38109 0.71761   -0.212588
 C 0.48169 0.37157 0.64905   0.11328
 C 0.50646 0.40598 0.86283   0.021997
 C 0.5345 0.3095 0.61326   -0.090604
 C 0.50522 0.26165 0.08038   0.012444
 C 0.62199 0.1878 0.10669   0.016929
 C 0.00884 0.11891 0.71761   -0.212622
 C 0.01831 0.12843 0.64905   0.113282
 C 0.99354 0.09402 0.86283   0.021968
 C 0.9655 0.1905 0.61326   -0.090596
 C 0.99478 0.23835 0.08038   0.012447
 C 0.87801 0.3122 0.10669   0.016933
 C 0.05943 0.05943 0.75191   0.113635
 C 0.07843 0.07843 0.6148   -0.224455
 C 0.04953 0.04953 0.82343   -0.114369
 C 0.44057 0.44057 0.75191   0.113557
 C 0.42157 0.42157 0.6148   -0.224453
 C 0.45048 0.45047 0.82343   -0.114247
 C 0.44057 0.05943 0.25191   0.113606
 C 0.42157 0.07843 0.1148   -0.224512
 C 0.45047 0.04953 0.32343   -0.114313
 C 0.05943 0.44057 0.25191   0.113518
 C 0.07843 0.42157 0.1148   -0.224502
 C 0.04953 0.45048 0.32343   -0.114179
 C 0.94057 0.55943 0.74809   0.113519
 C 0.92157 0.57843 0.8852   -0.224502
 C 0.95047 0.54952 0.67657   -0.114177
 C 0.55943 0.94057 0.74809   0.113523
 C 0.57843 0.92157 0.8852   -0.224507
 C 0.54953 0.95048 0.67657   -0.114192
 C 0.55943 0.55943 0.24809   0.113559
 C 0.57843 0.57843 0.3852   -0.224453
 C 0.54952 0.54953 0.17657   -0.114249
 C 0.94057 0.94057 0.24809   0.113554
 C 0.92157 0.92157 0.3852   -0.224452
 C 0.95048 0.95047 0.17657   -0.114245
 N 0.06605 0.00405 0.92663   -0.243565
 N 0.19709 0.92537 0.05348   -0.235117
 N 0.24273 0.8532 0.06975   -0.287806
 N 0.43395 0.49595 0.92663   -0.243527
 N 0.30291 0.57463 0.05348   -0.235116
 N 0.25727 0.6468 0.06975   -0.287804
 N 0.49595 0.06605 0.42663   -0.243598
 N 0.57463 0.19709 0.55348   -0.235072
 N 0.6468 0.24273 0.56975   -0.287774
 N 0.00405 0.43395 0.42663   -0.243577
 N 0.92537 0.30291 0.55348   -0.2351
 N 0.8532 0.25727 0.56975   -0.287759
 N 0.93395 0.50405 0.57337   -0.243643
 N 0.80291 0.42537 0.44652   -0.235099
 N 0.75727 0.3532 0.43025   -0.287758
 N 0.56605 0.99595 0.57337   -0.243631
 N 0.69709 0.07463 0.44652   -0.235072
 N 0.74273 0.1468 0.43025   -0.287775
 N 0.50405 0.56605 0.07337   -0.243595
 N 0.42537 0.69709 0.94652   -0.235117
 N 0.3532 0.74273 0.93025   -0.287809
 N 0.99595 0.93395 0.07337   -0.243598
 N 0.07463 0.80291 0.94652   -0.235115
 N 0.1468 0.75727 0.93025   -0.287802
 N 0.93395 0.99595 0.07337   -0.243446
 N 0.80291 0.07463 0.94652   -0.235128
 N 0.75727 0.1468 0.93025   -0.287811
 N 0.56605 0.50405 0.07337   -0.243444
 N 0.69709 0.42537 0.94652   -0.235122
 N 0.74273 0.3532 0.93025   -0.287806
 N 0.50405 0.93395 0.57337   -0.24336
 N 0.42537 0.80291 0.44652   -0.234122
 N 0.3532 0.75727 0.43025   -0.286723
 N 0.99595 0.56605 0.57337   -0.243362
 N 0.07463 0.69709 0.44652   -0.234138
 N 0.1468 0.74273 0.43025   -0.286719
 N 0.06605 0.49595 0.42663   -0.243428
 N 0.19709 0.57463 0.55348   -0.234136
 N 0.24273 0.6468 0.56975   -0.28672
 N 0.43395 0.00405 0.42663   -0.243398
 N 0.30291 0.92537 0.55348   -0.234122
 N 0.25727 0.8532 0.56975   -0.286723
 N 0.49595 0.43395 0.92663   -0.243513
 N 0.57463 0.30291 0.05348   -0.235122
 N 0.6468 0.25727 0.06975   -0.287812
 N 0.00405 0.06605 0.92663   -0.243484
 N 0.92537 0.19709 0.05348   -0.235126
 N 0.8532 0.24273 0.06975   -0.287807
