{'_ref': 'TBD', '_srcid': 'CAKYAQ_clean', 'submitters': [{'name': 'Dalar Nazarian Jeff Camp and David Sholl', 'email': 'dalar@gatech.edu jcamp6@gatech.edu'}], '_method': 'VASP DFT with PBE;DDEC'}
data_ZnH6(C5N2)2
_symmetry_space_group_name_H-M   'P 1'
_cell_length_a   15.55500000
_cell_length_b   15.55500000
_cell_length_c   20.03040000
_cell_angle_alpha   90.00000000
_cell_angle_beta   90.00000000
_cell_angle_gamma   90.00000000
_symmetry_Int_Tables_number   1
_chemical_formula_structural   ZnH6(C5N2)2
_chemical_formula_sum   'Zn12 H72 C120 N48'
_cell_volume   4846.51602396
_cell_formula_units_Z   12
loop_
 _symmetry_equiv_pos_site_id
 _symmetry_equiv_pos_as_xyz
  1  'x, y, z'
loop_
 _atom_site_label
 _atom_site_fract_x
 _atom_site_fract_y
 _atom_site_fract_z
 _atom_site_charge
 Zn 0.25 0.75 0.0   0.701991
 Zn 0.75 0.25 0.5   0.701991
 Zn 0.75 0.25 0.0   0.701994
 Zn 0.25 0.75 0.5   0.701994
 Zn 0.08306 0.91694 0.0   0.680724
 Zn 0.41694 0.58306 0.0   0.680724
 Zn 0.58306 0.08306 0.5   0.680724
 Zn 0.91694 0.41694 0.5   0.680724
 Zn 0.91694 0.08306 0.0   0.680691
 Zn 0.58306 0.41694 0.0   0.680691
 Zn 0.41694 0.91694 0.5   0.680691
 Zn 0.08306 0.58306 0.5   0.680691
 H 0.15361 0.9694 0.73643   0.114302
 H 0.13887 0.9568 0.84401   0.105202
 H 0.22257 0.05294 0.0708   0.11207
 H 0.35558 0.84194 0.12089   0.110377
 H 0.34639 0.5306 0.73643   0.114302
 H 0.36113 0.5432 0.84401   0.105202
 H 0.27743 0.44706 0.0708   0.11207
 H 0.14442 0.65806 0.12089   0.110377
 H 0.5306 0.15361 0.23643   0.114302
 H 0.5432 0.13887 0.34401   0.105202
 H 0.44706 0.22257 0.5708   0.11207
 H 0.65806 0.35558 0.62089   0.110377
 H 0.9694 0.34639 0.23643   0.114302
 H 0.9568 0.36113 0.34401   0.105202
 H 0.05294 0.27743 0.5708   0.11207
 H 0.84194 0.14442 0.62089   0.110377
 H 0.84639 0.4694 0.76357   0.114301
 H 0.86113 0.4568 0.65599   0.105202
 H 0.77743 0.55294 0.4292   0.11207
 H 0.64442 0.34194 0.37911   0.110377
 H 0.65361 0.0306 0.76357   0.114302
 H 0.63887 0.0432 0.65599   0.105202
 H 0.72257 0.94706 0.4292   0.11207
 H 0.85558 0.15806 0.37911   0.110377
 H 0.4694 0.65361 0.26357   0.114301
 H 0.4568 0.63887 0.15599   0.105202
 H 0.55294 0.72257 0.9292   0.11207
 H 0.34194 0.85558 0.87911   0.110377
 H 0.0306 0.84639 0.26357   0.114302
 H 0.0432 0.86113 0.15599   0.105202
 H 0.94706 0.77743 0.9292   0.11207
 H 0.15806 0.64442 0.87911   0.110376
 H 0.84639 0.0306 0.26357   0.114275
 H 0.86113 0.0432 0.15599   0.105215
 H 0.77743 0.94706 0.9292   0.112067
 H 0.64442 0.15806 0.87911   0.110376
 H 0.65361 0.4694 0.26357   0.114277
 H 0.63887 0.4568 0.15599   0.105215
 H 0.72257 0.55294 0.9292   0.112067
 H 0.85558 0.34194 0.87911   0.110376
 H 0.4694 0.84639 0.76357   0.114275
 H 0.4568 0.86113 0.65599   0.105215
 H 0.55294 0.77743 0.4292   0.112067
 H 0.34194 0.64442 0.37911   0.110376
 H 0.0306 0.65361 0.76357   0.114277
 H 0.0432 0.63887 0.65599   0.105215
 H 0.94706 0.72257 0.4292   0.112067
 H 0.15806 0.85558 0.37911   0.110376
 H 0.15361 0.5306 0.23643   0.114275
 H 0.13887 0.5432 0.34401   0.105215
 H 0.22257 0.44706 0.5708   0.112067
 H 0.35558 0.65806 0.62089   0.110376
 H 0.34639 0.9694 0.23643   0.114275
 H 0.36113 0.9568 0.34401   0.105215
 H 0.27743 0.05294 0.5708   0.112067
 H 0.14442 0.84194 0.62089   0.110376
 H 0.5306 0.34639 0.73643   0.114275
 H 0.5432 0.36113 0.84401   0.105215
 H 0.44706 0.27743 0.0708   0.112067
 H 0.65806 0.14442 0.12089   0.110376
 H 0.9694 0.15361 0.73643   0.114275
 H 0.9568 0.13887 0.84401   0.105215
 H 0.05294 0.22257 0.0708   0.112067
 H 0.84194 0.35558 0.12089   0.110376
 H 0.084 0.08401 0.56291   0.118203
 H 0.416 0.41599 0.56291   0.118203
 H 0.41599 0.084 0.06291   0.118203
 H 0.08401 0.416 0.06291   0.118203
 H 0.916 0.584 0.93709   0.118213
 H 0.584 0.91599 0.93709   0.118203
 H 0.584 0.584 0.43709   0.118213
 H 0.91599 0.916 0.43709   0.118203
 C 0.11938 0.00996 0.71295   -0.215473
 C 0.12814 0.01868 0.64422   0.114757
 C 0.09615 0.99623 0.85854   0.024527
 C 0.18952 0.96586 0.60836   -0.091681
 C 0.24013 0.99468 0.07483   0.00291
 C 0.31317 0.87882 0.10234   0.006207
 C 0.38062 0.49004 0.71295   -0.215473
 C 0.37186 0.48132 0.64422   0.114757
 C 0.40385 0.50377 0.85854   0.024527
 C 0.31048 0.53414 0.60836   -0.091681
 C 0.25987 0.50532 0.07483   0.00291
 C 0.18683 0.62118 0.10234   0.006207
 C 0.49004 0.11938 0.21295   -0.215474
 C 0.48132 0.12814 0.14422   0.114757
 C 0.50377 0.09615 0.35854   0.024527
 C 0.53414 0.18952 0.10836   -0.091681
 C 0.50532 0.24013 0.57483   0.00291
 C 0.62118 0.31317 0.60234   0.006207
 C 0.00996 0.38062 0.21295   -0.215474
 C 0.01868 0.37186 0.14422   0.114757
 C 0.99623 0.40385 0.35854   0.024527
 C 0.96586 0.31048 0.10836   -0.091681
 C 0.99468 0.25987 0.57483   0.00291
 C 0.87882 0.18683 0.60234   0.006207
 C 0.88062 0.50996 0.78705   -0.215476
 C 0.87186 0.51868 0.85578   0.114759
 C 0.90385 0.49623 0.64146   0.024527
 C 0.81048 0.46586 0.89164   -0.09168
 C 0.75987 0.49468 0.42517   0.002913
 C 0.68683 0.37882 0.39766   0.006207
 C 0.61938 0.99004 0.78705   -0.215474
 C 0.62814 0.98132 0.85578   0.114757
 C 0.59615 0.00377 0.64146   0.024527
 C 0.68952 0.03414 0.89164   -0.091681
 C 0.74013 0.00532 0.42517   0.00291
 C 0.81317 0.12118 0.39766   0.006207
 C 0.50996 0.61938 0.28705   -0.215476
 C 0.51868 0.62814 0.35578   0.114759
 C 0.49623 0.59615 0.14146   0.024527
 C 0.46586 0.68952 0.39164   -0.09168
 C 0.49468 0.74013 0.92517   0.00291
 C 0.37882 0.81317 0.89766   0.006206
 C 0.99004 0.88062 0.28705   -0.215474
 C 0.98132 0.87186 0.35578   0.114757
 C 0.00377 0.90385 0.14146   0.024527
 C 0.03414 0.81048 0.39164   -0.091681
 C 0.00532 0.75987 0.92517   0.002913
 C 0.12118 0.68683 0.89766   0.006207
 C 0.88062 0.99004 0.28705   -0.215358
 C 0.87186 0.98132 0.35578   0.114722
 C 0.90385 0.00377 0.14146   0.024404
 C 0.81048 0.03414 0.39164   -0.091664
 C 0.75987 0.00532 0.92517   0.002922
 C 0.68683 0.12118 0.89766   0.00621
 C 0.61938 0.50996 0.28705   -0.215362
 C 0.62814 0.51868 0.35578   0.114735
 C 0.59615 0.49623 0.14146   0.024404
 C 0.68952 0.46586 0.39164   -0.091669
 C 0.74013 0.49468 0.92517   0.002921
 C 0.81317 0.37882 0.89766   0.00621
 C 0.50996 0.88062 0.78705   -0.215358
 C 0.51868 0.87186 0.85578   0.114722
 C 0.49623 0.90385 0.64146   0.024404
 C 0.46586 0.81048 0.89164   -0.091664
 C 0.49468 0.75987 0.42517   0.002921
 C 0.37882 0.68683 0.39766   0.00621
 C 0.99004 0.61938 0.78705   -0.215362
 C 0.98132 0.62814 0.85578   0.114735
 C 0.00377 0.59615 0.64146   0.024404
 C 0.03414 0.68952 0.89164   -0.091669
 C 0.00532 0.74013 0.42517   0.002921
 C 0.12118 0.81317 0.39766   0.00621
 C 0.11938 0.49004 0.21295   -0.215358
 C 0.12814 0.48132 0.14422   0.114723
 C 0.09615 0.50377 0.35854   0.024404
 C 0.18952 0.53414 0.10836   -0.091664
 C 0.24013 0.50532 0.57483   0.002921
 C 0.31317 0.62118 0.60234   0.00621
 C 0.38062 0.00996 0.21295   -0.215358
 C 0.37186 0.01868 0.14422   0.114723
 C 0.40385 0.99623 0.35854   0.024404
 C 0.31048 0.96586 0.10836   -0.091664
 C 0.25987 0.99468 0.57483   0.002921
 C 0.18683 0.87882 0.60234   0.00621
 C 0.49004 0.38062 0.71295   -0.215358
 C 0.48132 0.37186 0.64422   0.114722
 C 0.50377 0.40385 0.85854   0.024404
 C 0.53414 0.31048 0.60836   -0.091664
 C 0.50532 0.25987 0.07483   0.002921
 C 0.62118 0.18683 0.10234   0.00621
 C 0.00996 0.11938 0.71295   -0.215358
 C 0.01868 0.12814 0.64422   0.114723
 C 0.99623 0.09615 0.85854   0.024404
 C 0.96586 0.18952 0.60836   -0.091664
 C 0.99468 0.24013 0.07483   0.002921
 C 0.87882 0.31317 0.10234   0.00621
 C 0.06056 0.06057 0.74734   0.115387
 C 0.07804 0.07804 0.60988   -0.226979
 C 0.05145 0.05146 0.81903   -0.120641
 C 0.43944 0.43943 0.74734   0.115388
 C 0.42196 0.42196 0.60988   -0.226979
 C 0.44855 0.44854 0.81903   -0.120641
 C 0.43943 0.06056 0.24734   0.115388
 C 0.42196 0.07804 0.10988   -0.226979
 C 0.44854 0.05145 0.31903   -0.120641
 C 0.06057 0.43944 0.24734   0.115388
 C 0.07804 0.42196 0.10988   -0.226979
 C 0.05146 0.44855 0.31903   -0.120641
 C 0.93944 0.56057 0.75266   0.115389
 C 0.92196 0.57804 0.89012   -0.226997
 C 0.94855 0.55146 0.68097   -0.120642
 C 0.56056 0.93943 0.75266   0.115387
 C 0.57804 0.92196 0.89012   -0.226978
 C 0.55145 0.94854 0.68097   -0.120641
 C 0.56057 0.56056 0.25266   0.115389
 C 0.57804 0.57804 0.39012   -0.226997
 C 0.55146 0.55145 0.18097   -0.120642
 C 0.93943 0.93944 0.25266   0.115387
 C 0.92196 0.92196 0.39012   -0.226978
 C 0.94854 0.94855 0.18097   -0.120641
 N 0.06899 0.00731 0.9225   -0.247258
 N 0.19933 0.92544 0.04809   -0.229197
 N 0.24447 0.85384 0.06509   -0.265584
 N 0.43101 0.49269 0.9225   -0.247258
 N 0.30067 0.57456 0.04809   -0.229197
 N 0.25553 0.64616 0.06509   -0.265584
 N 0.49269 0.06899 0.4225   -0.247258
 N 0.57456 0.19933 0.54809   -0.229197
 N 0.64616 0.24447 0.56509   -0.265584
 N 0.00731 0.43101 0.4225   -0.247257
 N 0.92544 0.30067 0.54809   -0.229197
 N 0.85384 0.25553 0.56509   -0.265584
 N 0.93101 0.50731 0.5775   -0.247258
 N 0.80067 0.42544 0.45191   -0.229197
 N 0.75553 0.35384 0.43491   -0.265585
 N 0.56899 0.99269 0.5775   -0.247258
 N 0.69933 0.07456 0.45191   -0.229197
 N 0.74447 0.14616 0.43491   -0.265584
 N 0.50731 0.56899 0.0775   -0.247258
 N 0.42544 0.69933 0.95191   -0.229197
 N 0.35384 0.74447 0.93491   -0.265584
 N 0.99269 0.93101 0.0775   -0.247257
 N 0.07456 0.80067 0.95191   -0.229197
 N 0.14616 0.75553 0.93491   -0.265585
 N 0.93101 0.99269 0.0775   -0.247225
 N 0.80067 0.07456 0.95191   -0.229188
 N 0.75553 0.14616 0.93491   -0.265589
 N 0.56899 0.50731 0.0775   -0.247225
 N 0.69933 0.42544 0.95191   -0.229188
 N 0.74447 0.35384 0.93491   -0.265588
 N 0.50731 0.93101 0.5775   -0.247225
 N 0.42544 0.80067 0.45191   -0.229188
 N 0.35384 0.75553 0.43491   -0.265588
 N 0.99269 0.56899 0.5775   -0.247225
 N 0.07456 0.69933 0.45191   -0.229188
 N 0.14616 0.74447 0.43491   -0.265589
 N 0.06899 0.49269 0.4225   -0.247225
 N 0.19933 0.57456 0.54809   -0.229188
 N 0.24447 0.64616 0.56509   -0.265588
 N 0.43101 0.00731 0.4225   -0.247225
 N 0.30067 0.92544 0.54809   -0.229188
 N 0.25553 0.85384 0.56509   -0.265589
 N 0.49269 0.43101 0.9225   -0.247225
 N 0.57456 0.30067 0.04809   -0.229188
 N 0.64616 0.25553 0.06509   -0.265589
 N 0.00731 0.06899 0.9225   -0.247224
 N 0.92544 0.19933 0.04809   -0.229188
 N 0.85384 0.24447 0.06509   -0.265589
