{'_ref': 'TBD', '_srcid': 'CAKYAQ_clean', 'submitters': [{'name': 'Dalar Nazarian Jeff Camp and David Sholl', 'email': 'dalar@gatech.edu jcamp6@gatech.edu'}], '_method': 'VASP DFT with PBE;DDEC'}
data_ZnH20C28(NO2)2
_symmetry_space_group_name_H-M   'P 1'
_cell_length_a   8.40899976
_cell_length_b   13.48800001
_cell_length_c   14.13020000
_cell_angle_alpha   61.49239813
_cell_angle_beta   85.75740136
_cell_angle_gamma   81.08290205
_symmetry_Int_Tables_number   1
_chemical_formula_structural   ZnH20C28(NO2)2
_chemical_formula_sum   'Zn2 H40 C56 N4 O8'
_cell_volume   1391.31801645
_cell_formula_units_Z   2
loop_
 _symmetry_equiv_pos_site_id
 _symmetry_equiv_pos_as_xyz
  1  'x, y, z'
loop_
 _atom_site_label
 _atom_site_fract_x
 _atom_site_fract_y
 _atom_site_fract_z
 _atom_site_charge
 Zn 0.47811 0.61776 0.1824   0.832995
 Zn 0.97811 0.80016 0.8176   0.832933
 H 0.9836 0.4658 0.2586   0.082301
 H 0.2223 0.3504 0.3336   0.089292
 H 0.9829 0.1453 0.597   0.111798
 H 0.742 0.2593 0.521   0.098832
 H 0.3773 0.1901 0.472   0.09631
 H 0.2156 0.047 0.6516   0.115858
 H 0.384 0.9106 0.8044   0.136129
 H 0.6307 0.8063 0.8774   0.072769
 H 0.842 0.968 0.5976   0.087958
 H 0.6033 0.0759 0.5184   0.133209
 H 0.6181 0.9649 0.9226   0.082964
 H 0.7007 0.1448 0.8602   0.115283
 H 0.6721 0.1034 0.1628   0.103314
 H 0.5877 0.9286 0.2242   0.100216
 H 0.7852 0.2893 0.89   0.092187
 H 0.7478 0.2672 0.0942   0.105828
 H 0.9043 0.4356 0.8298   0.132911
 H 0.9833 0.6164 0.7664   0.083806
 H 0.8511 0.6167 0.0408   0.096783
 H 0.7832 0.4354 0.1112   0.125092
 H 0.4836 0.7244 0.7414   0.082204
 H 0.7223 0.684 0.6664   0.088911
 H 0.4829 0.7423 0.403   0.111421
 H 0.242 0.7803 0.479   0.098481
 H 0.8773 0.6621 0.528   0.095679
 H 0.7156 0.6986 0.3484   0.117067
 H 0.884 0.715 0.1956   0.13602
 H 0.1307 0.6837 0.1226   0.073067
 H 0.342 0.5656 0.4024   0.088329
 H 0.1033 0.5943 0.4816   0.133445
 H 0.1181 0.8875 0.0774   0.081998
 H 0.2007 0.005 0.1398   0.114973
 H 0.1721 0.2662 0.8372   0.103236
 H 0.0877 0.1528 0.7758   0.099817
 H 0.2852 0.1793 0.11   0.091756
 H 0.2478 0.3614 0.9058   0.105171
 H 0.4043 0.2654 0.1702   0.132537
 H 0.4833 0.3828 0.2336   0.083268
 H 0.3511 0.6575 0.9592   0.096278
 H 0.2832 0.5466 0.8888   0.1255
 C 0.6817 0.4468 0.3344   0.638879
 C 0.8381 0.3745 0.3822   -0.135662
 C 0.9829 0.4004 0.3274   -0.045645
 C 0.1248 0.3317 0.3724   -0.133576
 C 0.1298 0.2363 0.4724   0.069188
 C 0.9832 0.2102 0.528   -0.130924
 C 0.84 0.2782 0.483   -0.053876
 C 0.285 0.1661 0.5156   -0.077416
 C 0.3083 0.0727 0.6094   -0.147197
 C 0.4645 0.0052 0.6538   0.15791
 C 0.4772 0.924 0.7602   -0.195395
 C 0.625 0.8616 0.8034   0.164052
 C 0.7471 0.9563 0.6402   0.178515
 C 0.6057 0.0208 0.5926   -0.21284
 C 0.5386 0.8133 0.1226   0.612256
 C 0.5924 0.9296 0.079   -0.131388
 C 0.6282 0.9932 0.9716   -0.015835
 C 0.6797 0.1002 0.9346   -0.131994
 C 0.7001 0.1408 0.0052   0.059621
 C 0.6621 0.0754 0.1136   -0.134596
 C 0.611 0.9721 0.15   -0.039452
 C 0.7574 0.252 0.9642   -0.060661
 C 0.7738 0.3048 0.0198   -0.161837
 C 0.8288 0.4169 0.9774   0.15357
 C 0.8924 0.4714 0.8742   -0.209358
 C 0.9389 0.5801 0.8366   0.149944
 C 0.8635 0.5799 0.9972   0.165194
 C 0.8199 0.4722 0.0388   -0.202573
 C 0.1817 0.7812 0.6656   0.639339
 C 0.3381 0.7567 0.6178   -0.136011
 C 0.4829 0.7278 0.6726   -0.045721
 C 0.6248 0.7041 0.6276   -0.133353
 C 0.6298 0.7087 0.5276   0.06955
 C 0.4832 0.7382 0.472   -0.131215
 C 0.34 0.7612 0.517   -0.053003
 C 0.785 0.6817 0.4844   -0.075882
 C 0.8083 0.6821 0.3906   -0.149378
 C 0.9645 0.659 0.3462   0.158134
 C 0.9772 0.6842 0.2398   -0.195242
 C 0.125 0.665 0.1966   0.163748
 C 0.2471 0.5965 0.3598   0.178355
 C 0.1057 0.6134 0.4074   -0.213174
 C 0.0386 0.9359 0.8774   0.614504
 C 0.0924 0.0086 0.921   -0.131557
 C 0.1282 0.9648 0.0284   -0.013913
 C 0.1797 0.0348 0.0654   -0.132101
 C 0.2001 0.146 0.9948   0.059986
 C 0.1621 0.189 0.8864   -0.13387
 C 0.111 0.1221 0.85   -0.040207
 C 0.2574 0.2162 0.0358   -0.060587
 C 0.2738 0.3246 0.9802   -0.16177
 C 0.3288 0.3943 0.0226   0.153527
 C 0.3924 0.3456 0.1258   -0.208217
 C 0.4389 0.4167 0.1634   0.150872
 C 0.3635 0.5771 0.0028   0.165911
 C 0.3199 0.511 0.9612   -0.203243
 N 0.7593 0.8767 0.7446   -0.350566
 N 0.9228 0.6345 0.8968   -0.346547
 N 0.2593 0.6213 0.2554   -0.350651
 N 0.4228 0.5313 0.1032   -0.347221
 O 0.6892 0.52992 0.23816   -0.60096
 O 0.554 0.42336 0.38388   -0.594374
 O 0.525 0.77361 0.05818   -0.574615
 O 0.5154 0.7585 0.2214   -0.55743
 O 0.1892 0.76808 0.76184   -0.601086
 O 0.054 0.80724 0.61612   -0.594713
 O 0.025 0.83179 0.94182   -0.575649
 O 0.0154 0.9799 0.7786   -0.558498
