{'_ref': 'TBD', '_srcid': 'CAKYAQ_clean', 'submitters': [{'name': 'Dalar Nazarian Jeff Camp and David Sholl', 'email': 'dalar@gatech.edu jcamp6@gatech.edu'}], '_method': 'VASP DFT with PBE;DDEC'}
data_ZnH20C28(NO2)2
_symmetry_space_group_name_H-M   'P 1'
_cell_length_a   8.66599996
_cell_length_b   13.18699987
_cell_length_c   14.08330000
_cell_angle_alpha   62.08389985
_cell_angle_beta   84.11799995
_cell_angle_gamma   77.35609861
_symmetry_Int_Tables_number   1
_chemical_formula_structural   ZnH20C28(NO2)2
_chemical_formula_sum   'Zn2 H40 C56 N4 O8'
_cell_volume   1387.64970302
_cell_formula_units_Z   2
loop_
 _symmetry_equiv_pos_site_id
 _symmetry_equiv_pos_as_xyz
  1  'x, y, z'
loop_
 _atom_site_label
 _atom_site_fract_x
 _atom_site_fract_y
 _atom_site_fract_z
 _atom_site_charge
 Zn 0.79845 0.10049 0.8236   0.835024
 Zn 0.29845 0.92409 0.1764   0.834395
 H 0.0683 0.1004 0.47   0.098929
 H 0.311 0.0532 0.3958   0.111051
 H 0.5331 0.9795 0.6658   0.093676
 H 0.2838 0.0161 0.7428   0.082634
 H 0.6894 0.9821 0.52   0.100214
 H 0.5433 0.9926 0.3478   0.117239
 H 0.7066 0.9979 0.1966   0.138746
 H 0.9601 0.9688 0.1236   0.062092
 H 0.1671 0.8971 0.3888   0.09148
 H 0.9278 0.9322 0.4654   0.133761
 H 0.4491 0.2653 0.9192   0.083047
 H 0.5362 0.4419 0.8584   0.115823
 H 0.5071 0.4029 0.1602   0.100567
 H 0.423 0.2305 0.2226   0.10076
 H 0.6084 0.5894 0.8866   0.096024
 H 0.5875 0.5646 0.0936   0.106974
 H 0.7194 0.74 0.8238   0.138774
 H 0.7969 0.9166 0.7706   0.07271
 H 0.6784 0.9182 0.0466   0.10081
 H 0.6178 0.7325 0.1118   0.12392
 H 0.5683 0.5704 0.53   0.100036
 H 0.811 0.449 0.6042   0.111506
 H 0.0331 0.6453 0.3342   0.093365
 H 0.7838 0.7589 0.2572   0.082787
 H 0.1894 0.5021 0.48   0.099032
 H 0.0433 0.3404 0.6522   0.117705
 H 0.2066 0.1945 0.8034   0.13953
 H 0.4601 0.0924 0.8764   0.061713
 H 0.6671 0.2859 0.6112   0.092156
 H 0.4278 0.3976 0.5346   0.133272
 H 0.9491 0.1845 0.0808   0.084433
 H 0.0362 0.3003 0.1416   0.115627
 H 0.0071 0.5631 0.8398   0.100809
 H 0.923 0.4531 0.7774   0.101646
 H 0.1084 0.476 0.1134   0.095257
 H 0.0875 0.6582 0.9064   0.107377
 H 0.2194 0.5638 0.1762   0.1392
 H 0.2969 0.6872 0.2294   0.0736
 H 0.1784 0.9648 0.9534   0.100463
 H 0.1178 0.8443 0.8882   0.123536
 C 0.0015 0.0816 0.665   0.635801
 C 0.1566 0.0575 0.6142   -0.119642
 C 0.1628 0.073 0.5106   -0.046138
 C 0.3075 0.0484 0.4654   -0.129862
 C 0.4475 0.0168 0.5218   0.076012
 C 0.439 0.0033 0.6254   -0.136797
 C 0.2898 0.0247 0.6718   -0.059007
 C 0.6009 0.9932 0.4792   -0.075922
 C 0.6318 0.9852 0.3868   -0.157151
 C 0.7881 0.9661 0.3408   0.154561
 C 0.7988 0.9784 0.2374   -0.205905
 C 0.9527 0.9606 0.1944   0.176123
 C 0.0729 0.92 0.3488   0.167254
 C 0.9307 0.9383 0.3954   -0.208357
 C 0.3732 0.1161 0.1186   0.615329
 C 0.4248 0.2298 0.0772   -0.136665
 C 0.4603 0.2935 0.9686   -0.012208
 C 0.5122 0.399 0.9324   -0.132606
 C 0.529 0.4415 0.0028   0.062653
 C 0.4947 0.3751 0.1108   -0.132363
 C 0.4447 0.273 0.1482   -0.032431
 C 0.5854 0.5518 0.9612   -0.067399
 C 0.6073 0.6038 0.0186   -0.162907
 C 0.6594 0.7169 0.977   0.152908
 C 0.7128 0.7729 0.8718   -0.207539
 C 0.7557 0.8789 0.841   0.165655
 C 0.6901 0.8807 0.0022   0.163362
 C 0.6513 0.7711 0.0394   -0.202329
 C 0.5015 0.7466 0.335   0.636245
 C 0.6566 0.6717 0.3858   -0.119742
 C 0.6628 0.5836 0.4894   -0.048004
 C 0.8075 0.5138 0.5346   -0.129921
 C 0.9475 0.5386 0.4782   0.075107
 C 0.939 0.6287 0.3746   -0.135806
 C 0.7898 0.6965 0.3282   -0.058892
 C 0.1009 0.4724 0.5208   -0.073676
 C 0.1318 0.372 0.6132   -0.159704
 C 0.2881 0.3069 0.6592   0.156041
 C 0.2988 0.2158 0.7626   -0.208335
 C 0.4527 0.155 0.8056   0.178747
 C 0.5729 0.2688 0.6512   0.167011
 C 0.4307 0.3337 0.6046   -0.207542
 C 0.8732 0.2347 0.8814   0.616397
 C 0.9248 0.307 0.9228   -0.136123
 C 0.9603 0.2621 0.0314   -0.015469
 C 0.0122 0.3314 0.0676   -0.129558
 C 0.029 0.4443 0.9972   0.061003
 C 0.9947 0.4859 0.8892   -0.131084
 C 0.9447 0.4212 0.8518   -0.035223
 C 0.0854 0.513 0.0388   -0.065265
 C 0.1073 0.6224 0.9814   -0.164026
 C 0.1594 0.6939 0.023   0.152209
 C 0.2128 0.6447 0.1282   -0.207418
 C 0.2557 0.7199 0.159   0.163853
 C 0.1901 0.8829 0.9978   0.163955
 C 0.1513 0.8105 0.9606   -0.201773
 N 0.0836 0.9338 0.246   -0.345883
 N 0.7443 0.9317 0.9012   -0.350785
 N 0.5836 0.1798 0.754   -0.348148
 N 0.2443 0.8329 0.0988   -0.349952
 O 0.0043 0.067 0.7602   -0.587711
 O 0.8744 0.1085 0.6128   -0.619536
 O 0.355 0.0756 0.0552   -0.574602
 O 0.3343 0.0677 0.2166   -0.569898
 O 0.5043 0.8272 0.2398   -0.587845
 O 0.3744 0.7213 0.3872   -0.619298
 O 0.855 0.1308 0.9448   -0.575049
 O 0.8343 0.2843 0.7834   -0.570429
