{'_ref': 'TBD', '_srcid': 'CAKYAQ_clean', 'submitters': [{'name': 'Dalar Nazarian Jeff Camp and David Sholl', 'email': 'dalar@gatech.edu jcamp6@gatech.edu'}], '_method': 'VASP DFT with PBE;DDEC'}
data_MnH5C10N3O4
_symmetry_space_group_name_H-M   'P 1'
_cell_length_a   12.28620000
_cell_length_b   14.94710000
_cell_length_c   20.89590000
_cell_angle_alpha   90.00000000
_cell_angle_beta   90.00000000
_cell_angle_gamma   90.00000000
_symmetry_Int_Tables_number   1
_chemical_formula_structural   MnH5C10N3O4
_chemical_formula_sum   'Mn8 H40 C80 N24 O32'
_cell_volume   3837.38701787
_cell_formula_units_Z   8
loop_
 _symmetry_equiv_pos_site_id
 _symmetry_equiv_pos_as_xyz
  1  'x, y, z'
loop_
 _atom_site_label
 _atom_site_fract_x
 _atom_site_fract_y
 _atom_site_fract_z
 _atom_site_charge
 Mn 0.91569 0.62456 0.30633   1.035669
 Mn 0.58431 0.87544 0.80633   1.035669
 Mn 0.08431 0.62456 0.19367   1.035669
 Mn 0.41569 0.87544 0.69367   1.035669
 Mn 0.08431 0.37544 0.69367   1.035669
 Mn 0.41569 0.12456 0.19367   1.035669
 Mn 0.91569 0.37544 0.80633   1.035669
 Mn 0.58431 0.12456 0.30633   1.035669
 H 0.5999 0.6195 0.46   0.117161
 H 0.9169 0.64 0.4646   0.122325
 H 0.8682 0.5297 0.5688   0.116183
 H 0.7456 0.6256 0.7331   0.120803
 H 0.6405 0.7235 0.5653   0.116282
 H 0.9001 0.8805 0.96   0.117161
 H 0.5831 0.86 0.9646   0.122325
 H 0.6318 0.9703 0.0688   0.116183
 H 0.7544 0.8744 0.2331   0.120803
 H 0.8595 0.7765 0.0653   0.116282
 H 0.4001 0.6195 0.04   0.117161
 H 0.0831 0.64 0.0354   0.122326
 H 0.1318 0.5297 0.9312   0.116183
 H 0.2544 0.6256 0.7669   0.120803
 H 0.3595 0.7235 0.9347   0.116284
 H 0.0999 0.8805 0.54   0.117161
 H 0.4169 0.86 0.5354   0.122326
 H 0.3682 0.9703 0.4312   0.116183
 H 0.2456 0.8744 0.2669   0.120803
 H 0.1405 0.7765 0.4347   0.116284
 H 0.4001 0.3805 0.54   0.11716
 H 0.0831 0.36 0.5354   0.122326
 H 0.1318 0.4703 0.4312   0.116186
 H 0.2544 0.3744 0.2669   0.120803
 H 0.3595 0.2765 0.4347   0.116283
 H 0.0999 0.1195 0.04   0.11716
 H 0.4169 0.14 0.0354   0.122326
 H 0.3682 0.0297 0.9312   0.116186
 H 0.2456 0.1256 0.7669   0.120803
 H 0.1405 0.2235 0.9347   0.116283
 H 0.5999 0.3805 0.96   0.11716
 H 0.9169 0.36 0.9646   0.122327
 H 0.8682 0.4703 0.0688   0.116186
 H 0.7456 0.3744 0.2331   0.120803
 H 0.6405 0.2765 0.0653   0.116284
 H 0.9001 0.1195 0.46   0.11716
 H 0.5831 0.14 0.4646   0.122327
 H 0.6318 0.0297 0.5688   0.116186
 H 0.7544 0.1256 0.7331   0.120803
 H 0.8595 0.2235 0.5653   0.116284
 C 0.6726 0.6186 0.4475   0.14835
 C 0.846 0.6308 0.4504   0.130119
 C 0.7537 0.6232 0.5571   0.076844
 C 0.8201 0.5672 0.5903   -0.130275
 C 0.815 0.5669 0.6575   -0.08484
 C 0.7483 0.6258 0.6887   -0.019362
 C 0.6842 0.6863 0.6541   -0.079008
 C 0.6126 0.7531 0.6896   0.697616
 C 0.6846 0.6848 0.5886   -0.137137
 C 0.8803 0.499 0.6936   0.695061
 C 0.8274 0.8814 0.9475   0.14835
 C 0.654 0.8692 0.9504   0.130119
 C 0.7463 0.8768 0.0571   0.076844
 C 0.6799 0.9328 0.0903   -0.130275
 C 0.685 0.9331 0.1575   -0.08484
 C 0.7517 0.8742 0.1887   -0.019362
 C 0.8158 0.8137 0.1541   -0.079008
 C 0.8874 0.7469 0.1896   0.697616
 C 0.8154 0.8152 0.0886   -0.137137
 C 0.6197 0.000999999999998 0.1936   0.695061
 C 0.3274 0.6186 0.0525   0.14835
 C 0.154 0.6308 0.0496   0.130119
 C 0.2463 0.6232 0.9429   0.076844
 C 0.1799 0.5672 0.9097   -0.130274
 C 0.185 0.5669 0.8425   -0.08484
 C 0.2517 0.6258 0.8113   -0.019362
 C 0.3158 0.6863 0.8459   -0.079008
 C 0.3874 0.7531 0.8104   0.697617
 C 0.3154 0.6848 0.9114   -0.137137
 C 0.1197 0.499 0.8064   0.695061
 C 0.1726 0.8814 0.5525   0.14835
 C 0.346 0.8692 0.5496   0.130119
 C 0.2537 0.8768 0.4429   0.076844
 C 0.3201 0.9328 0.4097   -0.130274
 C 0.315 0.9331 0.3425   -0.08484
 C 0.2483 0.8742 0.3113   -0.019362
 C 0.1842 0.8137 0.3459   -0.079008
 C 0.1126 0.7469 0.3104   0.697617
 C 0.1846 0.8152 0.4114   -0.137137
 C 0.3803 0.000999999999998 0.3064   0.695061
 C 0.3274 0.3814 0.5525   0.14835
 C 0.154 0.3692 0.5496   0.130119
 C 0.2463 0.3768 0.4429   0.076845
 C 0.1799 0.4328 0.4097   -0.130275
 C 0.185 0.4331 0.3425   -0.084839
 C 0.2517 0.3742 0.3113   -0.019363
 C 0.3158 0.3137 0.3459   -0.079008
 C 0.3874 0.2469 0.3104   0.697616
 C 0.3154 0.3152 0.4114   -0.137137
 C 0.1197 0.501 0.3064   0.69506
 C 0.1726 0.1186 0.0525   0.14835
 C 0.346 0.1308 0.0496   0.130119
 C 0.2537 0.1232 0.9429   0.076845
 C 0.3201 0.0672 0.9097   -0.130275
 C 0.315 0.0669 0.8425   -0.084839
 C 0.2483 0.1258 0.8113   -0.019363
 C 0.1842 0.1863 0.8459   -0.079008
 C 0.1126 0.2531 0.8104   0.697616
 C 0.1846 0.1848 0.9114   -0.137137
 C 0.3803 0.999 0.8064   0.69506
 C 0.6726 0.3814 0.9475   0.14835
 C 0.846 0.3692 0.9504   0.130118
 C 0.7537 0.3768 0.0571   0.076845
 C 0.8201 0.4328 0.0903   -0.130275
 C 0.815 0.4331 0.1575   -0.08484
 C 0.7483 0.3742 0.1887   -0.019362
 C 0.6842 0.3137 0.1541   -0.079008
 C 0.6126 0.2469 0.1896   0.697616
 C 0.6846 0.3152 0.0886   -0.137138
 C 0.8803 0.501 0.1936   0.695061
 C 0.8274 0.1186 0.4475   0.14835
 C 0.654 0.1308 0.4504   0.130118
 C 0.7463 0.1232 0.5571   0.076845
 C 0.6799 0.0672 0.5903   -0.130275
 C 0.685 0.0669 0.6575   -0.08484
 C 0.7517 0.1258 0.6887   -0.019362
 C 0.8158 0.1863 0.6541   -0.079008
 C 0.8874 0.2531 0.6896   0.697616
 C 0.8154 0.1848 0.5886   -0.137138
 C 0.6197 0.999 0.6936   0.695061
 N 0.7571 0.6233 0.4886   -0.0037
 N 0.8167 0.6232 0.3908   -0.206405
 N 0.7046 0.6125 0.3888   -0.271622
 N 0.7429 0.8767 0.9886   -0.0037
 N 0.6833 0.8768 0.8908   -0.206405
 N 0.7954 0.8875 0.8888   -0.271622
 N 0.2429 0.6233 0.0114   -0.003699
 N 0.1833 0.6232 0.1092   -0.206405
 N 0.2954 0.6125 0.1112   -0.271622
 N 0.2571 0.8767 0.5114   -0.003699
 N 0.3167 0.8768 0.6092   -0.206405
 N 0.2046 0.8875 0.6112   -0.271622
 N 0.2429 0.3767 0.5114   -0.0037
 N 0.1833 0.3768 0.6092   -0.206405
 N 0.2954 0.3875 0.6112   -0.271622
 N 0.2571 0.1233 0.0114   -0.0037
 N 0.3167 0.1232 0.1092   -0.206405
 N 0.2046 0.1125 0.1112   -0.271622
 N 0.7571 0.3767 0.9886   -0.003699
 N 0.8167 0.3768 0.8908   -0.206405
 N 0.7046 0.3875 0.8888   -0.271622
 N 0.7429 0.1233 0.4886   -0.003699
 N 0.6833 0.1232 0.3908   -0.206405
 N 0.7954 0.1125 0.3888   -0.271622
 O 0.6435 0.7761 0.7433   -0.593174
 O 0.5305 0.7806 0.6606   -0.626282
 O 0.8492 0.4772 0.7483   -0.593725
 O 0.9628 0.4687 0.6658   -0.630888
 O 0.8565 0.7239 0.2433   -0.593174
 O 0.9695 0.7194 0.1606   -0.626282
 O 0.6508 0.0228 0.2483   -0.593725
 O 0.5372 0.0313 0.1658   -0.630888
 O 0.3565 0.7761 0.7567   -0.593174
 O 0.4695 0.7806 0.8394   -0.626282
 O 0.1508 0.4772 0.7517   -0.593725
 O 0.0372 0.4687 0.8342   -0.630888
 O 0.1435 0.7239 0.2567   -0.593174
 O 0.0305 0.7194 0.3394   -0.626282
 O 0.3492 0.0228 0.2517   -0.593725
 O 0.4628 0.0313 0.3342   -0.630888
 O 0.3565 0.2239 0.2567   -0.593174
 O 0.4695 0.2194 0.3394   -0.626282
 O 0.1508 0.5228 0.2517   -0.593725
 O 0.0372 0.5313 0.3342   -0.630888
 O 0.1435 0.2761 0.7567   -0.593174
 O 0.0305 0.2806 0.8394   -0.626282
 O 0.3492 0.9772 0.7517   -0.593725
 O 0.4628 0.9687 0.8342   -0.630888
 O 0.6435 0.2239 0.2433   -0.593174
 O 0.5305 0.2194 0.1606   -0.626282
 O 0.8492 0.5228 0.2483   -0.593725
 O 0.9628 0.5313 0.1658   -0.630888
 O 0.8565 0.2761 0.7433   -0.593174
 O 0.9695 0.2806 0.6606   -0.626282
 O 0.6508 0.9772 0.7483   -0.593725
 O 0.5372 0.9687 0.6658   -0.630888
