{'_ref': 'TBD', '_srcid': 'CAKYAQ_clean', 'submitters': [{'name': 'Dalar Nazarian Jeff Camp and David Sholl', 'email': 'dalar@gatech.edu jcamp6@gatech.edu'}], '_method': 'VASP DFT with PBE;DDEC'}
data_Mn2Nb(CN)8
_symmetry_space_group_name_H-M   'P 1'
_cell_length_a   10.45000000
_cell_length_b   10.45000000
_cell_length_c   22.73600000
_cell_angle_alpha   90.00000000
_cell_angle_beta   90.00000000
_cell_angle_gamma   90.00000000
_symmetry_Int_Tables_number   1
_chemical_formula_structural   Mn2Nb(CN)8
_chemical_formula_sum   'Mn8 Nb4 C32 N32'
_cell_volume   2482.82804
_cell_formula_units_Z   4
loop_
 _symmetry_equiv_pos_site_id
 _symmetry_equiv_pos_as_xyz
  1  'x, y, z'
loop_
 _atom_site_label
 _atom_site_fract_x
 _atom_site_fract_y
 _atom_site_fract_z
 _atom_site_charge
 Mn 0.57161 0.44163 0.30281   1.191785
 Mn 0.07352 0.93986 0.16835   1.186801
 Mn 0.42839 0.55837 0.80281   1.191785
 Mn 0.92648 0.06014 0.66835   1.186801
 Mn 0.55837 0.57161 0.05281   1.191768
 Mn 0.06014 0.07352 0.91835   1.186788
 Mn 0.44163 0.42839 0.55281   1.191768
 Mn 0.93986 0.92648 0.41835   1.186788
 Nb 0.57121 0.93855 0.23584   0.320789
 Nb 0.42879 0.06145 0.73584   0.320789
 Nb 0.06145 0.57121 0.98584   0.320789
 Nb 0.93855 0.42879 0.48584   0.320789
 C 0.374 0.9586 0.1986   0.185173
 C 0.773 0.9206 0.2045   0.159161
 C 0.5869 0.0711 0.1572   0.019746
 C 0.5609 0.7995 0.1596   0.133782
 C 0.7018 0.9247 0.317   0.140127
 C 0.431 0.9631 0.3106   0.021767
 C 0.5429 0.7434 0.2736   0.15097
 C 0.598 0.1387 0.2666   0.180581
 C 0.626 0.0414 0.6986   0.185173
 C 0.227 0.0794 0.7045   0.159161
 C 0.4131 0.9289 0.6572   0.019746
 C 0.4391 0.2005 0.6596   0.133782
 C 0.2982 0.0753 0.817   0.140127
 C 0.569 0.0369 0.8106   0.021767
 C 0.4571 0.2566 0.7736   0.15097
 C 0.402 0.8613 0.7666   0.180581
 C 0.0414 0.374 0.9486   0.185172
 C 0.0794 0.773 0.9545   0.159161
 C 0.9289 0.5869 0.9072   0.019746
 C 0.2005 0.5609 0.9096   0.133782
 C 0.0753 0.7018 0.067   0.140127
 C 0.0369 0.431 0.0606   0.021767
 C 0.2566 0.5429 0.0236   0.15097
 C 0.8613 0.598 0.0166   0.18058
 C 0.9586 0.626 0.4486   0.185172
 C 0.9206 0.227 0.4545   0.159161
 C 0.0711 0.4131 0.4072   0.019746
 C 0.7995 0.4391 0.4096   0.133782
 C 0.9247 0.2982 0.567   0.140127
 C 0.9631 0.569 0.5606   0.021767
 C 0.7434 0.4571 0.5236   0.15097
 C 0.1387 0.402 0.5166   0.18058
 N 0.5518 0.7223 0.1222   -0.473305
 N 0.7772 0.9178 0.3522   -0.461557
 N 0.5966 0.1522 0.1232   -0.399504
 N 0.8736 0.914 0.1856   -0.482125
 N 0.3485 0.9712 0.3431   -0.405923
 N 0.2766 0.9678 0.1759   -0.494795
 N 0.5327 0.6465 0.2976   -0.485837
 N 0.6076 0.2401 0.2845   -0.487622
 N 0.4482 0.2777 0.6222   -0.473305
 N 0.2228 0.0822 0.8522   -0.461557
 N 0.4034 0.8478 0.6232   -0.399505
 N 0.1264 0.086 0.6856   -0.482125
 N 0.6515 0.0288 0.8431   -0.405925
 N 0.7234 0.0322 0.6759   -0.494795
 N 0.4673 0.3535 0.7976   -0.485837
 N 0.3924 0.7599 0.7845   -0.487622
 N 0.2777 0.5518 0.8722   -0.473305
 N 0.0822 0.7772 0.1022   -0.461558
 N 0.8478 0.5966 0.8732   -0.399503
 N 0.086 0.8736 0.9356   -0.482122
 N 0.0288 0.3485 0.0931   -0.405923
 N 0.0322 0.2766 0.9259   -0.494794
 N 0.3535 0.5327 0.0476   -0.485835
 N 0.7599 0.6076 0.0345   -0.487619
 N 0.7223 0.4482 0.3722   -0.473305
 N 0.9178 0.2228 0.6022   -0.461558
 N 0.1522 0.4034 0.3732   -0.399505
 N 0.914 0.1264 0.4356   -0.482122
 N 0.9712 0.6515 0.5931   -0.405924
 N 0.9678 0.7234 0.4259   -0.494794
 N 0.6465 0.4673 0.5476   -0.485835
 N 0.2401 0.3924 0.5345   -0.487619
