{'_ref': 'TBD', '_srcid': 'CAKYAQ_clean', 'submitters': [{'name': 'Dalar Nazarian Jeff Camp and David Sholl', 'email': 'dalar@gatech.edu jcamp6@gatech.edu'}], '_method': 'VASP DFT with PBE;DDEC'}
data_Mn2Nb(CN)8
_symmetry_space_group_name_H-M   'P 1'
_cell_length_a   10.45900033
_cell_length_b   10.46000020
_cell_length_c   11.54000000
_cell_angle_alpha   83.15899768
_cell_angle_beta   82.12000129
_cell_angle_gamma   88.96400165
_symmetry_Int_Tables_number   1
_chemical_formula_structural   Mn2Nb(CN)8
_chemical_formula_sum   'Mn4 Nb2 C16 N16'
_cell_volume   1241.66265868
_cell_formula_units_Z   2
loop_
 _symmetry_equiv_pos_site_id
 _symmetry_equiv_pos_as_xyz
  1  'x, y, z'
loop_
 _atom_site_label
 _atom_site_fract_x
 _atom_site_fract_y
 _atom_site_fract_z
 _atom_site_charge
 Mn 0.25187 0.69491 0.88363   1.195547
 Mn 0.20248 0.7643 0.38654   1.194806
 Mn 0.74813 0.30509 0.11637   1.195546
 Mn 0.79752 0.2357 0.61346   1.194805
 Nb 0.22485 0.27952 0.24797   0.314798
 Nb 0.77515 0.72048 0.75203   0.314798
 C 0.2727 0.1584 0.097   0.01398
 C 0.0622 0.2575 0.4036   0.1358
 C 0.1986 0.4739 0.3083   0.163083
 C 0.2315 0.0738 0.3246   0.183656
 C 0.435 0.3159 0.1871   0.184763
 C 0.0414 0.2609 0.172   0.153888
 C 0.2311 0.4299 0.0885   0.143436
 C 0.3334 0.2749 0.4055   0.025055
 C 0.7273 0.8416 0.903   0.01398
 C 0.9378 0.7425 0.5964   0.1358
 C 0.8014 0.5261 0.6917   0.163083
 C 0.7685 0.9262 0.6754   0.183656
 C 0.565 0.6841 0.8129   0.184763
 C 0.9586 0.7391 0.828   0.153888
 C 0.7689 0.5701 0.9115   0.143436
 C 0.6666 0.7251 0.5945   0.025055
 N 0.4005 0.2743 0.4753   -0.40534
 N 0.9749 0.2446 0.4762   -0.470158
 N 0.2315 0.9692 0.3704   -0.497102
 N 0.231 0.5176 0.0157   -0.473238
 N 0.9517 0.2631 0.1237   -0.490491
 N 0.1847 0.5688 0.3483   -0.487561
 N 0.5414 0.3311 0.1526   -0.486984
 N 0.2935 0.0844 0.0312   -0.397937
 N 0.5995 0.7257 0.5247   -0.405339
 N 0.0251 0.7554 0.5238   -0.470158
 N 0.7685 0.0308 0.6296   -0.497102
 N 0.769 0.4824 0.9843   -0.473238
 N 0.0483 0.7369 0.8763   -0.490491
 N 0.8153 0.4312 0.6517   -0.487561
 N 0.4586 0.6689 0.8474   -0.486984
 N 0.7065 0.9156 0.9688   -0.397938
