{'_ref': 'TBD', '_srcid': 'CAKYAQ_clean', 'submitters': [{'name': 'Dalar Nazarian Jeff Camp and David Sholl', 'email': 'dalar@gatech.edu jcamp6@gatech.edu'}], '_method': 'VASP DFT with PBE;DDEC'}
data_CoH20(C3N)8
_symmetry_space_group_name_H-M   'P 1'
_cell_length_a   6.28720000
_cell_length_b   14.31400000
_cell_length_c   14.31400000
_cell_angle_alpha   90.00000000
_cell_angle_beta   90.00000000
_cell_angle_gamma   90.00000000
_symmetry_Int_Tables_number   1
_chemical_formula_structural   CoH20(C3N)8
_chemical_formula_sum   'Co2 H40 C48 N16'
_cell_volume   1288.18815517
_cell_formula_units_Z   2
loop_
 _symmetry_equiv_pos_site_id
 _symmetry_equiv_pos_as_xyz
  1  'x, y, z'
loop_
 _atom_site_label
 _atom_site_fract_x
 _atom_site_fract_y
 _atom_site_fract_z
 _atom_site_charge
 Co 0.75 0.75 0.75   0.376315
 Co 0.25 0.25 0.25   0.376315
 H 0.2357 0.0479 0.8853   0.064964
 H 0.0413 0.8527 0.0628   0.027384
 H 0.3829 0.9053 0.7982   0.10068
 H 0.6757 0.7247 0.9658   0.078053
 H 0.4146 0.8104 0.048   0.2203
 H 0.2357 0.4521 0.6147   0.064964
 H 0.0413 0.6473 0.4372   0.027387
 H 0.3829 0.5947 0.7018   0.10068
 H 0.6757 0.7753 0.5342   0.078053
 H 0.4146 0.6896 0.452   0.220304
 H 0.7357 0.1147 0.5479   0.064963
 H 0.5413 0.9372 0.3527   0.02742
 H 0.8829 0.2018 0.4053   0.10068
 H 0.1757 0.0342 0.2247   0.078054
 H 0.9146 0.952 0.3104   0.220336
 H 0.7357 0.3853 0.9521   0.064963
 H 0.5413 0.5628 0.1473   0.027423
 H 0.8829 0.2982 0.0947   0.10068
 H 0.1757 0.4658 0.2753   0.078054
 H 0.9146 0.548 0.1896   0.220339
 H 0.7643 0.9521 0.1147   0.06501
 H 0.9587 0.1473 0.9372   0.027408
 H 0.6171 0.0947 0.2018   0.100679
 H 0.3243 0.2753 0.0342   0.078052
 H 0.5854 0.1896 0.952   0.220325
 H 0.7643 0.5479 0.3853   0.065009
 H 0.9587 0.3527 0.5628   0.02741
 H 0.6171 0.4053 0.2982   0.100679
 H 0.3243 0.2247 0.4658   0.078052
 H 0.5854 0.3104 0.548   0.22033
 H 0.2643 0.8853 0.4521   0.065009
 H 0.4587 0.0628 0.6473   0.027442
 H 0.1171 0.7982 0.5947   0.100679
 H 0.8243 0.9658 0.7753   0.078054
 H 0.0854 0.048 0.6896   0.22036
 H 0.2643 0.6147 0.0479   0.065009
 H 0.4587 0.4372 0.8527   0.027444
 H 0.1171 0.7018 0.9053   0.100679
 H 0.8243 0.5342 0.7247   0.078054
 H 0.0854 0.452 0.8104   0.220363
 C 0.1609 0.9422 0.971   0.022239
 C 0.1418 0.02839 0.93149   -0.122485
 C 0.0256 0.9121 0.0374   -0.116169
 C 0.422 0.8718 0.8512   -0.069209
 C 0.5864 0.7706 0.9418   0.158402
 C 0.3372 0.8838 0.938   0.075994
 C 0.1609 0.5578 0.529   0.022239
 C 0.1418 0.47161 0.56851   -0.122485
 C 0.0256 0.5879 0.4626   -0.11617
 C 0.422 0.6282 0.6488   -0.069209
 C 0.5864 0.7294 0.5582   0.158403
 C 0.3372 0.6162 0.562   0.075994
 C 0.6609 0.029 0.4422   0.022242
 C 0.6418 0.06851 0.52839   -0.122481
 C 0.5256 0.9626 0.4121   -0.116183
 C 0.922 0.1488 0.3718   -0.069209
 C 0.0864 0.0582 0.2706   0.158406
 C 0.8372 0.062 0.3838   0.075997
 C 0.6609 0.471 0.0578   0.022242
 C 0.6418 0.43149 0.97161   -0.122481
 C 0.5256 0.5374 0.0879   -0.116184
 C 0.922 0.3512 0.1282   -0.069209
 C 0.0864 0.4418 0.2294   0.158406
 C 0.8372 0.438 0.1162   0.075997
 C 0.8391 0.0578 0.029   0.022256
 C 0.8582 0.97161 0.06851   -0.122533
 C 0.9744 0.0879 0.9626   -0.116209
 C 0.578 0.1282 0.1488   -0.069205
 C 0.4136 0.2294 0.0582   0.158403
 C 0.6628 0.1162 0.062   0.075994
 C 0.8391 0.4422 0.471   0.022256
 C 0.8582 0.52839 0.43149   -0.122532
 C 0.9744 0.4121 0.5374   -0.11621
 C 0.578 0.3718 0.3512   -0.069205
 C 0.4136 0.2706 0.4418   0.158404
 C 0.6628 0.3838 0.438   0.075994
 C 0.3391 0.971 0.5578   0.022258
 C 0.3582 0.93149 0.47161   -0.122528
 C 0.4744 0.0374 0.5879   -0.116222
 C 0.078 0.8512 0.6282   -0.069205
 C 0.9136 0.9418 0.7294   0.158407
 C 0.1628 0.938 0.6162   0.075997
 C 0.3391 0.529 0.9422   0.022258
 C 0.3582 0.56851 0.02839   -0.122528
 C 0.4744 0.4626 0.9121   -0.116222
 C 0.078 0.6488 0.8718   -0.069205
 C 0.9136 0.5582 0.7706   0.158407
 C 0.1628 0.562 0.8838   0.075997
 N 0.58 0.80007 0.85398   -0.314911
 N 0.4401 0.81944 0.98971   -0.219359
 N 0.58 0.69993 0.64602   -0.314911
 N 0.4401 0.68056 0.51029   -0.219361
 N 0.08 0.14602 0.30007   -0.314911
 N 0.9401 0.01029 0.31944   -0.219374
 N 0.08 0.35398 0.19993   -0.314911
 N 0.9401 0.48971 0.18056   -0.219376
 N 0.42 0.19993 0.14602   -0.314912
 N 0.5599 0.18056 0.01029   -0.21937
 N 0.42 0.30007 0.35398   -0.314912
 N 0.5599 0.31944 0.48971   -0.219372
 N 0.92 0.85398 0.69993   -0.314912
 N 0.0599 0.98971 0.68056   -0.219384
 N 0.92 0.64602 0.80007   -0.314912
 N 0.0599 0.51029 0.81944   -0.219386
