{'_ref': 'TBD', '_srcid': 'CAKYAQ_clean', 'submitters': [{'name': 'Dalar Nazarian Jeff Camp and David Sholl', 'email': 'dalar@gatech.edu jcamp6@gatech.edu'}], '_method': 'VASP DFT with PBE;DDEC'}
data_ZnH12C20N3O4
_symmetry_space_group_name_H-M   'P 1'
_cell_length_a   15.22400022
_cell_length_b   15.25899996
_cell_length_c   18.05900000
_cell_angle_alpha   91.83999929
_cell_angle_beta   96.68999865
_cell_angle_gamma   98.27999961
_symmetry_Int_Tables_number   1
_chemical_formula_structural   ZnH12C20N3O4
_chemical_formula_sum   'Zn6 H72 C120 N18 O24'
_cell_volume   4118.0598274
_cell_formula_units_Z   6
loop_
 _symmetry_equiv_pos_site_id
 _symmetry_equiv_pos_as_xyz
  1  'x, y, z'
loop_
 _atom_site_label
 _atom_site_fract_x
 _atom_site_fract_y
 _atom_site_fract_z
 _atom_site_charge
 Zn 0.01109 0.00553 0.08225   0.915264
 Zn 0.98891 0.99447 0.91775   0.915264
 Zn 0.77314 0.67275 0.75627   0.921335
 Zn 0.75079 0.66257 0.59186   0.924309
 Zn 0.22686 0.32725 0.24373   0.921335
 Zn 0.24921 0.33743 0.40814   0.924309
 H 0.0125 0.2882 0.1095   0.0954
 H 0.0142 0.4386 0.1112   0.108028
 H 0.9859 0.4272 0.887   0.104523
 H 0.9868 0.2782 0.8864   0.094192
 H 0.3105 0.018 0.1189   0.091999
 H 0.4532 0.999 0.1111   0.097745
 H 0.4178 0.0242 0.8949   0.101795
 H 0.2731 0.0341 0.9028   0.088441
 H 0.0289 0.1365 0.2148   0.092621
 H 0.0227 0.1367 0.3411   0.117554
 H 0.9741 0.8718 0.3258   0.121305
 H 0.978 0.8789 0.1995   0.08339
 H 0.9875 0.7118 0.8905   0.0954
 H 0.9858 0.5614 0.8888   0.108028
 H 0.0141 0.5728 0.113   0.104523
 H 0.0132 0.7218 0.1136   0.094192
 H 0.6895 0.982 0.8811   0.091999
 H 0.5468 0.000999999999998 0.8889   0.097743
 H 0.5822 0.9758 0.1051   0.101793
 H 0.7269 0.9659 0.0972   0.088441
 H 0.9711 0.8635 0.7852   0.092621
 H 0.9773 0.8633 0.6589   0.117554
 H 0.0259 0.1282 0.6742   0.121305
 H 0.022 0.1211 0.8005   0.08339
 H 0.4586 0.662 0.5594   0.092874
 H 0.3096 0.6638 0.5627   0.097808
 H 0.3481 0.6535 0.7819   0.107866
 H 0.489 0.63 0.7745   0.0923
 H 0.0659 0.6529 0.7906   0.0939
 H 0.2102 0.6388 0.7819   0.094562
 H 0.1839 0.7009 0.5719   0.09358
 H 0.0354 0.7076 0.5768   0.096736
 H 0.813 0.3952 0.7773   0.08962
 H 0.8169 0.2453 0.7756   0.101266
 H 0.6977 0.2203 0.5683   0.101754
 H 0.7001 0.37 0.5681   0.087175
 H 0.7582 0.9459 0.5616   0.093577
 H 0.7592 0.096 0.5615   0.102196
 H 0.7747 0.1072 0.7834   0.10845
 H 0.7738 0.9575 0.7842   0.090727
 H 0.7521 0.5455 0.8732   0.094766
 H 0.7524 0.5389 0.9991   0.127951
 H 0.7921 0.8053 0.0149   0.12046
 H 0.7888 0.8028 0.8869   0.091263
 H 0.7934 0.7887 0.4775   0.081479
 H 0.8003 0.7962 0.3517   0.121154
 H 0.734 0.5341 0.3334   0.107059
 H 0.7258 0.5351 0.4598   0.087637
 H 0.5414 0.338 0.4406   0.092874
 H 0.6904 0.3362 0.4373   0.097808
 H 0.6519 0.3465 0.2181   0.107866
 H 0.511 0.37 0.2255   0.0923
 H 0.9341 0.3471 0.2094   0.0939
 H 0.7898 0.3612 0.2181   0.094562
 H 0.8161 0.2991 0.4281   0.09358
 H 0.9646 0.2924 0.4232   0.096737
 H 0.187 0.6048 0.2227   0.08962
 H 0.1831 0.7547 0.2244   0.101266
 H 0.3023 0.7797 0.4317   0.101754
 H 0.2999 0.63 0.4319   0.087175
 H 0.2418 0.0541 0.4384   0.093577
 H 0.2408 0.904 0.4385   0.102196
 H 0.2253 0.8928 0.2166   0.10845
 H 0.2262 0.0425 0.2158   0.090727
 H 0.2479 0.4545 0.1268   0.094766
 H 0.2476 0.4611 0.000900000000001   0.127951
 H 0.2079 0.1947 0.9851   0.12046
 H 0.2112 0.1972 0.1131   0.091263
 H 0.2066 0.2113 0.5225   0.081479
 H 0.1997 0.2038 0.6483   0.121154
 H 0.266 0.4659 0.6666   0.107059
 H 0.2742 0.4649 0.5402   0.087637
 C 0.9982 0.2667 0.9982   -0.153954
 C 0.0071 0.3163 0.0646   -0.022501
 C 0.008 0.4068 0.0657   -0.136668
 C 0.0 0.4518 0.9994   0.035567
 C 0.9915 0.3998 0.9322   -0.1388
 C 0.9914 0.3103 0.9317   -0.040788
 C 0.9992 0.1684 0.999   0.670667
 C 0.2726 0.0181 0.0099   -0.13977
 C 0.3303 0.0143 0.0723   -0.035354
 C 0.4162 0.0051 0.0674   -0.135617
 C 0.4513 0.0044 0.000799999999998   0.047692
 C 0.3962 0.0185 0.9409   -0.136725
 C 0.3094 0.0247 0.9461   -0.022983
 C 0.1738 0.0183 0.0133   0.66918
 C 0.0173 0.0827 0.2371   0.177953
 C 0.0146 0.0831 0.3133   -0.142146
 C 0.0 0.0049 0.3483   0.015446
 C 0.9854 0.9264 0.3045   -0.158851
 C 0.9879 0.9316 0.2286   0.16478
 C 0.000300000000003 0.0019 0.4297   0.338343
 C 0.0018 0.7333 0.0018   -0.153954
 C 0.9929 0.6837 0.9354   -0.022501
 C 0.992 0.5932 0.9343   -0.136668
 C 0.0 0.5482 0.000599999999999   0.035567
 C 0.0085 0.6002 0.0678   -0.1388
 C 0.0086 0.6897 0.0683   -0.040788
 C 0.000799999999998 0.8316 0.000999999999998   0.670667
 C 0.7274 0.9819 0.9901   -0.13977
 C 0.6697 0.9857 0.9277   -0.035354
 C 0.5838 0.9949 0.9326   -0.135616
 C 0.5487 0.9956 0.9992   0.047689
 C 0.6038 0.9815 0.0591   -0.136724
 C 0.6906 0.9753 0.0539   -0.022983
 C 0.8262 0.9817 0.9867   0.66918
 C 0.9827 0.9173 0.7629   0.177953
 C 0.9854 0.9169 0.6867   -0.142146
 C 0.0 0.9951 0.6517   0.015446
 C 0.0146 0.0736 0.6955   -0.158851
 C 0.0121 0.0684 0.7714   0.164781
 C 0.9997 0.9981 0.5703   0.338336
 C 0.4927 0.6515 0.6655   -0.137228
 C 0.4365 0.6587 0.6053   -0.024415
 C 0.3468 0.6616 0.607   -0.147718
 C 0.3126 0.6612 0.6728   0.054495
 C 0.3691 0.6526 0.7356   -0.143835
 C 0.4542 0.6429 0.7316   -0.022865
 C 0.5903 0.6519 0.663   0.695493
 C 0.0313 0.6788 0.6828   -0.140107
 C 0.0879 0.6604 0.7449   -0.040187
 C 0.1756 0.6533 0.7394   -0.129632
 C 0.2158 0.6657 0.6762   0.040566
 C 0.1602 0.6885 0.6162   -0.136947
 C 0.0701 0.6936 0.6194   -0.041623
 C 0.9345 0.6802 0.6829   0.684598
 C 0.7578 0.4001 0.6717   -0.135083
 C 0.7912 0.3607 0.7338   -0.035938
 C 0.793 0.2701 0.7328   -0.146828
 C 0.7607 0.2164 0.6712   0.052963
 C 0.7236 0.2553 0.6105   -0.141387
 C 0.7239 0.3454 0.611   -0.0345
 C 0.7569 0.4978 0.6697   0.698102
 C 0.7657 0.9346 0.6728   -0.161676
 C 0.7612 0.978 0.6067   -0.035488
 C 0.761 0.0683 0.6067   -0.14835
 C 0.7633 0.1191 0.6721   0.046435
 C 0.7702 0.0749 0.7383   -0.141397
 C 0.7704 0.985 0.7389   -0.018674
 C 0.7661 0.8369 0.6739   0.678615
 C 0.7599 0.5981 0.9021   0.165026
 C 0.7602 0.5937 0.9777   -0.15191
 C 0.7721 0.671 0.022   0.010447
 C 0.7835 0.7516 0.9872   -0.14098
 C 0.7817 0.7494 0.9104   0.172412
 C 0.7715 0.669 0.1051   0.332225
 C 0.7687 0.6664 0.2461   0.348365
 C 0.7792 0.7367 0.4475   0.17192
 C 0.784 0.742 0.3722   -0.162949
 C 0.7639 0.6644 0.3273   0.021061
 C 0.7445 0.5877 0.3612   -0.139204
 C 0.7402 0.5886 0.4376   0.172574
 C 0.5073 0.3485 0.3345   -0.137228
 C 0.5635 0.3413 0.3947   -0.024415
 C 0.6532 0.3384 0.393   -0.147718
 C 0.6874 0.3388 0.3272   0.054495
 C 0.6309 0.3474 0.2644   -0.143835
 C 0.5458 0.3571 0.2684   -0.022865
 C 0.4097 0.3481 0.337   0.695493
 C 0.9687 0.3212 0.3172   -0.140107
 C 0.9121 0.3396 0.2551   -0.040187
 C 0.8244 0.3467 0.2606   -0.129632
 C 0.7842 0.3343 0.3238   0.040566
 C 0.8398 0.3115 0.3838   -0.136947
 C 0.9299 0.3064 0.3806   -0.041623
 C 0.0655 0.3198 0.3171   0.684598
 C 0.2422 0.5999 0.3283   -0.135083
 C 0.2088 0.6393 0.2662   -0.035938
 C 0.207 0.7299 0.2672   -0.146828
 C 0.2393 0.7836 0.3288   0.052963
 C 0.2764 0.7447 0.3895   -0.141387
 C 0.2761 0.6546 0.389   -0.034499
 C 0.2431 0.5022 0.3303   0.698101
 C 0.2343 0.0654 0.3272   -0.161676
 C 0.2388 0.022 0.3933   -0.035488
 C 0.239 0.9317 0.3933   -0.14835
 C 0.2367 0.8809 0.3279   0.046435
 C 0.2298 0.9251 0.2617   -0.141397
 C 0.2296 0.015 0.2611   -0.018674
 C 0.2339 0.1631 0.3261   0.678615
 C 0.2401 0.4019 0.0979   0.165026
 C 0.2398 0.4063 0.0223   -0.15191
 C 0.2279 0.329 0.978   0.010447
 C 0.2165 0.2484 0.0128   -0.14098
 C 0.2183 0.2506 0.0896   0.172412
 C 0.2285 0.331 0.8949   0.332225
 C 0.2313 0.3336 0.7539   0.348365
 C 0.2208 0.2633 0.5525   0.17192
 C 0.216 0.258 0.6278   -0.16295
 C 0.2361 0.3356 0.6727   0.021061
 C 0.2555 0.4123 0.6388   -0.139204
 C 0.2598 0.4114 0.5624   0.172574
 N 0.0038 0.0076 0.1941   -0.282787
 N 0.0151 0.0802 0.4689   -0.148117
 N 0.9852 0.9232 0.4581   -0.181688
 N 0.9962 0.9924 0.8059   -0.282787
 N 0.9849 0.9198 0.5311   -0.148086
 N 0.0148 0.0768 0.5419   -0.181658
 N 0.7701 0.6738 0.8685   -0.284982
 N 0.7629 0.5892 0.1356   -0.174376
 N 0.7597 0.5885 0.2077   -0.15902
 N 0.7826 0.7444 0.2159   -0.195705
 N 0.7847 0.7473 0.1433   -0.136946
 N 0.7557 0.6625 0.4795   -0.268607
 N 0.2299 0.3262 0.1315   -0.284982
 N 0.2371 0.4108 0.8644   -0.174376
 N 0.2403 0.4115 0.7923   -0.15902
 N 0.2174 0.2556 0.7841   -0.195704
 N 0.2153 0.2527 0.8567   -0.136946
 N 0.2443 0.3375 0.5205   -0.268607
 O 0.0106 0.1351 0.0616   -0.577878
 O 0.9899 0.1269 0.93666   -0.590947
 O 0.1462 0.0213 0.0755   -0.568899
 O 0.125 0.0142 0.951   -0.614908
 O 0.9894 0.8649 0.9384   -0.577878
 O 0.0101 0.8731 0.06334   -0.590947
 O 0.8538 0.9787 0.9245   -0.568899
 O 0.875 0.9858 0.049   -0.614908
 O 0.638 0.6509 0.7251   -0.620744
 O 0.619 0.6543 0.601   -0.592486
 O 0.9077 0.6883 0.7462   -0.592119
 O 0.8853 0.6725 0.6222   -0.602691
 O 0.773 0.54 0.73217   -0.615159
 O 0.7426 0.5305 0.60861   -0.58466
 O 0.7706 0.8016 0.73554   -0.581278
 O 0.7619 0.7957 0.61154   -0.601937
 O 0.362 0.3491 0.2749   -0.620744
 O 0.381 0.3457 0.399   -0.592486
 O 0.0923 0.3117 0.2538   -0.592119
 O 0.1147 0.3275 0.3778   -0.602691
 O 0.227 0.46 0.26783   -0.615159
 O 0.2574 0.4695 0.39139   -0.58466
 O 0.2294 0.1984 0.26446   -0.581278
 O 0.2381 0.2043 0.38846   -0.601937
