{'_ref': 'TBD', '_srcid': 'CAKYAQ_clean', 'submitters': [{'name': 'Dalar Nazarian Jeff Camp and David Sholl', 'email': 'dalar@gatech.edu jcamp6@gatech.edu'}], '_method': 'VASP DFT with PBE;DDEC'}
data_Zn2H20C34N3O10
_symmetry_space_group_name_H-M   'P 1'
_cell_length_a   15.08550005
_cell_length_b   15.08549975
_cell_length_c   21.51500000
_cell_angle_alpha   83.86720163
_cell_angle_beta   83.86720175
_cell_angle_gamma   65.55559934
_symmetry_Int_Tables_number   1
_chemical_formula_structural   Zn2H20C34N3O10
_chemical_formula_sum   'Zn8 H80 C136 N12 O40'
_cell_volume   4421.207717
_cell_formula_units_Z   4
loop_
 _symmetry_equiv_pos_site_id
 _symmetry_equiv_pos_as_xyz
  1  'x, y, z'
loop_
 _atom_site_label
 _atom_site_fract_x
 _atom_site_fract_y
 _atom_site_fract_z
 _atom_site_charge
 Zn 0.00965 0.01285 0.68147   1.13441
 Zn 0.95184 0.43236 0.0061   0.923215
 Zn 0.98715 0.99035 0.81853   1.13441
 Zn 0.56764 0.04816 0.4939   0.923215
 Zn 0.99035 0.98715 0.31853   1.13441
 Zn 0.04816 0.56764 0.9939   0.923215
 Zn 0.01285 0.00965 0.18147   1.13441
 Zn 0.43236 0.95184 0.5061   0.923215
 H 0.6778 0.103 0.8361   0.094163
 H 0.5122 0.152 0.8392   0.130671
 H 0.533 0.1124 0.6566   0.132122
 H 0.6998 0.0626 0.6535   0.098437
 H 0.2631 0.4093 0.8638   0.090201
 H 0.3913 0.3147 0.7973   0.131279
 H 0.2633 0.1303 0.7922   0.121837
 H 0.1329 0.2281 0.8572   0.096985
 H 0.1119 0.5587 0.6219   0.14087
 H 0.0871 0.7183 0.6329   0.0928
 H 0.0383 0.6811 0.818   0.085787
 H 0.0686 0.5204 0.8093   0.139495
 H 0.2088 0.1504 0.633   0.089435
 H 0.0944 0.2778 0.6871   0.122619
 H 0.2695 0.4213 0.6548   0.123622
 H 0.3816 0.2936 0.5997   0.079361
 H 0.9389 0.2521 0.0765   0.089406
 H 0.8257 0.1893 0.1081   0.128492
 H 0.6658 0.2752 0.0806   0.09339
 H 0.7448 0.481 0.9919   0.075532
 H 0.897 0.3222 0.6639   0.094163
 H 0.848 0.4878 0.6608   0.13067
 H 0.8876 0.467 0.8434   0.132122
 H 0.9374 0.3002 0.8465   0.098437
 H 0.5907 0.7369 0.6362   0.090201
 H 0.6853 0.6087 0.7027   0.131279
 H 0.8697 0.7367 0.7078   0.121837
 H 0.7719 0.8671 0.6428   0.096985
 H 0.4413 0.8881 0.8781   0.14087
 H 0.2817 0.9129 0.8671   0.0928
 H 0.3189 0.9617 0.682   0.085787
 H 0.4796 0.9314 0.6907   0.139495
 H 0.8496 0.7912 0.867   0.089435
 H 0.7222 0.9056 0.8129   0.122619
 H 0.5787 0.7305 0.8452   0.123622
 H 0.7064 0.6184 0.9003   0.079361
 H 0.7479 0.0611 0.4235   0.089406
 H 0.8107 0.1743 0.3919   0.128492
 H 0.7248 0.3342 0.4194   0.09339
 H 0.519 0.2552 0.5081   0.075532
 H 0.3222 0.897 0.1639   0.094162
 H 0.4878 0.848 0.1608   0.13067
 H 0.467 0.8876 0.3434   0.132122
 H 0.3002 0.9374 0.3465   0.098437
 H 0.7369 0.5907 0.1362   0.090201
 H 0.6087 0.6853 0.2027   0.131279
 H 0.7367 0.8697 0.2078   0.121837
 H 0.8671 0.7719 0.1428   0.096985
 H 0.8881 0.4413 0.3781   0.140869
 H 0.9129 0.2817 0.3671   0.092799
 H 0.9617 0.3189 0.182   0.085787
 H 0.9314 0.4796 0.1907   0.139495
 H 0.7912 0.8496 0.367   0.089435
 H 0.9056 0.7222 0.3129   0.122619
 H 0.7305 0.5787 0.3452   0.123622
 H 0.6184 0.7064 0.4003   0.07936
 H 0.0611 0.7479 0.9235   0.089406
 H 0.1743 0.8107 0.8919   0.128492
 H 0.3342 0.7248 0.9194   0.093388
 H 0.2552 0.519 0.0081   0.075531
 H 0.103 0.6778 0.3361   0.094162
 H 0.152 0.5122 0.3392   0.13067
 H 0.1124 0.533 0.1566   0.132122
 H 0.0626 0.6998 0.1535   0.098437
 H 0.4093 0.2631 0.3638   0.090201
 H 0.3147 0.3913 0.2973   0.131279
 H 0.1303 0.2633 0.2922   0.121837
 H 0.2281 0.1329 0.3572   0.096985
 H 0.5587 0.1119 0.1219   0.140869
 H 0.7183 0.0871 0.1329   0.092799
 H 0.6811 0.0383 0.318   0.085787
 H 0.5204 0.0686 0.3093   0.139495
 H 0.1504 0.2088 0.133   0.089435
 H 0.2778 0.0944 0.1871   0.122619
 H 0.4213 0.2695 0.1548   0.123622
 H 0.2936 0.3816 0.0997   0.07936
 H 0.2521 0.9389 0.5765   0.089406
 H 0.1893 0.8257 0.6081   0.128492
 H 0.2752 0.6658 0.5806   0.093388
 H 0.481 0.7448 0.4919   0.075531
 C 0.70659 0.07999 0.74406   -0.222994
 C 0.6486 0.1056 0.79966   0.022123
 C 0.54986 0.13426 0.80183   -0.255504
 C 0.50654 0.13654 0.74808   0.290613
 C 0.56258 0.11038 0.69283   -0.223964
 C 0.66222 0.08142 0.69086   0.023484
 C 0.81574 0.04614 0.74406   0.736591
 C 0.18624 0.32652 0.86865   -0.186808
 C 0.26289 0.35329 0.8497   0.011791
 C 0.33971 0.29671 0.8096   -0.257539
 C 0.33908 0.21388 0.78831   0.284612
 C 0.26326 0.18646 0.8062   -0.231733
 C 0.1855 0.2449 0.84602   0.01747
 C 0.10636 0.3867 0.91365   0.685138
 C 0.09414 0.52394 0.7154   0.288498
 C 0.09844 0.58324 0.6614   -0.249582
 C 0.08244 0.67864 0.66818   0.017645
 C 0.05967 0.71649 0.72607   -0.222432
 C 0.0542 0.656 0.77871   0.027786
 C 0.0718 0.5602 0.77375   -0.214024
 C 0.03914 0.82194 0.7323   0.731466
 C 0.30555 0.20969 0.61   -0.203793
 C 0.22049 0.20529 0.63695   0.024006
 C 0.1523 0.2809 0.6697   -0.231296
 C 0.17164 0.36164 0.6762   0.284041
 C 0.25698 0.36698 0.6502   -0.260748
 C 0.3237 0.2907 0.6172   0.03269
 C 0.37867 0.12695 0.57377   0.688212
 C 0.58677 0.44897 0.0148   0.369349
 C 0.87512 0.28672 0.0653   0.18397
 C 0.80773 0.24873 0.0846   -0.169665
 C 0.71265 0.30005 0.0686   0.039423
 C 0.68761 0.38961 0.03403   -0.169749
 C 0.76051 0.42197 0.01573   0.191912
 C 0.92001 0.29341 0.75594   -0.222994
 C 0.8944 0.3514 0.70034   0.022123
 C 0.86574 0.45014 0.69817   -0.255504
 C 0.86346 0.49346 0.75192   0.290613
 C 0.88962 0.43742 0.80717   -0.223964
 C 0.91858 0.33778 0.80914   0.023484
 C 0.95386 0.18426 0.75594   0.736591
 C 0.67348 0.81376 0.63135   -0.186808
 C 0.64671 0.73711 0.6503   0.011791
 C 0.70329 0.66029 0.6904   -0.257539
 C 0.78612 0.66092 0.71169   0.284612
 C 0.81354 0.73674 0.6938   -0.231734
 C 0.7551 0.8145 0.65398   0.01747
 C 0.6133 0.89364 0.58635   0.685138
 C 0.47606 0.90586 0.7846   0.2885
 C 0.41676 0.90156 0.8386   -0.249584
 C 0.32136 0.91756 0.83182   0.017645
 C 0.28351 0.94033 0.77393   -0.222432
 C 0.344 0.9458 0.72129   0.027786
 C 0.4398 0.9282 0.72625   -0.214025
 C 0.17806 0.96086 0.7677   0.731467
 C 0.79031 0.69445 0.89   -0.203793
 C 0.79471 0.77951 0.86305   0.024006
 C 0.7191 0.8477 0.8303   -0.231296
 C 0.63836 0.82836 0.8238   0.284041
 C 0.63302 0.74302 0.8498   -0.260748
 C 0.7093 0.6763 0.8828   0.03269
 C 0.87305 0.62133 0.92623   0.688212
 C 0.55103 0.41323 0.4852   0.36935
 C 0.71328 0.12488 0.4347   0.18397
 C 0.75127 0.19227 0.4154   -0.169665
 C 0.69995 0.28735 0.4314   0.039423
 C 0.61039 0.31239 0.46597   -0.169749
 C 0.57803 0.23949 0.48427   0.191911
 C 0.29341 0.92001 0.25594   -0.222994
 C 0.3514 0.8944 0.20034   0.022123
 C 0.45014 0.86574 0.19817   -0.255504
 C 0.49346 0.86346 0.25192   0.290613
 C 0.43742 0.88962 0.30717   -0.223964
 C 0.33778 0.91858 0.30914   0.023484
 C 0.18426 0.95386 0.25594   0.736591
 C 0.81376 0.67348 0.13135   -0.186808
 C 0.73711 0.64671 0.1503   0.011791
 C 0.66029 0.70329 0.1904   -0.257539
 C 0.66092 0.78612 0.21169   0.284612
 C 0.73674 0.81354 0.1938   -0.231733
 C 0.8145 0.7551 0.15398   0.01747
 C 0.89364 0.6133 0.08635   0.685138
 C 0.90586 0.47606 0.2846   0.288498
 C 0.90156 0.41676 0.3386   -0.249581
 C 0.91756 0.32136 0.33182   0.017645
 C 0.94033 0.28351 0.27393   -0.222431
 C 0.9458 0.344 0.22129   0.027787
 C 0.9282 0.4398 0.22625   -0.214024
 C 0.96086 0.17806 0.2677   0.731467
 C 0.69445 0.79031 0.39   -0.203793
 C 0.77951 0.79471 0.36305   0.024006
 C 0.8477 0.7191 0.3303   -0.231296
 C 0.82836 0.63836 0.3238   0.284041
 C 0.74302 0.63302 0.3498   -0.260748
 C 0.6763 0.7093 0.3828   0.03269
 C 0.62133 0.87305 0.42623   0.688212
 C 0.41323 0.55103 0.9852   0.36934
 C 0.12488 0.71328 0.9347   0.18397
 C 0.19227 0.75127 0.9154   -0.169663
 C 0.28735 0.69995 0.9314   0.039424
 C 0.31239 0.61039 0.96597   -0.169749
 C 0.23949 0.57803 0.98427   0.191912
 C 0.07999 0.70659 0.24406   -0.222994
 C 0.1056 0.6486 0.29966   0.022123
 C 0.13426 0.54986 0.30183   -0.255504
 C 0.13654 0.50654 0.24808   0.290613
 C 0.11038 0.56258 0.19283   -0.223964
 C 0.08142 0.66222 0.19086   0.023484
 C 0.04614 0.81574 0.24406   0.736591
 C 0.32652 0.18624 0.36865   -0.186808
 C 0.35329 0.26289 0.3497   0.011791
 C 0.29671 0.33971 0.3096   -0.257539
 C 0.21388 0.33908 0.28831   0.284612
 C 0.18646 0.26326 0.3062   -0.231734
 C 0.2449 0.1855 0.34602   0.01747
 C 0.3867 0.10636 0.41365   0.685138
 C 0.52394 0.09414 0.2154   0.2885
 C 0.58324 0.09844 0.1614   -0.249584
 C 0.67864 0.08244 0.16818   0.017645
 C 0.71649 0.05967 0.22607   -0.222431
 C 0.656 0.0542 0.27871   0.027787
 C 0.5602 0.0718 0.27375   -0.214025
 C 0.82194 0.03914 0.2323   0.731467
 C 0.20969 0.30555 0.11   -0.203793
 C 0.20529 0.22049 0.13695   0.024006
 C 0.2809 0.1523 0.1697   -0.231296
 C 0.36164 0.17164 0.1762   0.284041
 C 0.36698 0.25698 0.1502   -0.260748
 C 0.2907 0.3237 0.1172   0.03269
 C 0.12695 0.37867 0.07377   0.688212
 C 0.44897 0.58677 0.5148   0.36934
 C 0.28672 0.87512 0.5653   0.18397
 C 0.24873 0.80773 0.5846   -0.169663
 C 0.30005 0.71265 0.5686   0.039424
 C 0.38961 0.68761 0.53403   -0.169749
 C 0.42197 0.76051 0.51573   0.191912
 N 0.51742 0.41912 0.03912   -0.185885
 N 0.57188 0.52768 0.9763   -0.156217
 N 0.85335 0.37115 0.03108   -0.290407
 N 0.58088 0.48258 0.46088   -0.185885
 N 0.47232 0.42812 0.5237   -0.156217
 N 0.62885 0.14665 0.46892   -0.290407
 N 0.48258 0.58088 0.96088   -0.185843
 N 0.42812 0.47232 0.0237   -0.156176
 N 0.14665 0.62885 0.96892   -0.290406
 N 0.41912 0.51742 0.53912   -0.185843
 N 0.52768 0.57188 0.4763   -0.156176
 N 0.37115 0.85335 0.53108   -0.290406
 O 0.4093 0.1566 0.74586   -0.231999
 O 0.86437 0.03431 0.69224   -0.633526
 O 0.84988 0.03358 0.79698   -0.650403
 O 0.04187 0.35491 0.93551   -0.597994
 O 0.10824 0.46336 0.92864   -0.615578
 O 0.1019 0.42968 0.71407   -0.237191
 O 0.04648 0.87082 0.68187   -0.637443
 O 0.01671 0.85399 0.78592   -0.643174
 O 0.35366 0.05918 0.56376   -0.593932
 O 0.45985 0.12993 0.55499   -0.591401
 O 0.8434 0.5907 0.75414   -0.232
 O 0.96569 0.13563 0.80776   -0.633526
 O 0.96642 0.15012 0.70302   -0.650403
 O 0.64509 0.95813 0.56449   -0.597994
 O 0.53664 0.89176 0.57136   -0.615578
 O 0.57032 0.8981 0.78593   -0.237191
 O 0.12918 0.95352 0.81813   -0.637443
 O 0.14601 0.98329 0.71408   -0.643174
 O 0.94082 0.64634 0.93624   -0.593932
 O 0.87007 0.54015 0.94501   -0.591401
 O 0.5907 0.8434 0.25414   -0.231999
 O 0.13563 0.96569 0.30776   -0.633526
 O 0.15012 0.96642 0.20302   -0.650403
 O 0.95813 0.64509 0.06449   -0.597994
 O 0.89176 0.53664 0.07136   -0.615578
 O 0.8981 0.57032 0.28593   -0.237191
 O 0.95352 0.12918 0.31813   -0.637443
 O 0.98329 0.14601 0.21408   -0.643174
 O 0.64634 0.94082 0.43624   -0.593932
 O 0.54015 0.87007 0.44501   -0.591401
 O 0.1566 0.4093 0.24586   -0.231999
 O 0.03431 0.86437 0.19224   -0.633526
 O 0.03358 0.84988 0.29698   -0.650403
 O 0.35491 0.04187 0.43551   -0.597994
 O 0.46336 0.10824 0.42864   -0.615578
 O 0.42968 0.1019 0.21407   -0.237191
 O 0.87082 0.04648 0.18187   -0.637443
 O 0.85399 0.01671 0.28592   -0.643174
 O 0.05918 0.35366 0.06376   -0.593932
 O 0.12993 0.45985 0.05499   -0.591401
