{'_ref': 'TBD', '_srcid': 'CAKYAQ_clean', 'submitters': [{'name': 'Dalar Nazarian Jeff Camp and David Sholl', 'email': 'dalar@gatech.edu jcamp6@gatech.edu'}], '_method': 'VASP DFT with PBE;DDEC'}
data_ZnH8C14N2O5
_symmetry_space_group_name_H-M   'P 1'
_cell_length_a   13.26500000
_cell_length_b   13.98299971
_cell_length_c   14.18900000
_cell_angle_alpha   112.06600089
_cell_angle_beta   90.00000000
_cell_angle_gamma   90.00000000
_symmetry_Int_Tables_number   1
_chemical_formula_structural   ZnH8C14N2O5
_chemical_formula_sum   'Zn4 H32 C56 N8 O20'
_cell_volume   2439.06172637
_cell_formula_units_Z   4
loop_
 _symmetry_equiv_pos_site_id
 _symmetry_equiv_pos_as_xyz
  1  'x, y, z'
loop_
 _atom_site_label
 _atom_site_fract_x
 _atom_site_fract_y
 _atom_site_fract_z
 _atom_site_charge
 Zn 0.55314 0.40033 0.94897   0.940353
 Zn 0.05314 0.59967 0.55103   0.940353
 Zn 0.44686 0.59967 0.05103   0.940353
 Zn 0.94686 0.40033 0.44897   0.940353
 H 0.2577 0.7225 0.0878   0.11669
 H 0.2059 0.8949 0.1538   0.131538
 H 0.4932 0.986 0.2151   0.129206
 H 0.5425 0.8143 0.1595   0.101319
 H 0.4399 0.2568 0.1355   0.114543
 H 0.2899 0.5178 0.2908   0.110419
 H 0.2382 0.2601 0.3479   0.125484
 H 0.4295 0.1177 0.1992   0.306742
 H 0.7577 0.2775 0.4122   0.11669
 H 0.7059 0.1051 0.3462   0.131537
 H 0.9932 0.014 0.2849   0.129205
 H 0.0425 0.1857 0.3405   0.101319
 H 0.9399 0.7432 0.3645   0.114543
 H 0.7899 0.4822 0.2092   0.110419
 H 0.7382 0.7399 0.1521   0.125484
 H 0.9295 0.8823 0.3008   0.306742
 H 0.7423 0.2775 0.9122   0.11669
 H 0.7941 0.1051 0.8462   0.131538
 H 0.5068 0.014 0.7849   0.129206
 H 0.4575 0.1857 0.8405   0.101319
 H 0.5601 0.7432 0.8645   0.114543
 H 0.7101 0.4822 0.7092   0.110419
 H 0.7618 0.7399 0.6521   0.125484
 H 0.5705 0.8823 0.8008   0.306742
 H 0.2423 0.7225 0.5878   0.11669
 H 0.2941 0.8949 0.6538   0.131537
 H 0.0068 0.986 0.7151   0.129205
 H 0.9575 0.8143 0.6595   0.101319
 H 0.0601 0.2568 0.6355   0.114543
 H 0.2101 0.5178 0.7908   0.110419
 H 0.2618 0.2601 0.8479   0.125484
 H 0.0705 0.1177 0.6992   0.306742
 C 0.3047 0.7751 0.1152   0.154599
 C 0.2739 0.8786 0.1532   -0.148791
 C 0.344 0.9553 0.1894   -0.012465
 C 0.4458 0.9334 0.1914   -0.182575
 C 0.4748 0.8305 0.1569   0.178897
 C 0.3047 0.0656 0.2254   0.50877
 C 0.3445 0.2418 0.2383   0.18973
 C 0.3933 0.2925 0.1853   -0.154636
 C 0.3748 0.3959 0.2045   -0.098189
 C 0.3031 0.4487 0.2778   -0.031588
 C 0.2519 0.3996 0.3308   -0.0943
 C 0.2721 0.2939 0.312   -0.145031
 C 0.4237 0.4438 0.1373   0.689252
 C 0.167 0.4481 0.4021   0.705876
 C 0.8047 0.2249 0.3848   0.154599
 C 0.7739 0.1214 0.3468   -0.14879
 C 0.844 0.0447 0.3106   -0.012465
 C 0.9458 0.0666 0.3086   -0.182575
 C 0.9748 0.1695 0.3431   0.178897
 C 0.8047 0.9344 0.2746   0.50877
 C 0.8445 0.7582 0.2617   0.18973
 C 0.8933 0.7075 0.3147   -0.154636
 C 0.8748 0.6041 0.2955   -0.098189
 C 0.8031 0.5513 0.2222   -0.031588
 C 0.7519 0.6004 0.1692   -0.0943
 C 0.7721 0.7061 0.188   -0.14503
 C 0.9237 0.5562 0.3627   0.689252
 C 0.667 0.5519 0.0979   0.705876
 C 0.6953 0.2249 0.8848   0.1546
 C 0.7261 0.1214 0.8468   -0.14879
 C 0.656 0.0447 0.8106   -0.012465
 C 0.5542 0.0666 0.8086   -0.182575
 C 0.5252 0.1695 0.8431   0.178897
 C 0.6953 0.9344 0.7746   0.508771
 C 0.6555 0.7582 0.7617   0.18973
 C 0.6067 0.7075 0.8147   -0.154636
 C 0.6252 0.6041 0.7955   -0.098189
 C 0.6969 0.5513 0.7222   -0.031588
 C 0.7481 0.6004 0.6692   -0.0943
 C 0.7279 0.7061 0.688   -0.145031
 C 0.5763 0.5562 0.8627   0.689252
 C 0.833 0.5519 0.5979   0.705876
 C 0.1953 0.7751 0.6152   0.1546
 C 0.2261 0.8786 0.6532   -0.14879
 C 0.156 0.9553 0.6894   -0.012465
 C 0.0542 0.9334 0.6914   -0.182575
 C 0.0252 0.8305 0.6569   0.178897
 C 0.1953 0.0656 0.7254   0.508771
 C 0.1555 0.2418 0.7383   0.18973
 C 0.1067 0.2925 0.6853   -0.154636
 C 0.1252 0.3959 0.7045   -0.098189
 C 0.1969 0.4487 0.7778   -0.031588
 C 0.2481 0.3996 0.8308   -0.0943
 C 0.2279 0.2939 0.812   -0.14503
 C 0.0763 0.4438 0.6373   0.689252
 C 0.333 0.4481 0.9021   0.705876
 N 0.4059 0.75188 0.11883   -0.312769
 N 0.36876 0.13713 0.21792   -0.407602
 N 0.9059 0.24812 0.38117   -0.312769
 N 0.86876 0.86287 0.28208   -0.407602
 N 0.5941 0.24812 0.88117   -0.312769
 N 0.63124 0.86287 0.78208   -0.407602
 N 0.0941 0.75188 0.61883   -0.312769
 N 0.13124 0.13713 0.71792   -0.407602
 O 0.21672 0.082 0.25248   -0.502525
 O 0.48672 0.39067 0.07609   -0.598941
 O 0.39724 0.5344 0.1492   -0.60128
 O 0.17653 0.54068 0.46151   -0.606231
 O 0.09174 0.39407 0.39768   -0.606496
 O 0.71672 0.918 0.24752   -0.502525
 O 0.98672 0.60933 0.42391   -0.598941
 O 0.89724 0.4656 0.3508   -0.60128
 O 0.67653 0.45932 0.03849   -0.606231
 O 0.59174 0.60593 0.10232   -0.606496
 O 0.78328 0.918 0.74752   -0.502525
 O 0.51328 0.60933 0.92391   -0.598941
 O 0.60276 0.4656 0.8508   -0.60128
 O 0.82347 0.45932 0.53849   -0.606231
 O 0.90826 0.60593 0.60232   -0.606496
 O 0.28328 0.082 0.75248   -0.502525
 O 0.01328 0.39067 0.57609   -0.598941
 O 0.10276 0.5344 0.6492   -0.60128
 O 0.32347 0.54068 0.96151   -0.606231
 O 0.40826 0.39407 0.89768   -0.606496
