{'_ref': 'TBD', '_srcid': 'CAKYAQ_clean', 'submitters': [{'name': 'Dalar Nazarian Jeff Camp and David Sholl', 'email': 'dalar@gatech.edu jcamp6@gatech.edu'}], '_method': 'VASP DFT with PBE;DDEC'}
data_ErH6(C3O2)3
_symmetry_space_group_name_H-M   'P 1'
_cell_length_a   6.76699992
_cell_length_b   11.23099977
_cell_length_c   19.74250000
_cell_angle_alpha   106.52500205
_cell_angle_beta   90.92030277
_cell_angle_gamma   89.99999963
_symmetry_Int_Tables_number   1
_chemical_formula_structural   ErH6(C3O2)3
_chemical_formula_sum   'Er4 H24 C36 O24'
_cell_volume   1438.25721477
_cell_formula_units_Z   4
loop_
 _symmetry_equiv_pos_site_id
 _symmetry_equiv_pos_as_xyz
  1  'x, y, z'
loop_
 _atom_site_label
 _atom_site_fract_x
 _atom_site_fract_y
 _atom_site_fract_z
 _atom_site_charge
 Er 0.80984 0.92025 0.25904   1.567379
 Er 0.69016 0.66121 0.74096   1.567593
 Er 0.19016 0.07975 0.74096   1.56738
 Er 0.30984 0.33879 0.25904   1.567594
 H 0.4716 0.8332 0.0358   0.13909
 H 0.5949 0.075 0.0624   0.093256
 H 0.4851 0.2483 0.4328   0.125089
 H 0.629 0.0131 0.4262   0.084488
 H 0.6196 0.2276 0.5462   0.101304
 H 0.8279 0.011 0.53   0.131868
 H 0.0284 0.7974 0.9642   0.139387
 H 0.9051 0.0126 0.9376   0.093926
 H 0.0149 0.8155 0.5672   0.125376
 H 0.871 0.5869 0.5738   0.084931
 H 0.8804 0.6814 0.4538   0.101362
 H 0.6721 0.481 0.47   0.131803
 H 0.5284 0.1668 0.9642   0.139089
 H 0.4051 0.925 0.9376   0.093256
 H 0.5149 0.7517 0.5672   0.125089
 H 0.371 0.9869 0.5738   0.084488
 H 0.3804 0.7724 0.4538   0.101304
 H 0.1721 0.989 0.47   0.131868
 H 0.9716 0.2026 0.0358   0.139386
 H 0.0949 0.9874 0.0624   0.093926
 H 0.9851 0.1845 0.4328   0.125376
 H 0.129 0.4131 0.4262   0.084931
 H 0.1196 0.3186 0.5462   0.101362
 H 0.3279 0.519 0.53   0.131803
 C 0.6276 0.91092 0.13024   0.673267
 C 0.5349 0.90598 0.06136   -0.22751
 C 0.5388 0.00121 0.03482   -0.000696
 C 0.4623 0.11198 0.33516   0.761048
 C 0.5146 0.1656 0.4106   -0.262895
 C 0.6047 0.09665 0.4481   0.003518
 C 0.6647 0.14922 0.52184   -0.004998
 C 0.7817 0.08882 0.55524   -0.243225
 C 0.8428 0.13862 0.63064   0.701962
 C 0.8724 0.78068 0.86976   0.674371
 C 0.9651 0.84462 0.93864   -0.228433
 C 0.9612 0.96639 0.96518   -0.001201
 C 0.0377 0.77682 0.66484   0.761316
 C 0.9854 0.755 0.5894   -0.264279
 C 0.8953 0.64855 0.5519   0.003584
 C 0.8353 0.62738 0.47816   -0.004905
 C 0.7183 0.53358 0.44476   -0.243409
 C 0.6572 0.50798 0.36936   0.701307
 C 0.3724 0.08908 0.86976   0.673267
 C 0.4651 0.09402 0.93864   -0.22751
 C 0.4612 0.99879 0.96518   -0.000695
 C 0.5377 0.88802 0.66484   0.761048
 C 0.4854 0.8344 0.5894   -0.262896
 C 0.3953 0.90335 0.5519   0.003518
 C 0.3353 0.85078 0.47816   -0.004998
 C 0.2183 0.91118 0.44476   -0.243225
 C 0.1572 0.86138 0.36936   0.701962
 C 0.1276 0.21932 0.13024   0.67437
 C 0.0349 0.15538 0.06136   -0.228433
 C 0.0388 0.03361 0.03482   -0.001201
 C 0.9623 0.22318 0.33516   0.761316
 C 0.0146 0.245 0.4106   -0.264279
 C 0.1047 0.35145 0.4481   0.003584
 C 0.1647 0.37262 0.52184   -0.004905
 C 0.2817 0.46642 0.55524   -0.243409
 C 0.3428 0.49202 0.63064   0.701307
 O 0.7227 0.00588 0.16476   -0.583517
 O 0.6136 0.82025 0.1553   -0.613963
 O 0.511 0.0025 0.3022   -0.661551
 O 0.3702 0.1816 0.307   -0.613542
 O 0.9908 0.08428 0.64876   -0.699955
 O 0.7572 0.22962 0.66984   -0.470295
 O 0.7773 0.84112 0.83524   -0.584194
 O 0.8864 0.66495 0.8447   -0.614151
 O 0.989 0.7003 0.6978   -0.66126
 O 0.1298 0.8746 0.693   -0.613634
 O 0.5092 0.43552 0.35124   -0.699822
 O 0.7428 0.55978 0.33016   -0.46979
 O 0.2773 0.99412 0.83524   -0.583517
 O 0.3864 0.17975 0.8447   -0.613963
 O 0.489 0.9975 0.6978   -0.661551
 O 0.6298 0.8184 0.693   -0.613542
 O 0.0092 0.91572 0.35124   -0.699955
 O 0.2428 0.77038 0.33016   -0.470294
 O 0.2227 0.15888 0.16476   -0.584194
 O 0.1136 0.33505 0.1553   -0.614151
 O 0.011 0.2997 0.3022   -0.66126
 O 0.8702 0.1254 0.307   -0.613634
 O 0.4908 0.56448 0.64876   -0.699822
 O 0.2572 0.44022 0.66984   -0.46979
