{'_ref': 'TBD', '_srcid': 'CAKYAQ_clean', 'submitters': [{'name': 'Dalar Nazarian Jeff Camp and David Sholl', 'email': 'dalar@gatech.edu jcamp6@gatech.edu'}], '_method': 'VASP DFT with PBE;DDEC'}
data_Cd5H6C20(NO2)8
_symmetry_space_group_name_H-M   'P 1'
_cell_length_a   14.14300000
_cell_length_b   15.71780000
_cell_length_c   16.08890000
_cell_angle_alpha   90.00000000
_cell_angle_beta   90.00000000
_cell_angle_gamma   90.00000000
_symmetry_Int_Tables_number   1
_chemical_formula_structural   Cd5H6C20(NO2)8
_chemical_formula_sum   'Cd20 H24 C80 N32 O64'
_cell_volume   3576.51171596
_cell_formula_units_Z   4
loop_
 _symmetry_equiv_pos_site_id
 _symmetry_equiv_pos_as_xyz
  1  'x, y, z'
loop_
 _atom_site_label
 _atom_site_fract_x
 _atom_site_fract_y
 _atom_site_fract_z
 _atom_site_charge
 Cd 0.35462 0.07033 0.22131   1.033031
 Cd 0.12015 0.98652 0.31101   1.058792
 Cd 0.14538 0.92967 0.72131   1.033031
 Cd 0.37985 0.01348 0.81101   1.058792
 Cd 0.64538 0.57033 0.27869   1.033031
 Cd 0.87985 0.48652 0.18899   1.058792
 Cd 0.85462 0.42967 0.77869   1.033031
 Cd 0.62015 0.51348 0.68899   1.058792
 Cd 0.64538 0.92967 0.77869   1.033031
 Cd 0.87985 0.01348 0.68899   1.058792
 Cd 0.85462 0.07033 0.27869   1.033031
 Cd 0.62015 0.98652 0.18899   1.058792
 Cd 0.35462 0.42967 0.72131   1.033031
 Cd 0.12015 0.51348 0.81101   1.058792
 Cd 0.14538 0.57033 0.22131   1.033031
 Cd 0.37985 0.48652 0.31101   1.058792
 Cd 0.0 0.0 0.0   1.225468
 Cd 0.5 0.0 0.5   1.225468
 Cd 0.0 0.5 0.5   1.225468
 Cd 0.5 0.5 0.0   1.225468
 H 0.4494 0.0733 0.0188   0.073692
 H 0.2827 0.2706 0.2979   0.071809
 H 0.624 0.3164 0.177   0.375573
 H 0.0506 0.9267 0.5188   0.073692
 H 0.2173 0.7294 0.7979   0.071809
 H 0.876 0.6836 0.677   0.375573
 H 0.5506 0.5733 0.4812   0.073692
 H 0.7173 0.7706 0.2021   0.071809
 H 0.376 0.8164 0.323   0.375573
 H 0.9494 0.4267 0.9812   0.073692
 H 0.7827 0.2294 0.7021   0.071809
 H 0.124 0.1836 0.823   0.375573
 H 0.5506 0.9267 0.9812   0.073692
 H 0.7173 0.7294 0.7021   0.071809
 H 0.376 0.6836 0.823   0.375573
 H 0.9494 0.0733 0.4812   0.073692
 H 0.7827 0.2706 0.2021   0.071809
 H 0.124 0.3164 0.323   0.375573
 H 0.4494 0.4267 0.5188   0.073692
 H 0.2827 0.2294 0.7979   0.071809
 H 0.624 0.1836 0.677   0.375573
 H 0.0506 0.5733 0.0188   0.073692
 H 0.2173 0.7706 0.2979   0.071809
 H 0.876 0.8164 0.177   0.375573
 C 0.1748 0.9969 0.1198   0.669855
 C 0.2472 0.0108 0.0578   -0.025007
 C 0.3882 0.0516 0.0175   0.310678
 C 0.2564 0.9979 0.9739   -0.001459
 C 0.194 0.9636 0.9075   0.658331
 C 0.3435 0.2741 0.2763   0.319898
 C 0.4744 0.2399 0.2179   0.016107
 C 0.554 0.3875 0.2323   0.637507
 C 0.4781 0.3253 0.2395   -0.044143
 C 0.5464 0.1834 0.1802   0.632966
 C 0.3252 0.0031 0.6198   0.669855
 C 0.2528 0.9892 0.5578   -0.025007
 C 0.1118 0.9484 0.5175   0.310678
 C 0.2436 0.0021 0.4739   -0.001459
 C 0.306 0.0364 0.4075   0.658331
 C 0.1565 0.7259 0.7763   0.319898
 C 0.0256 0.7601 0.7179   0.016107
 C 0.946 0.6125 0.7323   0.637507
 C 0.0219 0.6747 0.7395   -0.044143
 C 0.9536 0.8166 0.6802   0.632966
 C 0.8252 0.4969 0.3802   0.669855
 C 0.7528 0.5108 0.4422   -0.025007
 C 0.6118 0.5516 0.4825   0.310678
 C 0.7436 0.4979 0.5261   -0.001459
 C 0.806 0.4636 0.5925   0.658331
 C 0.6565 0.7741 0.2237   0.319898
 C 0.5256 0.7399 0.2821   0.016107
 C 0.446 0.8875 0.2677   0.637507
 C 0.5219 0.8253 0.2605   -0.044143
 C 0.4536 0.6834 0.3198   0.632966
 C 0.6748 0.5031 0.8802   0.669855
 C 0.7472 0.4892 0.9422   -0.025007
 C 0.8882 0.4484 0.9825   0.310678
 C 0.7564 0.5021 0.0261   -0.001459
 C 0.694 0.5364 0.0925   0.658331
 C 0.8435 0.2259 0.7237   0.319898
 C 0.9744 0.2601 0.7821   0.016107
 C 0.054 0.1125 0.7677   0.637507
 C 0.9781 0.1747 0.7605   -0.044143
 C 0.0464 0.3166 0.8198   0.632966
 C 0.8252 0.0031 0.8802   0.669855
 C 0.7528 0.9892 0.9422   -0.025007
 C 0.6118 0.9484 0.9825   0.310679
 C 0.7436 0.0021 0.0261   -0.001459
 C 0.806 0.0364 0.0925   0.658331
 C 0.6565 0.7259 0.7237   0.319899
 C 0.5256 0.7601 0.7821   0.016107
 C 0.446 0.6125 0.7677   0.637507
 C 0.5219 0.6747 0.7605   -0.044143
 C 0.4536 0.8166 0.8198   0.632966
 C 0.6748 0.9969 0.3802   0.669855
 C 0.7472 0.0108 0.4422   -0.025007
 C 0.8882 0.0516 0.4825   0.310679
 C 0.7564 0.9979 0.5261   -0.001459
 C 0.694 0.9636 0.5925   0.658331
 C 0.8435 0.2741 0.2237   0.319899
 C 0.9744 0.2399 0.2821   0.016107
 C 0.054 0.3875 0.2677   0.637507
 C 0.9781 0.3253 0.2605   -0.044143
 C 0.0464 0.1834 0.3198   0.632966
 C 0.1748 0.5031 0.6198   0.669855
 C 0.2472 0.4892 0.5578   -0.025007
 C 0.3882 0.4484 0.5175   0.310679
 C 0.2564 0.5021 0.4739   -0.001459
 C 0.194 0.5364 0.4075   0.658331
 C 0.3435 0.2259 0.7763   0.319899
 C 0.4744 0.2601 0.7179   0.016107
 C 0.554 0.1125 0.7323   0.637507
 C 0.4781 0.1747 0.7395   -0.044143
 C 0.5464 0.3166 0.6802   0.632966
 C 0.3252 0.4969 0.1198   0.669855
 C 0.2528 0.5108 0.0578   -0.025007
 C 0.1118 0.5516 0.0175   0.310679
 C 0.2436 0.4979 0.9739   -0.001459
 C 0.306 0.4636 0.9075   0.658331
 C 0.1565 0.7741 0.2763   0.319899
 C 0.0256 0.7399 0.2179   0.016107
 C 0.946 0.8875 0.2323   0.637507
 C 0.0219 0.8253 0.2395   -0.044143
 C 0.9536 0.6834 0.1802   0.632966
 N 0.333 0.0452 0.0855   -0.436906
 N 0.3463 0.0235 0.9477   -0.439096
 N 0.3888 0.2081 0.2422   -0.420824
 N 0.3951 0.3462 0.2762   -0.436361
 N 0.167 0.9548 0.5855   -0.436906
 N 0.1537 0.9765 0.4477   -0.439096
 N 0.1112 0.7919 0.7422   -0.420824
 N 0.1049 0.6538 0.7762   -0.436361
 N 0.667 0.5452 0.4145   -0.436906
 N 0.6537 0.5235 0.5523   -0.439096
 N 0.6112 0.7081 0.2578   -0.420824
 N 0.6049 0.8462 0.2238   -0.436361
 N 0.833 0.4548 0.9145   -0.436906
 N 0.8463 0.4765 0.0523   -0.439096
 N 0.8888 0.2919 0.7578   -0.420824
 N 0.8951 0.1538 0.7238   -0.436361
 N 0.667 0.9548 0.9145   -0.436906
 N 0.6537 0.9765 0.0523   -0.439096
 N 0.6112 0.7919 0.7578   -0.420824
 N 0.6049 0.6538 0.7238   -0.436361
 N 0.833 0.0452 0.4145   -0.436906
 N 0.8463 0.0235 0.5523   -0.439096
 N 0.8888 0.2081 0.2578   -0.420824
 N 0.8951 0.3462 0.2238   -0.436361
 N 0.333 0.4548 0.5855   -0.436906
 N 0.3463 0.4765 0.4477   -0.439096
 N 0.3888 0.2919 0.7422   -0.420824
 N 0.3951 0.1538 0.7762   -0.436361
 N 0.167 0.5452 0.0855   -0.436906
 N 0.1537 0.5235 0.9477   -0.439096
 N 0.1112 0.7081 0.2422   -0.420824
 N 0.1049 0.8462 0.2762   -0.436361
 O 0.1928 0.0245 0.192   -0.586049
 O 0.0969 0.9608 0.1022   -0.64361
 O 0.2313 0.9536 0.8367   -0.576492
 O 0.109 0.9418 0.9201   -0.634273
 O 0.6316 0.3664 0.1975   -0.45678
 O 0.5263 0.1067 0.1732   -0.61188
 O 0.6245 0.2159 0.1586   -0.598075
 O 0.5408 0.4596 0.2638   -0.560018
 O 0.3072 0.9755 0.692   -0.586049
 O 0.4031 0.0392 0.6022   -0.64361
 O 0.2687 0.0464 0.3367   -0.576492
 O 0.391 0.0582 0.4201   -0.634273
 O 0.8684 0.6336 0.6975   -0.45678
 O 0.9737 0.8933 0.6732   -0.61188
 O 0.8755 0.7841 0.6586   -0.598075
 O 0.9592 0.5404 0.7638   -0.560018
 O 0.8072 0.5245 0.308   -0.586049
 O 0.9031 0.4608 0.3978   -0.64361
 O 0.7687 0.4536 0.6633   -0.576492
 O 0.891 0.4418 0.5799   -0.634274
 O 0.3684 0.8664 0.3025   -0.456781
 O 0.4737 0.6067 0.3268   -0.61188
 O 0.3755 0.7159 0.3414   -0.598075
 O 0.4592 0.9596 0.2362   -0.560018
 O 0.6928 0.4755 0.808   -0.586049
 O 0.5969 0.5392 0.8978   -0.64361
 O 0.7313 0.5464 0.1633   -0.576492
 O 0.609 0.5582 0.0799   -0.634274
 O 0.1316 0.1336 0.8025   -0.456781
 O 0.0263 0.3933 0.8268   -0.61188
 O 0.1245 0.2841 0.8414   -0.598075
 O 0.0408 0.0404 0.7362   -0.560018
 O 0.8072 0.9755 0.808   -0.586049
 O 0.9031 0.0392 0.8978   -0.64361
 O 0.7687 0.0464 0.1633   -0.576492
 O 0.891 0.0582 0.0799   -0.634273
 O 0.3684 0.6336 0.8025   -0.456781
 O 0.4737 0.8933 0.8268   -0.61188
 O 0.3755 0.7841 0.8414   -0.598075
 O 0.4592 0.5404 0.7362   -0.560018
 O 0.6928 0.0245 0.308   -0.586049
 O 0.5969 0.9608 0.3978   -0.64361
 O 0.7313 0.9536 0.6633   -0.576492
 O 0.609 0.9418 0.5799   -0.634273
 O 0.1316 0.3664 0.3025   -0.456781
 O 0.0263 0.1067 0.3268   -0.61188
 O 0.1245 0.2159 0.3414   -0.598075
 O 0.0408 0.4596 0.2362   -0.560018
 O 0.1928 0.4755 0.692   -0.586049
 O 0.0969 0.5392 0.6022   -0.64361
 O 0.2313 0.5464 0.3367   -0.576492
 O 0.109 0.5582 0.4201   -0.634273
 O 0.6316 0.1336 0.6975   -0.456781
 O 0.5263 0.3933 0.6732   -0.61188
 O 0.6245 0.2841 0.6586   -0.598075
 O 0.5408 0.0404 0.7638   -0.560018
 O 0.3072 0.5245 0.192   -0.586049
 O 0.4031 0.4608 0.1022   -0.64361
 O 0.2687 0.4536 0.8367   -0.576492
 O 0.391 0.4418 0.9201   -0.634274
 O 0.8684 0.8664 0.1975   -0.456781
 O 0.9737 0.6067 0.1732   -0.61188
 O 0.8755 0.7159 0.1586   -0.598075
 O 0.9592 0.9596 0.2638   -0.560018
