{'_ref': 'TBD', '_srcid': 'CAKYAQ_clean', 'submitters': [{'name': 'Dalar Nazarian Jeff Camp and David Sholl', 'email': 'dalar@gatech.edu jcamp6@gatech.edu'}], '_method': 'VASP DFT with PBE;DDEC'}
data_Ni3H50C46(N8O7)2
_symmetry_space_group_name_H-M   'P 1'
_cell_length_a   10.40000037
_cell_length_b   11.80300047
_cell_length_c   13.93700000
_cell_angle_alpha   71.84499878
_cell_angle_beta   71.97500177
_cell_angle_gamma   85.85500070
_symmetry_Int_Tables_number   1
_chemical_formula_structural   Ni3H50C46(N8O7)2
_chemical_formula_sum   'Ni3 H50 C46 N16 O14'
_cell_volume   1545.28162803
_cell_formula_units_Z   1
loop_
 _symmetry_equiv_pos_site_id
 _symmetry_equiv_pos_as_xyz
  1  'x, y, z'
loop_
 _atom_site_label
 _atom_site_fract_x
 _atom_site_fract_y
 _atom_site_fract_z
 _atom_site_charge
 Ni 0.42498 0.69808 0.25506   0.831016
 Ni 0.57502 0.30192 0.74494   0.831017
 Ni 0.0 0.0 0.5   0.406482
 H 0.5102 0.7283 0.0215   0.074074
 H 0.2727 0.952 0.1433   0.114474
 H 0.3224 0.0306 0.9499   0.147613
 H 0.5132 0.9676 0.7909   0.125391
 H 0.5794 0.8441 0.8254   0.092677
 H 0.3 0.9865 0.7745   0.123758
 H 0.2243 0.8872 0.8776   0.1167
 H 0.2339 0.0079 0.6076   0.091092
 H 0.0465 0.7481 0.8603   0.14773
 H 0.9255 0.7858 0.7297   0.092729
 H 0.2791 0.6786 0.8453   0.104386
 H 0.3323 0.6944 0.9338   0.093157
 H 0.6158 0.6331 0.8974   0.143177
 H 0.7112 0.4558 0.8511   0.121463
 H 0.3716 0.5118 0.7809   0.121613
 H 0.4472 0.9191 0.633   0.11742
 H 0.4251 0.7823 0.6571   0.108999
 H 0.6814 0.9933 0.6119   0.091072
 H 0.6502 0.6556 0.6289   0.1383
 H 0.8884 0.7204 0.5492   0.111323
 H 0.981 0.5649 0.4054   0.125998
 H 0.5396 0.652 0.489   0.067094
 H 0.7355 0.7556 0.372   0.123704
 H 0.7378 0.6259 0.3647   0.165486
 H 0.407 0.569 0.427   0.363751
 H 0.4898 0.2717 0.9785   0.074074
 H 0.7273 0.048 0.8567   0.114472
 H 0.6776 0.9694 0.0501   0.147613
 H 0.4868 0.0324 0.2091   0.12539
 H 0.4206 0.1559 0.1746   0.092677
 H 0.7 0.0135 0.2255   0.123757
 H 0.7757 0.1128 0.1224   0.116699
 H 0.7661 0.9921 0.3924   0.091089
 H 0.9535 0.2519 0.1397   0.147745
 H 0.0745 0.2142 0.2703   0.092729
 H 0.7209 0.3214 0.1547   0.104392
 H 0.6677 0.3056 0.0662   0.093167
 H 0.3842 0.3669 0.1026   0.143177
 H 0.2888 0.5442 0.1489   0.121477
 H 0.6284 0.4882 0.2191   0.121615
 H 0.5528 0.0809 0.367   0.11742
 H 0.5749 0.2177 0.3429   0.108999
 H 0.3186 0.0067 0.3881   0.091072
 H 0.3498 0.3444 0.3711   0.138299
 H 0.1116 0.2796 0.4508   0.111322
 H 0.019 0.4351 0.5946   0.125996
 H 0.4604 0.348 0.511   0.067094
 H 0.2645 0.2444 0.628   0.1237
 H 0.2622 0.3741 0.6353   0.165486
 H 0.593 0.431 0.573   0.363749
 C 0.4563 0.7935 0.0282   0.101855
 C 0.3267 0.9162 0.0945   0.043647
 C 0.3537 0.9603 0.9874   -0.159215
 C 0.4942 0.885 0.834   -0.112189
 C 0.4015 0.8283 0.793   0.034927
 C 0.2727 0.9028 0.8029   -0.107921
 C 0.172 0.9472 0.654   0.149534
 C 0.0703 0.8047 0.7937   -0.178484
 C 0.0039 0.8262 0.721   0.028834
 C 0.3586 0.6988 0.8596   -0.110731
 C 0.5784 0.5879 0.8682   -0.185562
 C 0.6303 0.4896 0.8426   0.02693
 C 0.4447 0.5198 0.8036   0.116169
 C 0.4676 0.841 0.674   -0.127169
 C 0.7045 0.9174 0.6066   0.126345
 C 0.6854 0.7309 0.6164   -0.15797
 C 0.8173 0.7676 0.5721   0.013218
 C 0.1745 0.5782 0.4198   0.671736
 C 0.0302 0.5369 0.4533   -0.193684
 C 0.4739 0.803 0.3949   0.575211
 C 0.5462 0.6838 0.4137   0.138072
 C 0.6939 0.7019 0.3492   -0.396662
 C 0.721 0.7517 0.2301   0.68532
 C 0.5437 0.2065 0.9718   0.101854
 C 0.6733 0.0838 0.9055   0.043647
 C 0.6463 0.0397 0.0126   -0.159216
 C 0.5058 0.115 0.166   -0.112189
 C 0.5985 0.1717 0.207   0.034928
 C 0.7273 0.0972 0.1971   -0.107921
 C 0.828 0.0528 0.346   0.149534
 C 0.9297 0.1953 0.2063   -0.17849
 C 0.9961 0.1738 0.279   0.028836
 C 0.6414 0.3012 0.1404   -0.110736
 C 0.4216 0.4121 0.1318   -0.185558
 C 0.3697 0.5104 0.1574   0.026926
 C 0.5553 0.4802 0.1964   0.116169
 C 0.5324 0.159 0.326   -0.127169
 C 0.2955 0.0826 0.3934   0.126345
 C 0.3146 0.2691 0.3836   -0.15797
 C 0.1827 0.2324 0.4279   0.013218
 C 0.8255 0.4218 0.5802   0.67173
 C 0.9698 0.4631 0.5467   -0.193649
 C 0.5261 0.197 0.6051   0.575211
 C 0.4538 0.3162 0.5863   0.138072
 C 0.3061 0.2981 0.6508   -0.396661
 C 0.279 0.2483 0.7699   0.68532
 N 0.3918 0.8107 0.1191   -0.316319
 N 0.4362 0.8804 0.9459   0.042554
 N 0.1793 0.8824 0.7506   0.065836
 N 0.0687 0.916 0.6324   -0.305504
 N 0.546 0.4467 0.802   -0.328153
 N 0.4596 0.6086 0.8426   0.048307
 N 0.8303 0.886 0.5661   -0.294477
 N 0.6146 0.8268 0.6389   0.060641
 N 0.6082 0.1893 0.8809   -0.316319
 N 0.5638 0.1196 0.0541   0.042554
 N 0.8207 0.1176 0.2494   0.065838
 N 0.9313 0.084 0.3676   -0.305504
 N 0.454 0.5533 0.198   -0.328152
 N 0.5404 0.3914 0.1574   0.048308
 N 0.1697 0.114 0.4339   -0.294477
 N 0.3854 0.1732 0.3611   0.060641
 O 0.2383 0.5445 0.4861   -0.611774
 O 0.2222 0.6428 0.3253   -0.578341
 O 0.3936 0.82 0.3385   -0.568845
 O 0.5009 0.8762 0.4334   -0.582343
 O 0.8479 0.7654 0.1761   -0.640731
 O 0.6318 0.7506 0.1875   -0.605961
 O 0.4868 0.5981 0.3846   -0.524566
 O 0.7617 0.4555 0.5139   -0.611773
 O 0.7778 0.3572 0.6747   -0.578341
 O 0.6064 0.18 0.6615   -0.568845
 O 0.4991 0.1238 0.5666   -0.582343
 O 0.1521 0.2346 0.8239   -0.640731
 O 0.3682 0.2494 0.8125   -0.605961
 O 0.5132 0.4019 0.6154   -0.524565
