{'_ref': 'TBD', '_srcid': 'CAKYAQ_clean', 'submitters': [{'name': 'Dalar Nazarian Jeff Camp and David Sholl', 'email': 'dalar@gatech.edu jcamp6@gatech.edu'}], '_method': 'VASP DFT with PBE;DDEC'}
data_Er2H3(C5O4)3
_symmetry_space_group_name_H-M   'P 1'
_cell_length_a   9.67620016
_cell_length_b   10.99490012
_cell_length_c   11.49600000
_cell_angle_alpha   104.93100132
_cell_angle_beta   90.78500077
_cell_angle_gamma   114.24699875
_symmetry_Int_Tables_number   1
_chemical_formula_structural   Er2H3(C5O4)3
_chemical_formula_sum   'Er4 H6 C30 O24'
_cell_volume   1067.54201211
_cell_formula_units_Z   2
loop_
 _symmetry_equiv_pos_site_id
 _symmetry_equiv_pos_as_xyz
  1  'x, y, z'
loop_
 _atom_site_label
 _atom_site_fract_x
 _atom_site_fract_y
 _atom_site_fract_z
 _atom_site_charge
 Er 0.01754 0.92442 0.82953   1.552242
 Er 0.99326 0.49249 0.75322   1.545863
 Er 0.98246 0.07558 0.17047   1.552253
 Er 0.00674 0.50751 0.24678   1.545865
 H 0.5053 0.183 0.1554   0.105219
 H 0.5119 0.7179 0.093   0.116755
 H 0.4089 0.2934 0.3447   0.120968
 H 0.4947 0.817 0.8446   0.105219
 H 0.4881 0.2821 0.907   0.116755
 H 0.5911 0.7066 0.6553   0.120969
 C 0.2281 0.998 0.1011   0.645851
 C 0.3641 0.9938 0.0457   -0.08056
 C 0.5031 0.1089 0.0929   -0.014594
 C 0.3605 0.8835 0.9509   -0.063694
 C 0.7591 0.7541 0.991   0.702514
 C 0.6273 0.6201 0.995   -0.07469
 C 0.5063 0.6301 0.055   -0.033381
 C 0.2173 0.7508 0.8926   0.681141
 C 0.7077 0.3837 0.3989   0.661436
 C 0.6548 0.564 0.5512   -0.060445
 C 0.446 0.3772 0.4064   -0.035503
 C 0.5994 0.441 0.4543   -0.025506
 C 0.814 0.6309 0.6137   0.723871
 C 0.7501 0.4691 0.8827   0.618511
 C 0.6218 0.4868 0.9403   -0.02234
 C 0.7719 0.002 0.8989   0.645851
 C 0.6359 0.0062 0.9543   -0.080561
 C 0.4969 0.8911 0.9071   -0.014591
 C 0.6395 0.1165 0.0491   -0.063691
 C 0.2409 0.2459 0.009   0.702513
 C 0.3727 0.3799 0.005   -0.074691
 C 0.4937 0.3699 0.945   -0.033381
 C 0.7827 0.2492 0.1074   0.68114
 C 0.2923 0.6163 0.6011   0.661435
 C 0.3452 0.436 0.4488   -0.060453
 C 0.554 0.6228 0.5936   -0.035512
 C 0.4006 0.559 0.5457   -0.025503
 C 0.186 0.3691 0.3863   0.723872
 C 0.2499 0.5309 0.1173   0.61851
 C 0.3782 0.5132 0.0597   -0.02234
 O 0.7248 0.3761 0.7844   -0.555857
 O 0.887 0.5482 0.9314   -0.546482
 O 0.8195 0.4672 0.3627   -0.652301
 O 0.2176 0.6386 0.8975   -0.58298
 O 0.1063 0.7512 0.833   -0.691531
 O 0.8687 0.5495 0.6287   -0.622158
 O 0.8849 0.7612 0.6468   -0.610798
 O 0.8138 0.7586 0.8941   -0.570174
 O 0.7949 0.8522 0.0872   -0.644085
 O 0.2411 0.0577 0.2106   -0.52455
 O 0.098 0.9464 0.0335   -0.66951
 O 0.6789 0.2603 0.3883   -0.393232
 O 0.2752 0.6239 0.2156   -0.555857
 O 0.113 0.4518 0.0686   -0.546482
 O 0.1805 0.5328 0.6373   -0.652301
 O 0.7824 0.3614 0.1025   -0.58298
 O 0.8937 0.2488 0.167   -0.691532
 O 0.1313 0.4505 0.3713   -0.622159
 O 0.1151 0.2388 0.3532   -0.610799
 O 0.1862 0.2414 0.1059   -0.570174
 O 0.2051 0.1478 0.9128   -0.644084
 O 0.7589 0.9423 0.7894   -0.52455
 O 0.902 0.0536 0.9665   -0.66951
 O 0.3211 0.7397 0.6117   -0.39323
