{'_ref': 'TBD', '_srcid': 'CAKYAQ_clean', 'submitters': [{'name': 'Dalar Nazarian Jeff Camp and David Sholl', 'email': 'dalar@gatech.edu jcamp6@gatech.edu'}], '_method': 'VASP DFT with PBE;DDEC'}
data_CuH11C11(NO2)2
_symmetry_space_group_name_H-M   'P 1'
_cell_length_a   8.64100024
_cell_length_b   13.15299986
_cell_length_c   15.30180000
_cell_angle_alpha   115.45399827
_cell_angle_beta   94.96469881
_cell_angle_gamma   89.99999921
_symmetry_Int_Tables_number   1
_chemical_formula_structural   CuH11C11(NO2)2
_chemical_formula_sum   'Cu4 H44 C44 N8 O16'
_cell_volume   1563.0818832
_cell_formula_units_Z   4
loop_
 _symmetry_equiv_pos_site_id
 _symmetry_equiv_pos_as_xyz
  1  'x, y, z'
loop_
 _atom_site_label
 _atom_site_fract_x
 _atom_site_fract_y
 _atom_site_fract_z
 _atom_site_charge
 Cu 0.0381 0.91487 0.42096   0.796906
 Cu 0.4619 0.49391 0.57904   0.797148
 Cu 0.9619 0.08513 0.57904   0.796903
 Cu 0.5381 0.50609 0.42096   0.797145
 H 0.1763 0.8641 0.227   0.082367
 H 0.3177 0.7358 0.115   0.121278
 H 0.2737 0.5349 0.2452   0.12611
 H 0.1307 0.6682 0.3538   0.081394
 H 0.4039 0.4618 0.0968   0.074162
 H 0.4937 0.9247 0.3832   0.133974
 H 0.5682 0.9405 0.2998   0.119028
 H 0.3947 0.0857 0.3716   0.068193
 H 0.4889 0.1223 0.4734   0.067499
 H 0.707 0.1665 0.4074   0.129659
 H 0.598 0.1439 0.3134   0.118086
 H 0.3237 0.6371 0.773   0.082739
 H 0.1823 0.6208 0.885   0.121254
 H 0.2263 0.2897 0.7548   0.126294
 H 0.3693 0.3144 0.6462   0.082019
 H 0.0961 0.365 0.9032   0.074401
 H 0.0063 0.5415 0.6168   0.133088
 H 0.9318 0.6407 0.7002   0.119188
 H 0.1053 0.7141 0.6284   0.068078
 H 0.0111 0.6489 0.5266   0.068144
 H 0.793 0.7591 0.5926   0.129631
 H 0.902 0.8305 0.6866   0.117885
 H 0.8237 0.1359 0.773   0.082366
 H 0.6823 0.2642 0.885   0.121277
 H 0.7263 0.4651 0.7548   0.126109
 H 0.8693 0.3318 0.6462   0.081394
 H 0.5961 0.5382 0.9032   0.074161
 H 0.5063 0.0753 0.6168   0.133974
 H 0.4318 0.0595 0.7002   0.119028
 H 0.6053 0.9143 0.6284   0.068192
 H 0.5111 0.8777 0.5266   0.067498
 H 0.293 0.8335 0.5926   0.129659
 H 0.402 0.8561 0.6866   0.118085
 H 0.6763 0.3629 0.227   0.082738
 H 0.8177 0.3792 0.115   0.121253
 H 0.7737 0.7103 0.2452   0.126293
 H 0.6307 0.6856 0.3538   0.082019
 H 0.9039 0.635 0.0968   0.0744
 H 0.9937 0.4585 0.3832   0.133088
 H 0.0682 0.3593 0.2998   0.119187
 H 0.8947 0.2859 0.3716   0.068078
 H 0.9889 0.3511 0.4734   0.068144
 H 0.207 0.2409 0.4074   0.129631
 H 0.098 0.1695 0.3134   0.117885
 C 0.1962 0.7967 0.231   0.157908
 C 0.2805 0.72 0.1634   -0.168576
 C 0.3105 0.61947 0.16674   0.054953
 C 0.2545 0.60168 0.23976   -0.170662
 C 0.1698 0.6824 0.3052   0.173216
 C 0.3967 0.5317 0.0954   0.171645
 C 0.7245 0.9749 0.4188   0.692832
 C 0.5635 0.9727 0.3696   -0.327499
 C 0.4979 0.0914 0.4042   -0.018285
 C 0.6008 0.1705 0.3832   -0.331765
 C 0.0572 0.1341 0.427   0.705824
 C 0.3038 0.5657 0.769   0.15715
 C 0.2195 0.5566 0.8366   -0.16836
 C 0.1895 0.45273 0.83326   0.054515
 C 0.2455 0.36192 0.76024   -0.170355
 C 0.3302 0.3772 0.6948   0.171911
 C 0.1033 0.4363 0.9046   0.170537
 C 0.7755 0.5561 0.5812   0.694756
 C 0.9365 0.6031 0.6304   -0.326673
 C 0.0021 0.6872 0.5958   -0.018742
 C 0.8992 0.7873 0.6168   -0.331317
 C 0.4428 0.7071 0.573   0.707726
 C 0.8038 0.2033 0.769   0.157909
 C 0.7195 0.28 0.8366   -0.168576
 C 0.6895 0.38053 0.83326   0.054953
 C 0.7455 0.39832 0.76024   -0.170661
 C 0.8302 0.3176 0.6948   0.173217
 C 0.6033 0.4683 0.9046   0.171646
 C 0.2755 0.0251 0.5812   0.692832
 C 0.4365 0.0273 0.6304   -0.327499
 C 0.5021 0.9086 0.5958   -0.018285
 C 0.3992 0.8295 0.6168   -0.331766
 C 0.9428 0.8659 0.573   0.705823
 C 0.6962 0.4343 0.231   0.15715
 C 0.7805 0.4434 0.1634   -0.16836
 C 0.8105 0.54727 0.16674   0.054515
 C 0.7545 0.63808 0.23976   -0.170354
 C 0.6698 0.6228 0.3052   0.171912
 C 0.8967 0.5637 0.0954   0.170538
 C 0.2245 0.4439 0.4188   0.694756
 C 0.0635 0.3969 0.3696   -0.326672
 C 0.9979 0.3128 0.4042   -0.018742
 C 0.1008 0.2127 0.3832   -0.331318
 C 0.5572 0.2929 0.427   0.707725
 N 0.1411 0.78022 0.30204   -0.328892
 N 0.4624 0.549 0.0308   -0.260442
 N 0.3589 0.47818 0.69796   -0.327724
 N 0.0376 0.5182 0.9692   -0.259839
 N 0.8589 0.21978 0.69796   -0.328892
 N 0.5376 0.451 0.9692   -0.260437
 N 0.6411 0.52182 0.30204   -0.327724
 N 0.9624 0.4818 0.0308   -0.259834
 O 0.8188 0.90549 0.36818   -0.570585
 O 0.0741 0.0311 0.3754   -0.579418
 O 0.756 0.04641 0.50422   -0.560777
 O 0.0131 0.17517 0.50934   -0.558545
 O 0.6812 0.53731 0.63182   -0.571644
 O 0.4259 0.6557 0.6246   -0.580844
 O 0.744 0.54219 0.49578   -0.561521
 O 0.4869 0.66583 0.49066   -0.559031
 O 0.1812 0.09451 0.63182   -0.570584
 O 0.9259 0.9689 0.6246   -0.579418
 O 0.244 0.95359 0.49578   -0.560778
 O 0.9869 0.82483 0.49066   -0.558545
 O 0.3188 0.46269 0.36818   -0.571644
 O 0.5741 0.3443 0.3754   -0.580843
 O 0.256 0.45781 0.50422   -0.561521
 O 0.5131 0.33417 0.50934   -0.559031
