{'_ref': 'TBD', '_srcid': 'CAKYAQ_clean', 'submitters': [{'name': 'Dalar Nazarian Jeff Camp and David Sholl', 'email': 'dalar@gatech.edu jcamp6@gatech.edu'}], '_method': 'VASP DFT with PBE;DDEC'}
data_InH8(C2O)8
_symmetry_space_group_name_H-M   'P 1'
_cell_length_a   12.03200000
_cell_length_b   15.08699977
_cell_length_c   15.08700000
_cell_angle_alpha   120.00000051
_cell_angle_beta   90.00000000
_cell_angle_gamma   90.00000000
_symmetry_Int_Tables_number   1
_chemical_formula_structural   InH8(C2O)8
_chemical_formula_sum   'In3 H24 C48 O24'
_cell_volume   2371.77903988
_cell_formula_units_Z   3
loop_
 _symmetry_equiv_pos_site_id
 _symmetry_equiv_pos_as_xyz
  1  'x, y, z'
loop_
 _atom_site_label
 _atom_site_fract_x
 _atom_site_fract_y
 _atom_site_fract_z
 _atom_site_charge
 In 0.0 0.5 0.5   1.461769
 In 0.66667 0.0 0.5   1.461668
 In 0.33333 0.5 0.0   1.461764
 H 0.75623 0.66097 0.78389   0.133533
 H 0.74583 0.32526 0.60919   0.11651
 H 0.4229 0.12292 0.33903   0.133566
 H 0.4125 0.28393 0.67474   0.116481
 H 0.08956 0.21611 0.87708   0.133554
 H 0.07916 0.39081 0.71608   0.116454
 H 0.75623 0.33903 0.21611   0.133514
 H 0.74583 0.67474 0.39081   0.116498
 H 0.4229 0.87708 0.66097   0.133564
 H 0.4125 0.71607 0.32526   0.116432
 H 0.08956 0.78389 0.12292   0.133552
 H 0.07916 0.60919 0.28392   0.116455
 H 0.91128 0.87683 0.21529   0.133623
 H 0.92144 0.71546 0.39062   0.116797
 H 0.2446 0.78472 0.66155   0.133576
 H 0.25477 0.60938 0.32484   0.116787
 H 0.5771 0.33903 0.12292   0.133546
 H 0.5875 0.67474 0.28393   0.11642
 H 0.91128 0.12317 0.78471   0.133626
 H 0.92144 0.28454 0.60938   0.116797
 H 0.2446 0.21528 0.33845   0.133578
 H 0.25477 0.39062 0.67516   0.116785
 H 0.57793 0.66155 0.87683   0.13363
 H 0.5881 0.32484 0.71546   0.11676
 C 0.8483 0.4905 0.6192   0.580491
 C 0.7537 0.4955 0.6892   -0.038332
 C 0.7136 0.5862 0.7655   -0.072064
 C 0.7091 0.4004 0.6716   -0.082498
 C 0.51497 0.1287 0.5095   0.580395
 C 0.42037 0.1937 0.5045   -0.038255
 C 0.38027 0.1793 0.4138   -0.072168
 C 0.37577 0.2712 0.5996   -0.082496
 C 0.18163 0.3808 0.8713   0.580477
 C 0.08703 0.3108 0.8063   -0.038197
 C 0.04693 0.2345 0.8207   -0.072169
 C 0.04243 0.3284 0.7288   -0.082444
 C 0.8483 0.5095 0.3808   0.580643
 C 0.7537 0.5045 0.3108   -0.038523
 C 0.7136 0.4138 0.2345   -0.071388
 C 0.7091 0.5996 0.3284   -0.082224
 C 0.51497 0.8713 0.4905   0.580398
 C 0.42037 0.8063 0.4955   -0.038228
 C 0.38027 0.8207 0.5862   -0.0722
 C 0.37577 0.7288 0.4004   -0.082448
 C 0.18163 0.6192 0.1287   0.580486
 C 0.08703 0.6892 0.1937   -0.038214
 C 0.04693 0.7655 0.1793   -0.072166
 C 0.04243 0.6716 0.2712   -0.082445
 C 0.81837 0.8713 0.3808   0.580332
 C 0.91297 0.8063 0.3108   -0.037343
 C 0.95307 0.8207 0.2345   -0.071461
 C 0.95757 0.7288 0.3284   -0.082712
 C 0.1517 0.6192 0.4905   0.5803
 C 0.2463 0.6892 0.4955   -0.0375
 C 0.2864 0.7655 0.5862   -0.071329
 C 0.2909 0.6716 0.4004   -0.082652
 C 0.48503 0.5095 0.1287   0.580477
 C 0.57963 0.5045 0.1937   -0.03843
 C 0.61973 0.4138 0.1793   -0.071492
 C 0.62423 0.5996 0.2712   -0.082122
 C 0.81837 0.1287 0.6192   0.580271
 C 0.91297 0.1937 0.6892   -0.037344
 C 0.95307 0.1793 0.7655   -0.071452
 C 0.95757 0.2712 0.6716   -0.082721
 C 0.1517 0.3808 0.5095   0.58032
 C 0.2463 0.3108 0.5045   -0.037519
 C 0.2864 0.2345 0.4138   -0.071326
 C 0.2909 0.3284 0.5996   -0.082612
 C 0.48503 0.4905 0.8713   0.580218
 C 0.57963 0.4955 0.8063   -0.037416
 C 0.61973 0.5862 0.8207   -0.071483
 C 0.62423 0.4004 0.7288   -0.082624
 O 0.8971 0.5784 0.6452   -0.513937
 O 0.8742 0.4135 0.5416   -0.490176
 O 0.56377 0.0668 0.4216   -0.51384
 O 0.54087 0.1281 0.5865   -0.490142
 O 0.23043 0.3548 0.9332   -0.513945
 O 0.20753 0.4584 0.8719   -0.490248
 O 0.8971 0.4216 0.3548   -0.514003
 O 0.8742 0.5865 0.4584   -0.490233
 O 0.56377 0.9332 0.5784   -0.513798
 O 0.54087 0.8719 0.4135   -0.490045
 O 0.23043 0.6452 0.0668   -0.513923
 O 0.20753 0.5416 0.1281   -0.490261
 O 0.76957 0.9332 0.3548   -0.513562
 O 0.79247 0.8719 0.4584   -0.48992
 O 0.1029 0.6452 0.5784   -0.513611
 O 0.1258 0.5416 0.4135   -0.489904
 O 0.43623 0.4216 0.0668   -0.513937
 O 0.45913 0.5865 0.1281   -0.490091
 O 0.76957 0.0668 0.6452   -0.513548
 O 0.79247 0.1281 0.5416   -0.489946
 O 0.1029 0.3548 0.4216   -0.513616
 O 0.1258 0.4584 0.5865   -0.489911
 O 0.43623 0.5784 0.9332   -0.513563
 O 0.45913 0.4135 0.8719   -0.489892
