{'_ref': 'TBD', '_srcid': 'CAKYAQ_clean', 'submitters': [{'name': 'Dalar Nazarian Jeff Camp and David Sholl', 'email': 'dalar@gatech.edu jcamp6@gatech.edu'}], '_method': 'VASP DFT with PBE;DDEC'}
data_ZnH8C12(NO2)2
_symmetry_space_group_name_H-M   'P 1'
_cell_length_a   6.25800000
_cell_length_b   15.52599964
_cell_length_c   15.52600000
_cell_angle_alpha   120.00000077
_cell_angle_beta   90.00000000
_cell_angle_gamma   90.00000000
_symmetry_Int_Tables_number   1
_chemical_formula_structural   ZnH8C12(NO2)2
_chemical_formula_sum   'Zn3 H24 C36 N6 O12'
_cell_volume   1306.42758121
_cell_formula_units_Z   3
loop_
 _symmetry_equiv_pos_site_id
 _symmetry_equiv_pos_as_xyz
  1  'x, y, z'
loop_
 _atom_site_label
 _atom_site_fract_x
 _atom_site_fract_y
 _atom_site_fract_z
 _atom_site_charge
 Zn 0.95155 0.16673 0.33334   0.841668
 Zn 0.61822 0.16661 0.83327   0.841306
 Zn 0.28488 0.66666 0.83339   0.841267
 H 0.2235 0.86918 0.99352   0.082842
 H 0.95268 0.5491 0.60496   0.143433
 H 0.4345 0.00481 0.13916   0.137142
 H 0.44278 0.32821 0.52692   0.133081
 H 0.95258 0.78504 0.06153   0.141962
 H 0.22109 0.46338 0.66958   0.085184
 H 0.72065 0.65796 0.91775   0.099022
 H 0.72129 0.67311 0.74914   0.093114
 H 0.89017 0.12433 0.13082   0.082657
 H 0.61935 0.05586 0.4509   0.143446
 H 0.11042 0.13572 0.99379   0.136303
 H 0.10945 0.1987 0.67179   0.133069
 H 0.61925 0.27649 0.21496   0.141203
 H 0.88776 0.2062 0.53662   0.085176
 H 0.38732 0.25979 0.34204   0.099076
 H 0.38796 0.07603 0.32689   0.093135
 H 0.55683 0.00648 0.87567   0.082554
 H 0.28601 0.39504 0.94414   0.143453
 H 0.76783 0.86084 0.86565   0.137082
 H 0.77611 0.47308 0.8013   0.133118
 H 0.28591 0.93847 0.72351   0.141933
 H 0.55442 0.33042 0.7938   0.085244
 H 0.05398 0.08225 0.74021   0.098969
 H 0.05462 0.25086 0.92397   0.092792
 C 0.8501 0.9812 0.1889   0.614777
 C 0.8487 0.3517 0.4777   0.613873
 C 0.7079 0.9025 0.1072   0.013633
 C 0.3905 0.8527 0.0109   0.136541
 C 0.7093 0.4309 0.5584   0.01711
 C 0.788 0.5278 0.6197   -0.163435
 C 0.5076 0.9279 0.0914   -0.145016
 C 0.5078 0.4066 0.5759   -0.147528
 C 0.7874 0.8057 0.0466   -0.16141
 C 0.3896 0.4802 0.6542   0.135701
 C 0.6595 0.7367 0.9687   0.126966
 C 0.6608 0.5946 0.6967   0.137389
 C 0.51677 0.2077 0.0188   0.615004
 C 0.51537 0.126 0.6483   0.613833
 C 0.37457 0.2047 0.0975   0.011199
 C 0.05717 0.1582 0.1473   0.138586
 C 0.37597 0.1275 0.5691   0.017139
 C 0.45467 0.0919 0.4722   -0.163515
 C 0.17427 0.1635 0.0721   -0.144973
 C 0.17447 0.1693 0.5934   -0.147562
 C 0.45407 0.2409 0.1943   -0.160721
 C 0.05627 0.174 0.5198   0.135794
 C 0.32617 0.232 0.2633   0.126504
 C 0.32747 0.1021 0.4054   0.137519
 C 0.18343 0.8111 0.7923   0.614783
 C 0.18203 0.5223 0.874   0.613854
 C 0.04123 0.8928 0.7953   0.01364
 C 0.72383 0.9891 0.8418   0.137136
 C 0.04263 0.4416 0.8725   0.017143
 C 0.12133 0.3803 0.9081   -0.163501
 C 0.84093 0.9086 0.8365   -0.144719
 C 0.84113 0.4241 0.8307   -0.147445
 C 0.12073 0.9534 0.7591   -0.161546
 C 0.72293 0.3458 0.826   0.135744
 C 0.99283 0.0313 0.768   0.126738
 C 0.99413 0.3033 0.8979   0.137633
 N 0.4646 0.7618 0.9528   -0.303256
 N 0.465 0.5722 0.7141   -0.307799
 N 0.13127 0.191 0.2382   -0.3033
 N 0.13167 0.1419 0.4278   -0.307931
 N 0.79793 0.0472 0.809   -0.303111
 N 0.79833 0.2859 0.8581   -0.307914
 O 0.7519 0.2712 0.4192   -0.588178
 O 0.7515 0.0615 0.2478   -0.594329
 O 0.04 0.3681 0.4759   -0.573653
 O 0.0402 0.9656 0.1906   -0.568395
 O 0.41857 0.148 0.7288   -0.588342
 O 0.41817 0.1863 0.9385   -0.594208
 O 0.70667 0.1078 0.6319   -0.57354
 O 0.70687 0.225 0.0344   -0.567584
 O 0.08523 0.5808 0.852   -0.588117
 O 0.08483 0.7522 0.8137   -0.59434
 O 0.37333 0.5241 0.8922   -0.573701
 O 0.37353 0.8094 0.775   -0.568399
