{'_ref': 'TBD', '_srcid': 'CAKYAQ_clean', 'submitters': [{'name': 'Dalar Nazarian Jeff Camp and David Sholl', 'email': 'dalar@gatech.edu jcamp6@gatech.edu'}], '_method': 'VASP DFT with PBE;DDEC'}
data_ZnH8C12(NO2)2
_symmetry_space_group_name_H-M   'P 1'
_cell_length_a   6.26200000
_cell_length_b   15.51199995
_cell_length_c   15.51200000
_cell_angle_alpha   120.00000012
_cell_angle_beta   90.00000000
_cell_angle_gamma   90.00000000
_symmetry_Int_Tables_number   1
_chemical_formula_structural   ZnH8C12(NO2)2
_chemical_formula_sum   'Zn3 H24 C36 N6 O12'
_cell_volume   1304.90617136
_cell_formula_units_Z   3
loop_
 _symmetry_equiv_pos_site_id
 _symmetry_equiv_pos_as_xyz
  1  'x, y, z'
loop_
 _atom_site_label
 _atom_site_fract_x
 _atom_site_fract_y
 _atom_site_fract_z
 _atom_site_charge
 Zn 0.8504 0.5 0.5   0.843817
 Zn 0.18373 0.0 0.5   0.843783
 Zn 0.51707 0.5 0.0   0.843778
 H 0.2154 0.7236 0.6019   0.131424
 H 0.4261 0.5971 0.589   0.078928
 H 0.878 0.6658 0.4619   0.072779
 H 0.684 0.7978 0.4767   0.123197
 H 0.54873 0.8783 0.2764   0.131386
 H 0.75943 0.9919 0.4029   0.078915
 H 0.21133 0.7961 0.3342   0.072783
 H 0.01733 0.6789 0.2022   0.123148
 H 0.88207 0.3981 0.1217   0.131439
 H 0.09277 0.411 0.0081   0.07895
 H 0.54467 0.5381 0.2039   0.072749
 H 0.35067 0.5233 0.3211   0.123206
 H 0.2154 0.2764 0.3981   0.131424
 H 0.4261 0.4029 0.411   0.078928
 H 0.878 0.3342 0.5381   0.072779
 H 0.684 0.2022 0.5233   0.123197
 H 0.54873 0.1217 0.7236   0.131386
 H 0.75943 0.0081 0.5971   0.078914
 H 0.21133 0.2039 0.6658   0.072783
 H 0.01733 0.3211 0.7978   0.123148
 H 0.88207 0.6019 0.8783   0.131439
 H 0.09277 0.589 0.9919   0.07895
 H 0.54467 0.4619 0.7961   0.072749
 H 0.35067 0.4767 0.6789   0.123206
 C 0.2872 0.8561 0.5423   0.622553
 C 0.4261 0.7737 0.5379   -0.015455
 C 0.3502 0.713 0.5731   -0.141447
 C 0.4772 0.6371 0.5647   0.174356
 C 0.7432 0.678 0.4908   0.164461
 C 0.6266 0.7566 0.4984   -0.128696
 C 0.62053 0.6862 0.1439   0.622604
 C 0.75943 0.7642 0.2263   -0.015536
 C 0.68353 0.8601 0.287   -0.141393
 C 0.81053 0.9276 0.3629   0.174422
 C 0.07653 0.8128 0.322   0.164414
 C 0.95993 0.7418 0.2434   -0.128549
 C 0.95387 0.4577 0.3138   0.622517
 C 0.09277 0.4621 0.2358   -0.015453
 C 0.01687 0.4269 0.1399   -0.141532
 C 0.14387 0.4353 0.0724   0.174404
 C 0.40987 0.5092 0.1872   0.164496
 C 0.29327 0.5016 0.2582   -0.128701
 C 0.2872 0.1439 0.4577   0.622553
 C 0.4261 0.2263 0.4621   -0.015455
 C 0.3502 0.287 0.4269   -0.141447
 C 0.4772 0.3629 0.4353   0.174357
 C 0.7432 0.322 0.5092   0.164461
 C 0.6266 0.2434 0.5016   -0.128696
 C 0.62053 0.3138 0.8561   0.622604
 C 0.75943 0.2358 0.7737   -0.015536
 C 0.68353 0.1399 0.713   -0.141393
 C 0.81053 0.0724 0.6371   0.174422
 C 0.07653 0.1872 0.678   0.164414
 C 0.95993 0.2582 0.7566   -0.128548
 C 0.95387 0.5423 0.6862   0.622517
 C 0.09277 0.5379 0.7642   -0.015453
 C 0.01687 0.5731 0.8601   -0.141532
 C 0.14387 0.5647 0.9276   0.174404
 C 0.40987 0.4908 0.8128   0.164496
 C 0.29327 0.4984 0.7418   -0.128701
 N 0.6704 0.61831 0.52341   -0.338786
 N 0.00373 0.9051 0.38169   -0.338821
 N 0.33707 0.47659 0.0949   -0.33878
 N 0.6704 0.38169 0.47659   -0.338786
 N 0.00373 0.0949 0.61831   -0.338821
 N 0.33707 0.52341 0.9051   -0.33878
 O 0.3834 0.91458 0.51939   -0.594381
 O 0.0971 0.8585 0.5596   -0.570827
 O 0.71673 0.60481 0.08542   -0.594414
 O 0.43043 0.7011 0.1415   -0.570864
 O 0.05007 0.48061 0.39519   -0.59442
 O 0.76377 0.4404 0.2989   -0.570766
 O 0.3834 0.08542 0.48061   -0.594381
 O 0.0971 0.1415 0.4404   -0.570827
 O 0.71673 0.39519 0.91458   -0.594414
 O 0.43043 0.2989 0.8585   -0.570864
 O 0.05007 0.51939 0.60481   -0.59442
 O 0.76377 0.5596 0.7011   -0.570766
