{'_ref': 'TBD', '_srcid': 'CAKYAQ_clean', 'submitters': [{'name': 'Dalar Nazarian Jeff Camp and David Sholl', 'email': 'dalar@gatech.edu jcamp6@gatech.edu'}], '_method': 'VASP DFT with PBE;DDEC'}
data_MgH4(C4O3)2
_symmetry_space_group_name_H-M   'P 1'
_cell_length_a   9.58559989
_cell_length_b   10.02630000
_cell_length_c   10.02630020
_cell_angle_alpha   72.85599981
_cell_angle_beta   70.66710045
_cell_angle_gamma   70.66699898
_symmetry_Int_Tables_number   1
_chemical_formula_structural   MgH4(C4O3)2
_chemical_formula_sum   'Mg2 H8 C16 O12'
_cell_volume   839.238611826
_cell_formula_units_Z   2
loop_
 _symmetry_equiv_pos_site_id
 _symmetry_equiv_pos_as_xyz
  1  'x, y, z'
loop_
 _atom_site_label
 _atom_site_fract_x
 _atom_site_fract_y
 _atom_site_fract_z
 _atom_site_charge
 Mg 0.5 0.0 0.0   1.616672
 Mg 0.0 0.0 0.0   1.616659
 H 0.6348 0.6704 0.8666   0.140763
 H 0.1526 0.6612 0.1084   0.402125
 H 0.8652 0.1334 0.3296   0.140763
 H 0.3474 0.8916 0.3388   0.402125
 H 0.3652 0.3296 0.1334   0.140761
 H 0.8474 0.3388 0.8916   0.402125
 H 0.1348 0.8666 0.6704   0.140761
 H 0.6526 0.1084 0.6612   0.402125
 C 0.3428 0.8042 0.9516   0.839782
 C 0.4225 0.6467 0.9777   -0.285281
 C 0.5807 0.6017 0.9197   -0.140833
 C 0.3428 0.542 0.0606   0.334246
 C 0.1572 0.0484 0.1958   0.839779
 C 0.0775 0.0223 0.3533   -0.285251
 C 0.9193 0.0803 0.3983   -0.14086
 C 0.1572 0.9394 0.458   0.334242
 C 0.6572 0.1958 0.0484   0.839783
 C 0.5775 0.3533 0.0223   -0.285287
 C 0.4193 0.3983 0.0803   -0.140813
 C 0.6572 0.458 0.9394   0.334263
 C 0.8428 0.9516 0.8042   0.83978
 C 0.9225 0.9777 0.6467   -0.285257
 C 0.0807 0.9197 0.6017   -0.14084
 C 0.8428 0.0606 0.542   0.33426
 O 0.4198 0.895 0.9026   -0.778067
 O 0.1968 0.8358 0.98   -0.79656
 O 0.189 0.5735 0.1259   -0.524524
 O 0.0802 0.0974 0.105   -0.778066
 O 0.3032 0.02 0.1642   -0.79656
 O 0.311 0.8741 0.4265   -0.524521
 O 0.5802 0.105 0.0974   -0.778067
 O 0.8032 0.1642 0.02   -0.79656
 O 0.811 0.4265 0.8741   -0.524525
 O 0.9198 0.9026 0.895   -0.778066
 O 0.6968 0.98 0.8358   -0.79656
 O 0.689 0.1259 0.5735   -0.524522
