{'_ref': 'TBD', '_srcid': 'CAKYAQ_clean', 'submitters': [{'name': 'Dalar Nazarian Jeff Camp and David Sholl', 'email': 'dalar@gatech.edu jcamp6@gatech.edu'}], '_method': 'VASP DFT with PBE;DDEC'}
data_Zn4H18C36O13
_symmetry_space_group_name_H-M   'P 1'
_cell_length_a   17.22370000
_cell_length_b   17.23440027
_cell_length_c   17.29230000
_cell_angle_alpha   90.54799914
_cell_angle_beta   90.00000000
_cell_angle_gamma   90.00000000
_symmetry_Int_Tables_number   1
_chemical_formula_structural   Zn4H18C36O13
_chemical_formula_sum   'Zn16 H72 C144 O52'
_cell_volume   5132.81397544
_cell_formula_units_Z   4
loop_
 _symmetry_equiv_pos_site_id
 _symmetry_equiv_pos_as_xyz
  1  'x, y, z'
loop_
 _atom_site_label
 _atom_site_fract_x
 _atom_site_fract_y
 _atom_site_fract_z
 _atom_site_charge
 Zn 0.43191 0.1101 0.0755   1.109342
 Zn 0.58555 0.17295 0.9838   1.110721
 Zn 0.42421 0.26246 0.97898   1.055351
 Zn 0.51799 0.26047 0.13403   1.071427
 Zn 0.4366 0.60113 0.4132   1.106308
 Zn 0.34817 0.75707 0.34434   1.112181
 Zn 0.78913 0.32845 0.50658   1.059153
 Zn 0.4446 0.76699 0.49806   1.058896
 Zn 0.93191 0.8899 0.9245   1.109342
 Zn 0.08555 0.82705 0.0162   1.110721
 Zn 0.92421 0.73754 0.02102   1.055351
 Zn 0.01799 0.73953 0.86597   1.071427
 Zn 0.9366 0.39887 0.5868   1.106308
 Zn 0.84817 0.24293 0.65566   1.112181
 Zn 0.28913 0.67155 0.49342   1.059153
 Zn 0.9446 0.23301 0.50194   1.058896
 H 0.6934 0.9729 0.9767   0.104589
 H 0.7434 0.7506 0.1266   0.113122
 H 0.6793 0.6894 0.2207   0.11124
 H 0.5591 0.7148 0.2637   0.099527
 H 0.4829 0.8077 0.2346   0.087237
 H 0.4972 0.9028 0.1536   0.113515
 H 0.6319 0.2074 0.7632   0.103989
 H 0.5618 0.3283 0.5285   0.113219
 H 0.4541 0.3814 0.4868   0.096476
 H 0.3447 0.3979 0.5461   0.073658
 H 0.3065 0.3559 0.656   0.106957
 H 0.3736 0.2966 0.7449   0.107708
 H 0.712 0.2666 0.2781   0.112985
 H 0.9358 0.1141 0.3135   0.117669
 H 0.9934 0.0244 0.2436   0.105552
 H 0.9661 0.9824 0.1286   0.100718
 H 0.8766 0.0179 0.051   0.097978
 H 0.778 0.0991 0.0734   0.105806
 H 0.3993 0.9983 0.2706   0.104497
 H 0.5546 0.9505 0.487   0.105143
 H 0.6495 0.0104 0.5459   0.113547
 H 0.6951 0.1292 0.5224   0.094592
 H 0.6604 0.2082 0.4288   0.096033
 H 0.5694 0.1963 0.3448   0.110947
 H 0.4535 0.4912 0.2151   0.101461
 H 0.3759 0.4774 0.9546   0.114019
 H 0.3323 0.562 0.8698   0.112711
 H 0.287 0.6819 0.8926   0.086018
 H 0.3028 0.7503 0.9955   0.085915
 H 0.3411 0.7195 0.1101   0.118613
 H 0.6587 0.5456 0.4752   0.100886
 H 0.8388 0.5728 0.6781   0.102618
 H 0.8624 0.6639 0.7648   0.103695
 H 0.8054 0.7775 0.7799   0.100934
 H 0.7083 0.8271 0.7147   0.11574
 H 0.6445 0.7766 0.619   0.110976
 H 0.1934 0.0271 0.0233   0.104589
 H 0.2434 0.2494 0.8734   0.113121
 H 0.1793 0.3106 0.7793   0.111239
 H 0.0591 0.2852 0.7363   0.099527
 H 0.9829 0.1923 0.7654   0.087237
 H 0.9972 0.0972 0.8464   0.113515
 H 0.1319 0.7926 0.2368   0.103989
 H 0.0618 0.6717 0.4715   0.113219
 H 0.9541 0.6186 0.5132   0.096476
 H 0.8447 0.6021 0.4539   0.073658
 H 0.8065 0.6441 0.344   0.106957
 H 0.8736 0.7034 0.2551   0.107708
 H 0.212 0.7334 0.7219   0.112985
 H 0.4358 0.8859 0.6865   0.117669
 H 0.4934 0.9756 0.7564   0.105553
 H 0.4661 0.0176 0.8714   0.100718
 H 0.3766 0.9821 0.949   0.097978
 H 0.278 0.9009 0.9266   0.105806
 H 0.8993 0.0017 0.7294   0.104497
 H 0.0546 0.0495 0.513   0.105143
 H 0.1495 0.9896 0.4541   0.113548
 H 0.1951 0.8708 0.4776   0.094592
 H 0.1604 0.7918 0.5712   0.096033
 H 0.0694 0.8037 0.6552   0.110947
 H 0.9535 0.5088 0.7849   0.101461
 H 0.8759 0.5226 0.0454   0.114019
 H 0.8323 0.438 0.1302   0.112711
 H 0.787 0.3181 0.1074   0.086018
 H 0.8028 0.2497 0.0045   0.085916
 H 0.8411 0.2805 0.8899   0.118613
 H 0.1587 0.4544 0.5248   0.100886
 H 0.3388 0.4272 0.3219   0.102618
 H 0.3624 0.3361 0.2352   0.103695
 H 0.3054 0.2225 0.2201   0.100934
 H 0.2083 0.1729 0.2853   0.115741
 H 0.1445 0.2234 0.381   0.110976
 C 0.5495 0.0056 0.0372   0.724016
 C 0.6044 0.9435 0.0514   -0.279471
 C 0.6754 0.9381 0.0134   0.065143
 C 0.7161 0.8716 0.0387   -0.278754
 C 0.6705 0.8354 0.0956   0.080337
 C 0.5982 0.8806 0.1043   0.072312
 C 0.6945 0.7703 0.1387   -0.055214
 C 0.6539 0.731 0.198   -0.1177
 C 0.578 0.7487 0.2266   -0.01999
 C 0.5297 0.8073 0.2077   -0.083912
 C 0.5378 0.8672 0.1549   -0.030942
 C 0.7933 0.8486 0.0084   0.731861
 C 0.4939 0.23 0.8389   0.703247
 C 0.5188 0.2468 0.7584   -0.253598
 C 0.5943 0.2323 0.734   0.061817
 C 0.6061 0.2605 0.6592   -0.268307
 C 0.5354 0.2955 0.6339   0.071772
 C 0.48 0.285 0.6998   0.074632
 C 0.5205 0.3285 0.5632   -0.036806
 C 0.4521 0.362 0.5367   -0.115122
 C 0.3819 0.3707 0.5738   -0.009544
 C 0.3582 0.3462 0.6439   -0.100946
 C 0.4009 0.3084 0.7002   -0.041955
 C 0.6812 0.2591 0.6207   0.714881
 C 0.6704 0.2079 0.1348   0.703959
 C 0.7385 0.1929 0.1858   -0.274656
 C 0.7461 0.2296 0.2581   0.061488
 C 0.8121 0.2028 0.2956   -0.274405
 C 0.8479 0.1473 0.2471   0.084762
 C 0.8004 0.1413 0.1766   0.077802
 C 0.9137 0.104 0.2653   -0.057471
 C 0.9505 0.0475 0.2206   -0.092183
 C 0.9331 0.0208 0.1476   -0.019803
 C 0.8759 0.0415 0.0995   -0.079396
 C 0.8141 0.095 0.1132   -0.042947
 C 0.8324 0.2301 0.3737   0.721681
 C 0.4569 0.1421 0.2355   0.717135
 C 0.472 0.0872 0.3001   -0.278701
 C 0.4375 0.0158 0.3046   0.076362
 C 0.4658 0.973 0.3649   -0.274962
 C 0.521 0.0182 0.4039   0.075855
 C 0.5277 0.0916 0.3597   0.079614
 C 0.5664 0.9988 0.4665   -0.042563
 C 0.6264 0.037 0.5054   -0.113771
 C 0.6559 0.1114 0.4899   -0.024847
 C 0.6329 0.1619 0.4309   -0.087744
 C 0.5764 0.1533 0.3763   -0.051675
 C 0.4391 0.8953 0.3844   0.723169
 C 0.436 0.399 0.0839   0.721458
 C 0.4177 0.4813 0.1011   -0.274096
 C 0.4307 0.5161 0.1734   0.069787
 C 0.4054 0.5923 0.1745   -0.28062
 C 0.4059 0.642 0.2435   0.730304
 C 0.3861 0.5372 0.0514   0.07919
 C 0.3671 0.527 0.9742   -0.040968
 C 0.3365 0.5801 0.9205   -0.110212
 C 0.3112 0.6573 0.9337   -0.009101
 C 0.3186 0.6989 0.9999   -0.107437
 C 0.3447 0.6805 0.0727   -0.040561
 C 0.3763 0.6094 0.097   0.069554
 C 0.5774 0.6824 0.5001   0.687867
 C 0.6495 0.6457 0.5364   -0.255444
 C 0.6778 0.5758 0.5158   0.061481
 C 0.74 0.5542 0.5634   -0.275716
 C 0.7503 0.6124 0.618   0.074545
 C 0.6922 0.6736 0.6006   0.071094
 C 0.8066 0.6159 0.6755   -0.042172
 C 0.8223 0.6744 0.7304   -0.091517
 C 0.7857 0.7464 0.7402   -0.006753
 C 0.7242 0.7779 0.6991   -0.097223
 C 0.684 0.7455 0.6384   -0.044948
 C 0.7819 0.481 0.5566   0.704762
 C 0.0495 0.9944 0.9628   0.724016
 C 0.1044 0.0565 0.9486   -0.279471
 C 0.1754 0.0619 0.9866   0.065143
 C 0.2161 0.1284 0.9613   -0.278754
 C 0.1705 0.1646 0.9044   0.080337
 C 0.0982 0.1194 0.8957   0.072312
 C 0.1945 0.2297 0.8613   -0.055214
 C 0.1539 0.269 0.802   -0.1177
 C 0.078 0.2513 0.7734   -0.01999
 C 0.0297 0.1927 0.7923   -0.083912
 C 0.0378 0.1328 0.8451   -0.030942
 C 0.2933 0.1514 0.9916   0.731861
 C 0.9939 0.77 0.1611   0.703247
 C 0.0188 0.7532 0.2416   -0.253598
 C 0.0943 0.7677 0.266   0.061817
 C 0.1061 0.7395 0.3408   -0.268307
 C 0.0354 0.7045 0.3661   0.071772
 C 0.98 0.715 0.3002   0.074632
 C 0.0205 0.6715 0.4368   -0.036806
 C 0.9521 0.638 0.4633   -0.115122
 C 0.8819 0.6293 0.4262   -0.009544
 C 0.8582 0.6538 0.3561   -0.100946
 C 0.9009 0.6916 0.2998   -0.041955
 C 0.1812 0.7409 0.3793   0.714881
 C 0.1704 0.7921 0.8652   0.703959
 C 0.2385 0.8071 0.8142   -0.274656
 C 0.2461 0.7704 0.7419   0.061488
 C 0.3121 0.7972 0.7044   -0.274405
 C 0.3479 0.8527 0.7529   0.084762
 C 0.3004 0.8587 0.8234   0.077802
 C 0.4137 0.896 0.7347   -0.057471
 C 0.4505 0.9525 0.7794   -0.092183
 C 0.4331 0.9792 0.8524   -0.019803
 C 0.3759 0.9585 0.9005   -0.079396
 C 0.3141 0.905 0.8868   -0.042947
 C 0.3324 0.7699 0.6263   0.721681
 C 0.9569 0.8579 0.7645   0.717135
 C 0.972 0.9128 0.6999   -0.278701
 C 0.9375 0.9842 0.6954   0.076362
 C 0.9658 0.027 0.6351   -0.274962
 C 0.021 0.9818 0.5961   0.075855
 C 0.0277 0.9084 0.6403   0.079614
 C 0.0664 0.0012 0.5335   -0.042563
 C 0.1264 0.963 0.4946   -0.113771
 C 0.1559 0.8886 0.5101   -0.024847
 C 0.1329 0.8381 0.5691   -0.087744
 C 0.0764 0.8467 0.6237   -0.051675
 C 0.9391 0.1047 0.6156   0.723168
 C 0.936 0.601 0.9161   0.721458
 C 0.9177 0.5187 0.8989   -0.274097
 C 0.9307 0.4839 0.8266   0.069786
 C 0.9054 0.4077 0.8255   -0.28062
 C 0.9059 0.358 0.7565   0.730304
 C 0.8861 0.4628 0.9486   0.07919
 C 0.8671 0.473 0.0258   -0.040968
 C 0.8365 0.4199 0.0795   -0.110212
 C 0.8112 0.3427 0.0663   -0.009101
 C 0.8186 0.3011 0.000100000000003   -0.107437
 C 0.8447 0.3195 0.9273   -0.040561
 C 0.8763 0.3906 0.903   0.069555
 C 0.0774 0.3176 0.4999   0.687867
 C 0.1495 0.3543 0.4636   -0.255444
 C 0.1778 0.4242 0.4842   0.061481
 C 0.24 0.4458 0.4366   -0.275716
 C 0.2503 0.3876 0.382   0.074545
 C 0.1922 0.3264 0.3994   0.071094
 C 0.3066 0.3841 0.3245   -0.042172
 C 0.3223 0.3256 0.2696   -0.091517
 C 0.2857 0.2536 0.2598   -0.006753
 C 0.2242 0.2221 0.3009   -0.097223
 C 0.184 0.2545 0.3616   -0.044948
 C 0.2819 0.519 0.4434   0.704762
 O 0.4886 0.1998 0.045   -1.21852
 O 0.4892 0.0126 0.0808   -0.609539
 O 0.5653 0.0531 0.9843   -0.6543
 O 0.8296 0.9012 0.9723   -0.625751
 O 0.8182 0.7814 0.0193   -0.615625
 O 0.5246 0.1765 0.8745   -0.608691
 O 0.4414 0.2766 0.8683   -0.602195
 O 0.7364 0.2246 0.6587   -0.649782
 O 0.6912 0.2928 0.5582   -0.597839
 O 0.6574 0.163 0.0793   -0.602321
 O 0.6293 0.2674 0.154   -0.616667
 O 0.8911 0.2008 0.4064   -0.605018
 O 0.7893 0.2823 0.4032   -0.626696
 O 0.4954 0.2045 0.2307   -0.617745
 O 0.4072 0.1209 0.1869   -0.637149
 O 0.4641 0.8653 0.4468   -0.624036
 O 0.3918 0.8622 0.3383   -0.623495
 O 0.4731 0.364 0.1363   -0.622592
 O 0.4139 0.3692 0.0208   -0.606821
 O 0.4502 0.6228 0.2963   -0.630923
 O 0.362 0.7024 0.2442   -0.61094
 O 0.3797 0.7016 0.435   -1.21734
 O 0.544 0.7371 0.5384   -0.571608
 O 0.5522 0.652 0.4385   -0.623599
 O 0.8345 0.4632 0.6041   -0.622035
 O 0.759 0.437 0.5017   -0.600179
 O 0.9886 0.8002 0.955   -1.21852
 O 0.9892 0.9874 0.9192   -0.609539
 O 0.0653 0.9469 0.0157   -0.6543
 O 0.3296 0.0988 0.0277   -0.625751
 O 0.3182 0.2186 0.9807   -0.615625
 O 0.0246 0.8235 0.1255   -0.608691
 O 0.9414 0.7234 0.1317   -0.602195
 O 0.2364 0.7754 0.3413   -0.649782
 O 0.1912 0.7072 0.4418   -0.597839
 O 0.1574 0.837 0.9207   -0.602321
 O 0.1293 0.7326 0.846   -0.616667
 O 0.3911 0.7992 0.5936   -0.605018
 O 0.2893 0.7177 0.5968   -0.626696
 O 0.9954 0.7955 0.7693   -0.617745
 O 0.9072 0.8791 0.8131   -0.637149
 O 0.9641 0.1347 0.5532   -0.624035
 O 0.8918 0.1378 0.6617   -0.623495
 O 0.9731 0.636 0.8637   -0.622592
 O 0.9139 0.6308 0.9792   -0.606821
 O 0.9502 0.3772 0.7037   -0.630923
 O 0.862 0.2976 0.7558   -0.61094
 O 0.8797 0.2984 0.565   -1.21734
 O 0.044 0.2629 0.4616   -0.571608
 O 0.0522 0.348 0.5615   -0.623599
 O 0.3345 0.5368 0.3959   -0.622035
 O 0.259 0.563 0.4983   -0.600179
