{'_ref': 'TBD', '_srcid': 'CAKYAQ_clean', 'submitters': [{'name': 'Dalar Nazarian Jeff Camp and David Sholl', 'email': 'dalar@gatech.edu jcamp6@gatech.edu'}], '_method': 'VASP DFT with PBE;DDEC'}
data_DyCuH32C48(NO2)4
_symmetry_space_group_name_H-M   'P 1'
_cell_length_a   16.04299986
_cell_length_b   19.72270000
_cell_length_c   19.72270006
_cell_angle_alpha   80.47849870
_cell_angle_beta   66.00129958
_cell_angle_gamma   66.00139919
_symmetry_Int_Tables_number   1
_chemical_formula_structural   DyCuH32C48(NO2)4
_chemical_formula_sum   'Dy4 Cu4 H128 C192 N16 O32'
_cell_volume   5208.20117517
_cell_formula_units_Z   4
loop_
 _symmetry_equiv_pos_site_id
 _symmetry_equiv_pos_as_xyz
  1  'x, y, z'
loop_
 _atom_site_label
 _atom_site_fract_x
 _atom_site_fract_y
 _atom_site_fract_z
 _atom_site_charge
 Dy 0.95911 0.88457 0.70162   2.170743
 Dy 0.54529 0.11544 0.29838   2.171532
 Dy 0.15633 0.29838 0.88456   2.171111
 Dy 0.33926 0.70163 0.11544   2.170736
 Cu 0.6127 0.18723 0.59071   0.291191
 Cu 0.39064 0.81277 0.40929   0.290777
 Cu 0.20007 0.40929 0.18723   0.290981
 Cu 0.79659 0.59071 0.81277   0.29055
 H 0.1195 0.0678 0.5826   0.093207
 H 0.2385 0.1159 0.5571   0.093034
 H 0.2235 0.924 0.7248   0.114765
 H 0.3364 0.9737 0.7025   0.098303
 H 0.415 0.1025 0.5057   0.127083
 H 0.5342 0.1448 0.4928   0.086493
 H 0.3593 0.0795 0.7241   0.131554
 H 0.4745 0.1277 0.7045   0.060821
 H 0.843 0.7677 0.5847   0.078238
 H 0.7343 0.7531 0.5463   0.093921
 H 0.6835 0.9846 0.6146   0.09647
 H 0.5724 0.9715 0.5753   0.082576
 H 0.5707 0.7538 0.577   0.125644
 H 0.4656 0.7423 0.5315   0.074437
 H 0.5399 0.9499 0.4767   0.136003
 H 0.4314 0.9362 0.4366   0.078226
 H 0.1107 0.6288 0.7596   0.086354
 H 0.2196 0.5059 0.7369   0.117773
 H 0.2761 0.6879 0.5633   0.096027
 H 0.3835 0.567 0.5422   0.073477
 H 0.2865 0.3992 0.652   0.130071
 H 0.4006 0.2785 0.6275   0.068277
 H 0.5113 0.4655 0.5907   0.125151
 H 0.6165 0.3449 0.5735   0.06448
 H 0.8275 0.9214 0.9646   0.110194
 H 0.7325 0.9122 0.0882   0.117203
 H 0.6875 0.8325 0.9051   0.073966
 H 0.6055 0.8109 0.0283   0.105408
 H 0.5737 0.9464 0.1906   0.128273
 H 0.4817 0.9271 0.3097   0.067939
 H 0.6182 0.7425 0.1421   0.111654
 H 0.5227 0.7298 0.2626   0.05655
 H 0.7699 0.9322 0.4174   0.094246
 H 0.9115 0.8841 0.4429   0.093127
 H 0.8723 0.076 0.2752   0.113847
 H 0.0126 0.0263 0.2975   0.099363
 H 0.0232 0.8975 0.4943   0.126561
 H 0.1718 0.8552 0.5072   0.085627
 H 0.1629 0.9205 0.2759   0.130869
 H 0.3067 0.8723 0.2955   0.06221
 H 0.1954 0.2323 0.4153   0.078756
 H 0.0337 0.2469 0.4537   0.094071
 H 0.2827 0.0154 0.3854   0.096579
 H 0.1192 0.0285 0.4247   0.082837
 H 0.9015 0.2462 0.423   0.125326
 H 0.7394 0.2577 0.4685   0.073181
 H 0.9665 0.0501 0.5233   0.136056
 H 0.8042 0.0638 0.5634   0.077759
 H 0.4991 0.3712 0.2404   0.086304
 H 0.4624 0.4941 0.2631   0.117174
 H 0.5273 0.3121 0.4367   0.096019
 H 0.4927 0.433 0.4578   0.073054
 H 0.3377 0.6008 0.348   0.129869
 H 0.3066 0.7215 0.3725   0.068881
 H 0.5675 0.5345 0.4093   0.125139
 H 0.5349 0.6551 0.4265   0.063848
 H 0.7135 0.0786 0.0354   0.111081
 H 0.7329 0.0878 0.9118   0.118042
 H 0.4251 0.1675 0.0949   0.07537
 H 0.4447 0.1891 0.9717   0.106202
 H 0.7107 0.0536 0.8094   0.128189
 H 0.7185 0.0729 0.6903   0.068059
 H 0.5028 0.2575 0.8579   0.111578
 H 0.5151 0.2702 0.7374   0.056423
 H 0.8127 0.4174 0.0678   0.092844
 H 0.6456 0.4429 0.1159   0.093131
 H 0.8525 0.2752 0.924   0.113531
 H 0.6899 0.2975 0.9737   0.099395
 H 0.4825 0.4943 0.1025   0.126664
 H 0.321 0.5072 0.1448   0.085643
 H 0.5612 0.2759 0.0795   0.130683
 H 0.3978 0.2955 0.1277   0.062635
 H 0.3893 0.4153 0.7677   0.076959
 H 0.5126 0.4537 0.7531   0.094199
 H 0.3319 0.3854 0.9846   0.096798
 H 0.4561 0.4247 0.9715   0.083742
 H 0.6755 0.423 0.7538   0.124983
 H 0.7921 0.4685 0.7423   0.073983
 H 0.5102 0.5233 0.9499   0.136771
 H 0.6324 0.5634 0.9362   0.078825
 H 0.2605 0.2404 0.6288   0.086199
 H 0.2745 0.2631 0.5059   0.117246
 H 0.036 0.4367 0.6879   0.095636
 H 0.0495 0.4578 0.567   0.072317
 H 0.3143 0.348 0.3992   0.128935
 H 0.3209 0.3725 0.2785   0.068844
 H 0.0232 0.4093 0.4655   0.125491
 H 0.0386 0.4265 0.3449   0.064113
 H 0.2511 0.0354 0.9214   0.110193
 H 0.3553 0.9118 0.9122   0.117841
 H 0.48 0.0949 0.8325   0.076254
 H 0.5836 0.9717 0.8109   0.105536
 H 0.4799 0.8094 0.9464   0.128656
 H 0.5912 0.6903 0.9271   0.068278
 H 0.6393 0.8579 0.7425   0.111661
 H 0.7475 0.7374 0.7298   0.056806
 H 0.2979 0.5826 0.9322   0.093257
 H 0.2044 0.5571 0.8841   0.093653
 H 0.0517 0.7248 0.076   0.113271
 H 0.9611 0.7025 0.0263   0.099387
 H 0.0793 0.5057 0.8975   0.126903
 H 0.973 0.4928 0.8552   0.086492
 H 0.9166 0.7241 0.9205   0.131039
 H 0.821 0.7045 0.8723   0.062021
 H 0.5723 0.5847 0.2323   0.07772
 H 0.7194 0.5463 0.2469   0.093942
 H 0.7019 0.6146 0.0154   0.096972
 H 0.8523 0.5753 0.0285   0.082819
 H 0.8523 0.577 0.2462   0.125857
 H 0.0029 0.5315 0.2577   0.073358
 H 0.9834 0.4767 0.0501   0.136292
 H 0.132 0.4366 0.0638   0.078542
 H 0.1297 0.7596 0.3712   0.086868
 H 0.0435 0.7369 0.4941   0.117787
 H 0.1606 0.5633 0.3121   0.096078
 H 0.0743 0.5422 0.433   0.072714
 H 0.0615 0.652 0.6008   0.129537
 H 0.9719 0.6275 0.7215   0.068394
 H 0.898 0.5907 0.5345   0.124542
 H 0.81 0.5735 0.6551   0.064201
 H 0.2079 0.9646 0.0786   0.112362
 H 0.1793 0.0882 0.0878   0.117855
 H 0.4074 0.9051 0.1675   0.074936
 H 0.3662 0.0283 0.1891   0.106405
 H 0.2357 0.1906 0.0536   0.128725
 H 0.2086 0.3097 0.0729   0.068822
 H 0.2397 0.1421 0.2575   0.111862
 H 0.2147 0.2626 0.2702   0.057462
 C 0.0834 0.9568 0.6718   0.673299
 C 0.1605 0.9895 0.6535   -0.110533
 C 0.1645 0.0478 0.6058   -0.035338
 C 0.235 0.0777 0.5915   -0.129381
 C 0.2262 0.9626 0.691   -0.033836
 C 0.2931 0.9928 0.6776   -0.127576
 C 0.3003 0.0512 0.6282   0.029856
 C 0.3732 0.0829 0.6173   0.108732
 C 0.42747 0.10516 0.5471   -0.193232
 C 0.4993 0.1309 0.5397   0.146914
 C 0.3935 0.092 0.6762   -0.185907
 C 0.465 0.12 0.6634   0.159029
 C 0.8495 0.8842 0.6252   0.668814
 C 0.77534 0.87803 0.60109   -0.124079
 C 0.7887 0.8088 0.5822   -0.023423
 C 0.7231 0.7999 0.5599   -0.138628
 C 0.6941 0.9383 0.6001   -0.029482
 C 0.6266 0.93 0.5772   -0.1104
 C 0.6392 0.8607 0.5573   0.034748
 C 0.5681 0.85294 0.53206   0.109801
 C 0.5444 0.7914 0.5476   -0.215694
 C 0.4809 0.7846 0.5196   0.132004
 C 0.5257 0.9072 0.4888   -0.176886
 C 0.4615 0.8979 0.4635   0.156287
 C 0.1078 0.7481 0.6775   0.662698
 C 0.1808 0.6708 0.6634   -0.118198
 C 0.1655 0.6162 0.7154   -0.022223
 C 0.2314 0.5425 0.7023   -0.139775
 C 0.2641 0.6518 0.5984   -0.033356
 C 0.3286 0.5793 0.5863   -0.140504
 C 0.3145 0.5242 0.6374   0.036133
 C 0.3855 0.4462 0.6234   0.11931
 C 0.3535 0.3897 0.6349   -0.175792
 C 0.4233 0.3167 0.6205   0.166671
 C 0.4867 0.4282 0.5992   -0.208548
 C 0.5495 0.3556 0.5882   0.138341
 C 0.8186 0.8941 0.8417   0.666664
 C 0.7631 0.8831 0.9227   -0.117711
 C 0.779 0.9021 0.9769   -0.030176
 C 0.7247 0.8938 0.0516   -0.132766
 C 0.6981 0.8479 0.9419   -0.034962
 C 0.6482 0.8356 0.016   -0.138306
 C 0.6606 0.8593 0.0711   0.043542
 C 0.6057 0.8471 0.1503   0.111848
 C 0.5642 0.9017 0.2035   -0.18606
 C 0.5088 0.8896 0.2752   0.156105
 C 0.59 0.7816 0.175   -0.188685
 C 0.5329 0.774 0.248   0.160676
 C 0.712 0.0432 0.3282   0.674756
 C 0.8035 0.0105 0.3465   -0.111612
 C 0.8181 0.9522 0.3942   -0.037497
 C 0.9042 0.9223 0.4085   -0.12863
 C 0.8798 0.0374 0.309   -0.029856
 C 0.9635 0.0072 0.3224   -0.130233
 C 0.9797 0.9488 0.3718   0.030146
 C 0.0734 0.9171 0.3827   0.106644
 C 0.07973 0.89484 0.4529   -0.192248
 C 0.1699 0.8691 0.4603   0.147815
 C 0.1617 0.908 0.3238   -0.182971
 C 0.2484 0.88 0.3366   0.155966
 C 0.3589 0.1158 0.3748   0.667715
 C 0.25446 0.12197 0.39891   -0.12072
 C 0.1797 0.1912 0.4178   -0.025834
 C 0.0829 0.2001 0.4401   -0.138069
 C 0.2325 0.0617 0.3999   -0.030554
 C 0.1338 0.07 0.4228   -0.110579
 C 0.0572 0.1393 0.4427   0.03475
 C 0.9531 0.14706 0.46794   0.110084
 C 0.8834 0.2086 0.4524   -0.215806
 C 0.7851 0.2154 0.4804   0.13404
 C 0.9217 0.0928 0.5112   -0.177221
 C 0.8229 0.1021 0.5365   0.157085
 C 0.5334 0.2519 0.3225   0.663204
 C 0.515 0.3292 0.3366   -0.120534
 C 0.4971 0.3838 0.2846   -0.021329
 C 0.4762 0.4575 0.2977   -0.138612
 C 0.5143 0.3482 0.4016   -0.032279
 C 0.4942 0.4207 0.4137   -0.139273
 C 0.4761 0.4758 0.3626   0.03408
 C 0.4551 0.5538 0.3766   0.121264
 C 0.3781 0.6103 0.3651   -0.176435
 C 0.3605 0.6833 0.3795   0.165708
 C 0.5141 0.5718 0.4008   -0.209555
 C 0.4933 0.6444 0.4118   0.139604
 C 0.5544 0.1059 0.1583   0.664916
 C 0.5689 0.1169 0.0773   -0.117304
 C 0.658 0.0979 0.0231   -0.031354
 C 0.6701 0.1062 0.9484   -0.134027
 C 0.4879 0.1521 0.0581   -0.036042
 C 0.4998 0.1644 0.984   -0.138529
 C 0.591 0.1407 0.9289   0.043298
 C 0.6031 0.1529 0.8497   0.110706
 C 0.6694 0.0983 0.7965   -0.185791
 C 0.6736 0.1104 0.7248   0.155806
 C 0.5466 0.2184 0.825   -0.187551
 C 0.5549 0.226 0.752   0.160624
 C 0.9598 0.3282 0.9568   0.674901
 C 0.85 0.3465 0.9895   -0.111297
 C 0.7877 0.3942 0.0478   -0.035675
 C 0.6873 0.4085 0.0777   -0.130172
 C 0.8112 0.309 0.9626   -0.029885
 C 0.7141 0.3224 0.9928   -0.131109
 C 0.6485 0.3718 0.0512   0.032435
 C 0.5439 0.3827 0.0829   0.107174
 C 0.46737 0.4529 0.10516   -0.193912
 C 0.3698 0.4603 0.1309   0.149571
 C 0.5145 0.3238 0.092   -0.183004
 C 0.415 0.3366 0.12   0.155617
 C 0.2663 0.3748 0.8842   0.667801
 C 0.34663 0.39891 0.87803   -0.121862
 C 0.4025 0.4178 0.8088   -0.022791
 C 0.477 0.4401 0.7999   -0.139014
 C 0.3676 0.3999 0.9383   -0.030633
 C 0.4434 0.4228 0.93   -0.112286
 C 0.5001 0.4427 0.8607   0.035507
 C 0.57896 0.46794 0.85294   0.109047
 C 0.6642 0.4524 0.7914   -0.214371
 C 0.7345 0.4804 0.7846   0.131534
 C 0.5671 0.5112 0.9072   -0.177088
 C 0.6406 0.5365 0.8979   0.155623
 C 0.1441 0.3225 0.7481   0.661836
 C 0.1484 0.3366 0.6708   -0.117902
 C 0.2183 0.2846 0.6162   -0.022803
 C 0.2261 0.2977 0.5425   -0.13895
 C 0.0841 0.4016 0.6518   -0.032982
 C 0.0921 0.4137 0.5793   -0.13769
 C 0.1613 0.3626 0.5242   0.035032
 C 0.1683 0.3766 0.4462   0.119393
 C 0.2568 0.3651 0.3897   -0.17435
 C 0.26 0.3795 0.3167   0.166429
 C 0.0851 0.4008 0.4282   -0.209872
 C 0.0949 0.4118 0.3556   0.139265
 C 0.2873 0.1583 0.8941   0.66459
 C 0.3538 0.0773 0.8831   -0.115855
 C 0.3189 0.0231 0.9021   -0.030338
 C 0.3815 0.9484 0.8938   -0.133521
 C 0.454 0.0581 0.8479   -0.038808
 C 0.5162 0.984 0.8356   -0.137108
 C 0.4801 0.9289 0.8593   0.042529
 C 0.5472 0.8497 0.8471   0.111681
 C 0.5341 0.7965 0.9017   -0.186242
 C 0.6016 0.7248 0.8896   0.155355
 C 0.6284 0.825 0.7816   -0.188495
 C 0.6931 0.752 0.774   0.160703
 C 0.2448 0.6718 0.0432   0.674609
 C 0.186 0.6535 0.0105   -0.112504
 C 0.2297 0.6058 0.9522   -0.03562
 C 0.1735 0.5915 0.9223   -0.130203
 C 0.0828 0.691 0.0374   -0.028346
 C 0.0293 0.6776 0.0072   -0.131552
 C 0.0715 0.6282 0.9488   0.030902
 C 0.0095 0.6173 0.9171   0.107198
 C 0.02543 0.5471 0.89484   -0.192904
 C 0.961 0.5397 0.8691   0.147196
 C 0.9303 0.6762 0.908   -0.182188
 C 0.8716 0.6634 0.88   0.155293
 C 0.5253 0.6252 0.1158   0.666552
 C 0.62357 0.60109 0.12197   -0.122733
 C 0.6291 0.5822 0.1912   -0.022975
 C 0.717 0.5599 0.2001   -0.138364
 C 0.7058 0.6001 0.0617   -0.030056
 C 0.7962 0.5772 0.07   -0.11099
 C 0.8035 0.5573 0.1393   0.034864
 C 0.89984 0.53206 0.14706   0.10991
 C 0.908 0.5476 0.2086   -0.216162
 C 0.9995 0.5196 0.2154   0.133563
 C 0.9855 0.4888 0.0928   -0.177347
 C 0.075 0.4635 0.1021   0.156146
 C 0.2147 0.6775 0.2519   0.664086
 C 0.1558 0.6634 0.3292   -0.117966
 C 0.1191 0.7154 0.3838   -0.02328
 C 0.0663 0.7023 0.4575   -0.139601
 C 0.1375 0.5984 0.3482   -0.033688
 C 0.0851 0.5863 0.4207   -0.138216
 C 0.0481 0.6374 0.4758   0.03457
 C 0.9911 0.6234 0.5538   0.119876
 C 0.0116 0.6349 0.6103   -0.175409
 C 0.9562 0.6205 0.6833   0.166249
 C 0.9141 0.5992 0.5718   -0.208154
 C 0.8623 0.5882 0.6444   0.138882
 C 0.3397 0.8417 0.1059   0.665054
 C 0.3142 0.9227 0.1169   -0.116811
 C 0.2441 0.9769 0.0979   -0.033637
 C 0.2237 0.0516 0.1062   -0.132845
 C 0.36 0.9419 0.1521   -0.035079
 C 0.3358 0.016 0.1644   -0.140112
 C 0.2683 0.0711 0.1407   0.043623
 C 0.244 0.1503 0.1529   0.111466
 C 0.2323 0.2035 0.0983   -0.186584
 C 0.216 0.2752 0.1104   0.155263
 C 0.235 0.175 0.2184   -0.188252
 C 0.2191 0.248 0.226   0.159984
 N 0.52102 0.13686 0.5973   -0.299931
 N 0.44104 0.8361 0.47622   -0.298968
 N 0.52069 0.29866 0.59716   -0.289948
 N 0.4916 0.82702 0.29858   -0.317079
 N 0.25518 0.86314 0.4027   -0.299406
 N 0.75336 0.1639 0.52378   -0.299612
 N 0.41651 0.70134 0.40284   -0.289728
 N 0.6172 0.17298 0.70142   -0.316946
 N 0.34212 0.4027 0.13686   -0.300368
 N 0.72286 0.52378 0.8361   -0.298262
 N 0.18065 0.40284 0.29866   -0.290447
 N 0.68138 0.70142 0.82702   -0.316864
 N 0.88168 0.5973 0.86314   -0.299659
 N 0.08274 0.47622 0.1639   -0.299346
 N 0.88215 0.59716 0.70134   -0.289598
 N 0.20982 0.29858 0.17298   -0.317539
 O 0.07519 0.91125 0.72477   -0.675787
 O 0.0296 0.97381 0.63519   -0.720987
 O 0.83718 0.9465 0.64594   -0.708573
 O 0.92137 0.82823 0.62643   -0.682339
 O 0.11522 0.7965 0.62626   -0.680947
 O 0.03561 0.76443 0.73935   -0.681772
 O 0.8168 0.8624 0.7936   -0.675928
 O 0.87101 0.93299 0.82399   -0.7133
 O 0.71121 0.08875 0.27523   -0.676224
 O 0.6386 0.02619 0.36481   -0.722058
 O 0.42962 0.0535 0.35406   -0.708188
 O 0.37603 0.17177 0.37357   -0.68295
 O 0.53798 0.2035 0.37374   -0.680937
 O 0.53939 0.23557 0.26065   -0.681813
 O 0.4728 0.1376 0.2064   -0.676011
 O 0.62799 0.06701 0.17601   -0.711895
 O 0.01356 0.27523 0.91125   -0.67634
 O 0.99659 0.36481 0.97381   -0.722147
 O 0.21632 0.35406 0.9465   -0.708487
 O 0.2504 0.37357 0.82823   -0.682222
 O 0.08828 0.37374 0.7965   -0.680479
 O 0.19996 0.26065 0.76443   -0.681548
 O 0.3208 0.2064 0.8624   -0.676097
 O 0.196 0.17601 0.93299   -0.711489
 O 0.20004 0.72477 0.08875   -0.676521
 O 0.33521 0.63519 0.02619   -0.721467
 O 0.51688 0.64594 0.0535   -0.707864
 O 0.4522 0.62643 0.17177   -0.681735
 O 0.25852 0.62626 0.2035   -0.681413
 O 0.22504 0.73935 0.23557   -0.682543
 O 0.3896 0.7936 0.1376   -0.67599
 O 0.305 0.82399 0.06701   -0.711455
