{'_ref': 'TBD', '_srcid': 'CAKYAQ_clean', 'submitters': [{'name': 'Dalar Nazarian Jeff Camp and David Sholl', 'email': 'dalar@gatech.edu jcamp6@gatech.edu'}], '_method': 'VASP DFT with PBE;DDEC'}
data_Al4P4O16F
_symmetry_space_group_name_H-M   'P 1'
_cell_length_a   10.37380000
_cell_length_b   13.44939991
_cell_length_c   14.80600000
_cell_angle_alpha   90.00000000
_cell_angle_beta   90.00000000
_cell_angle_gamma   90.27499899
_symmetry_Int_Tables_number   1
_chemical_formula_structural   Al4P4O16F
_chemical_formula_sum   'Al16 P16 O64 F4'
_cell_volume   2065.72982983
_cell_formula_units_Z   4
loop_
 _symmetry_equiv_pos_site_id
 _symmetry_equiv_pos_as_xyz
  1  'x, y, z'
loop_
 _atom_site_label
 _atom_site_fract_x
 _atom_site_fract_y
 _atom_site_fract_z
 _atom_site_charge
 Al 0.2345 0.6508 0.8947   1.959143
 Al 0.2296 0.387 0.1006   2.012454
 Al 0.5075 0.7278 0.1041   2.03014
 Al 0.0022 0.3842 0.768   2.001893
 Al 0.2655 0.8492 0.3947   1.959143
 Al 0.2704 0.113 0.6006   2.012453
 Al 0.9925 0.7722 0.6041   2.03014
 Al 0.4978 0.1158 0.268   2.001892
 Al 0.7655 0.3492 0.1053   1.959141
 Al 0.7704 0.613 0.8994   2.012452
 Al 0.4925 0.2722 0.8959   2.030139
 Al 0.9978 0.6158 0.232   2.001892
 Al 0.7345 0.1508 0.6053   1.959141
 Al 0.7296 0.887 0.3994   2.012451
 Al 0.0075 0.2278 0.3959   2.030138
 Al 0.5022 0.8842 0.732   2.001891
 P 0.2327 0.6198 0.1045   2.088735
 P 0.2408 0.4027 0.8921   2.050272
 P 0.5142 0.7353 0.8942   2.077532
 P 0.000500000000002 0.6216 0.765   2.071065
 P 0.2673 0.8802 0.6045   2.088735
 P 0.2592 0.0973 0.3921   2.050272
 P 0.9858 0.7647 0.3942   2.077532
 P 0.4995 0.8784 0.265   2.071065
 P 0.7673 0.3802 0.8955   2.088735
 P 0.7592 0.5973 0.1079   2.050272
 P 0.4858 0.2647 0.1058   2.077532
 P 0.9995 0.3784 0.235   2.071065
 P 0.7327 0.1198 0.3955   2.088734
 P 0.7408 0.9027 0.6079   2.050271
 P 0.0142 0.2353 0.6058   2.077532
 P 0.5005 0.1216 0.735   2.071064
 O 0.1438 0.3569 0.8252   -0.973047
 O 0.1963 0.3689 0.9869   -1.00435
 O 0.2475 0.5131 0.8832   -0.92891
 O 0.4046 0.6635 0.8783   -0.969866
 O 0.5022 0.8287 0.837   -0.971173
 O 0.5213 0.7687 0.9931   -1.016363
 O 0.6398 0.6837 0.868   -0.998722
 O 0.9015 0.6525 0.8362   -1.005658
 O 0.9892 0.5099 0.7484   -1.01452
 O 0.9699 0.6725 0.6755   -0.97473
 O 0.1341 0.6514 0.7962   -0.913184
 O 0.2625 0.5103 0.1233   -1.02403
 O 0.1823 0.634 0.0098   -0.950252
 O 0.131 0.6563 0.1714   -0.97996
 O 0.3557 0.6794 0.1213   -1.017125
 O 0.3736 0.3583 0.8733   -1.006167
 O 0.3562 0.1431 0.3252   -0.973047
 O 0.3037 0.1311 0.4869   -1.00435
 O 0.2525 0.9869 0.3832   -0.92891
 O 0.0954 0.8365 0.3783   -0.969866
 O 0.9978 0.6713 0.337   -0.971173
 O 0.9787 0.7313 0.4931   -1.016363
 O 0.8602 0.8163 0.368   -0.998722
 O 0.5985 0.8475 0.3362   -1.005658
 O 0.5108 0.9901 0.2484   -1.01452
 O 0.5301 0.8275 0.1755   -0.97473
 O 0.3659 0.8486 0.2962   -0.913184
 O 0.2375 0.9897 0.6233   -1.02403
 O 0.3177 0.866 0.5098   -0.950252
 O 0.369 0.8437 0.6714   -0.97996
 O 0.1443 0.8206 0.6213   -1.017125
 O 0.1264 0.1417 0.3733   -1.006167
 O 0.8562 0.6431 0.1748   -0.973047
 O 0.8037 0.6311 0.0131   -1.00435
 O 0.7525 0.4869 0.1168   -0.92891
 O 0.5954 0.3365 0.1217   -0.969866
 O 0.4978 0.1713 0.163   -0.971173
 O 0.4787 0.2313 0.0069   -1.016363
 O 0.3602 0.3163 0.132   -0.998722
 O 0.0985 0.3475 0.1638   -1.005658
 O 0.0108 0.4901 0.2516   -1.01452
 O 0.0301 0.3275 0.3245   -0.97473
 O 0.8659 0.3486 0.2038   -0.913184
 O 0.7375 0.4897 0.8767   -1.02403
 O 0.8177 0.366 0.9902   -0.950252
 O 0.869 0.3437 0.8286   -0.979961
 O 0.6443 0.3206 0.8787   -1.017125
 O 0.6264 0.6417 0.1267   -1.006167
 O 0.6438 0.8569 0.6748   -0.973047
 O 0.6963 0.8689 0.5131   -1.00435
 O 0.7475 0.0131 0.6168   -0.92891
 O 0.9046 0.1635 0.6217   -0.969866
 O 0.0022 0.3287 0.663   -0.971173
 O 0.0213 0.2687 0.5069   -1.016363
 O 0.1398 0.1837 0.632   -0.998722
 O 0.4015 0.1525 0.6638   -1.005658
 O 0.4892 0.0099 0.7516   -1.014519
 O 0.4699 0.1725 0.8245   -0.97473
 O 0.6341 0.1514 0.7038   -0.913184
 O 0.7625 0.0103 0.3767   -1.024029
 O 0.6823 0.134 0.4902   -0.950252
 O 0.631 0.1563 0.3286   -0.97996
 O 0.8557 0.1794 0.3787   -1.017125
 O 0.8736 0.8583 0.6267   -1.006167
 F 0.2091 0.7796 0.9083   -0.54317
 F 0.2909 0.7204 0.4083   -0.54317
 F 0.7909 0.2204 0.0917   -0.543171
 F 0.7091 0.2796 0.5917   -0.543171
