{'_ref': 'TBD', '_srcid': 'CAKYAQ_clean', 'submitters': [{'name': 'Dalar Nazarian Jeff Camp and David Sholl', 'email': 'dalar@gatech.edu jcamp6@gatech.edu'}], '_method': 'VASP DFT with PBE;DDEC'}
data_MnH14C15N3O4
_symmetry_space_group_name_H-M   'P 1'
_cell_length_a   10.01599987
_cell_length_b   21.93399968
_cell_length_c   21.93400000
_cell_angle_alpha   87.01179930
_cell_angle_beta   76.80179963
_cell_angle_gamma   76.80170061
_symmetry_Int_Tables_number   1
_chemical_formula_structural   MnH14C15N3O4
_chemical_formula_sum   'Mn8 H112 C120 N24 O32'
_cell_volume   4567.49955117
_cell_formula_units_Z   8
loop_
 _symmetry_equiv_pos_site_id
 _symmetry_equiv_pos_as_xyz
  1  'x, y, z'
loop_
 _atom_site_label
 _atom_site_fract_x
 _atom_site_fract_y
 _atom_site_fract_z
 _atom_site_charge
 Mn 0.97595 0.56637 0.52863   1.024194
 Mn 0.57095 0.93363 0.97138   1.024502
 Mn 0.50458 0.47138 0.06636   1.024261
 Mn 0.54233 0.02862 0.43363   1.026759
 Mn 0.02405 0.43363 0.47137   1.024161
 Mn 0.42905 0.06637 0.02862   1.024511
 Mn 0.49542 0.52862 0.93364   1.024233
 Mn 0.45768 0.97138 0.56636   1.026831
 H 0.2437 0.6569 0.2629   0.092554
 H 0.2866 0.7081 0.2995   0.054269
 H 0.3901 0.6408 0.2844   0.070887
 H 0.4407 0.6852 0.3638   0.108291
 H 0.5191 0.6943 0.4551   0.096421
 H 0.4017 0.6622 0.5498   0.089702
 H 0.2132 0.6268 0.612   0.098118
 H 0.8714 0.6171 0.7641   0.131803
 H 0.7311 0.6027 0.8607   0.077611
 H 0.609 0.4667 0.7955   0.071544
 H 0.7403 0.4787 0.6961   0.134621
 H 0.7185 0.5137 0.4567   0.057416
 H 0.7022 0.5243 0.5299   0.054706
 H 0.7012 0.5825 0.4829   0.041078
 H 0.6635 0.8431 0.2371   0.091988
 H 0.7942 0.7919 0.2005   0.05509
 H 0.8153 0.8592 0.2156   0.072194
 H 0.9897 0.8148 0.1362   0.110032
 H 0.1685 0.8057 0.0449   0.097496
 H 0.1137 0.8378 0.9502   0.090229
 H 0.952 0.8732 0.888   0.097304
 H 0.7526 0.8829 0.7359   0.132442
 H 0.6945 0.8973 0.6393   0.077295
 H 0.3712 0.0333 0.7045   0.072914
 H 0.4151 0.0213 0.8039   0.136237
 H 0.1889 0.9863 0.0433   0.058056
 H 0.2564 0.9757 0.9701   0.054757
 H 0.2666 0.9175 0.0171   0.042552
 H 0.5066 0.7371 0.1569   0.092376
 H 0.5861 0.7005 0.2081   0.054174
 H 0.6745 0.7156 0.1408   0.070908
 H 0.8045 0.6362 0.1852   0.108269
 H 0.9742 0.5449 0.1943   0.098129
 H 0.9515 0.4502 0.1622   0.08885
 H 0.8252 0.388 0.1268   0.096679
 H 0.6355 0.2359 0.1171   0.130983
 H 0.5918 0.1393 0.1027   0.078398
 H 0.4045 0.2045 0.9667   0.073411
 H 0.4364 0.3039 0.9787   0.13585
 H 0.1752 0.5433 0.0137   0.05831
 H 0.2321 0.4701 0.0243   0.054806
 H 0.1841 0.5171 0.0825   0.042167
 H 0.9006 0.7629 0.3431   0.09096
 H 0.9947 0.7995 0.2919   0.053839
 H 0.0309 0.7844 0.3592   0.070026
 H 0.1259 0.8638 0.3148   0.108848
 H 0.2134 0.9551 0.3057   0.096979
 H 0.0639 0.0498 0.3378   0.088564
 H 0.84 0.112 0.3732   0.099375
 H 0.4885 0.2641 0.3829   0.131417
 H 0.3338 0.3607 0.3973   0.077437
 H 0.0757 0.2955 0.5333   0.072478
 H 0.219 0.1961 0.5213   0.135878
 H 0.2322 0.9567 0.4863   0.059243
 H 0.2265 0.0299 0.4757   0.055366
 H 0.2837 0.9829 0.4175   0.043001
 H 0.7563 0.3431 0.7371   0.092554
 H 0.7134 0.2919 0.7005   0.05427
 H 0.6099 0.3592 0.7156   0.070887
 H 0.5593 0.3148 0.6362   0.108291
 H 0.4809 0.3057 0.5449   0.096422
 H 0.5983 0.3378 0.4502   0.089703
 H 0.7868 0.3732 0.388   0.09812
 H 0.1286 0.3829 0.2359   0.131802
 H 0.2689 0.3973 0.1393   0.077609
 H 0.391 0.5333 0.2045   0.071543
 H 0.2597 0.5213 0.3039   0.13462
 H 0.2815 0.4863 0.5433   0.057418
 H 0.2978 0.4757 0.4701   0.054708
 H 0.2988 0.4175 0.5171   0.041078
 H 0.3365 0.1569 0.7629   0.091989
 H 0.2058 0.2081 0.7995   0.055089
 H 0.1847 0.1408 0.7844   0.072196
 H 0.0103 0.1852 0.8638   0.110032
 H 0.8315 0.1943 0.9551   0.097496
 H 0.8863 0.1622 0.0498   0.090228
 H 0.048 0.1268 0.112   0.097303
 H 0.2474 0.1171 0.2641   0.132444
 H 0.3055 0.1027 0.3607   0.077297
 H 0.6288 0.9667 0.2955   0.072915
 H 0.5849 0.9787 0.1961   0.136239
 H 0.8111 0.0137 0.9567   0.058056
 H 0.7436 0.0243 0.0299   0.054755
 H 0.7334 0.0825 0.9829   0.042551
 H 0.4934 0.2629 0.8431   0.092377
 H 0.4139 0.2995 0.7919   0.054175
 H 0.3255 0.2844 0.8592   0.070909
 H 0.1955 0.3638 0.8148   0.10827
 H 0.0258 0.4551 0.8057   0.09813
 H 0.0485 0.5498 0.8378   0.088851
 H 0.1748 0.612 0.8732   0.096678
 H 0.3645 0.7641 0.8829   0.130983
 H 0.4082 0.8607 0.8973   0.078399
 H 0.5955 0.7955 0.0333   0.07341
 H 0.5636 0.6961 0.0213   0.13585
 H 0.8248 0.4567 0.9863   0.05831
 H 0.7679 0.5299 0.9757   0.054807
 H 0.8159 0.4829 0.9175   0.042168
 H 0.0994 0.2371 0.6569   0.090958
 H 0.0053 0.2005 0.7081   0.053838
 H 0.9691 0.2156 0.6408   0.070024
 H 0.8741 0.1362 0.6852   0.108845
 H 0.7866 0.0449 0.6943   0.096979
 H 0.9361 0.9502 0.6622   0.088562
 H 0.16 0.888 0.6268   0.099368
 H 0.5115 0.7359 0.6171   0.131414
 H 0.6662 0.6393 0.6027   0.077436
 H 0.9243 0.7045 0.4667   0.072477
 H 0.781 0.8039 0.4787   0.135876
 H 0.7678 0.0433 0.5137   0.059246
 H 0.7735 0.9701 0.5243   0.055366
 H 0.7163 0.0171 0.5825   0.043004
 C 0.2914 0.66338 0.29562   -0.015139
 C 0.27725 0.64715 0.40475   0.141966
 C 0.39215 0.67179 0.40271   -0.216762
 C 0.43895 0.67735 0.45715   -0.091134
 C 0.36973 0.65847 0.51287   -0.093689
 C 0.25024 0.63332 0.5164   -0.182666
 C 0.20381 0.6254 0.46238   0.260948
 C 0.17772 0.61864 0.57732   0.152321
 C 0.90131 0.56114 0.65564   0.471845
 C 0.81904 0.55039 0.71913   0.043068
 C 0.81656 0.58634 0.76914   -0.175922
 C 0.73326 0.57715 0.82673   0.153081
 C 0.66169 0.49835 0.78867   0.155533
 C 0.74015 0.5048 0.7293   -0.176854
 C 0.7414 0.53791 0.48769   0.043119
 C 0.7504 0.83662 0.20438   -0.017004
 C 0.82915 0.85285 0.09525   0.143898
 C 0.96665 0.82821 0.09729   -0.220249
 C 0.07345 0.82265 0.04285   -0.090615
 C 0.04107 0.84153 0.98713   -0.094122
 C 0.89996 0.86668 0.9836   -0.184774
 C 0.79159 0.8746 0.03762   0.26158
 C 0.87368 0.88136 0.92268   0.152368
 C 0.61809 0.93886 0.84436   0.472402
 C 0.58856 0.94961 0.78087   0.043227
 C 0.67204 0.91366 0.73086   -0.173671
 C 0.63714 0.92285 0.67327   0.148968
 C 0.44871 0.00165 0.71133   0.156114
 C 0.47425 0.9952 0.7707   -0.18054
 C 0.267 0.96209 0.01231   0.041031
 C 0.58702 0.70438 0.16338   -0.015544
 C 0.682 0.59525 0.14715   0.145125
 C 0.79486 0.59729 0.17179   -0.216968
 C 0.8961 0.54285 0.17735   -0.095575
 C 0.8826 0.48713 0.15847   -0.089461
 C 0.76664 0.4836 0.13332   -0.186258
 C 0.66619 0.53762 0.1254   0.259794
 C 0.75504 0.42268 0.11864   0.154493
 C 0.55695 0.34436 0.06114   0.475369
 C 0.53817 0.28087 0.05039   0.040582
 C 0.5857 0.23086 0.08634   -0.171872
 C 0.55999 0.17327 0.07715   0.147714
 C 0.45036 0.21133 0.99835   0.152267
 C 0.46945 0.2707 0.0048   -0.175952
 C 0.22909 0.51231 0.03791   0.040999
 C 0.95478 0.79562 0.33662   -0.01148
 C 0.9244 0.90475 0.35285   0.144675
 C 0.06394 0.90271 0.32821   -0.218179
 C 0.1163 0.95715 0.32265   -0.091474
 C 0.0282 0.01287 0.34153   -0.091424
 C 0.88356 0.0164 0.36668   -0.183664
 C 0.82921 0.96238 0.3746   0.258368
 C 0.79636 0.07732 0.38136   0.151065
 C 0.46245 0.15564 0.43886   0.473151
 C 0.36943 0.21913 0.44961   0.044287
 C 0.4029 0.26914 0.41366   -0.174316
 C 0.31041 0.32673 0.42285   0.149847
 C 0.16004 0.28867 0.50165   0.155974
 C 0.24495 0.2293 0.4952   -0.179494
 C 0.27931 0.98769 0.46209   0.037443
 C 0.7086 0.33662 0.70438   -0.015139
 C 0.72275 0.35285 0.59525   0.141967
 C 0.60785 0.32821 0.59729   -0.216762
 C 0.56105 0.32265 0.54285   -0.091134
 C 0.63027 0.34153 0.48713   -0.093691
 C 0.74976 0.36668 0.4836   -0.182663
 C 0.79619 0.3746 0.53762   0.260948
 C 0.82228 0.38136 0.42268   0.152317
 C 0.09869 0.43886 0.34436   0.471843
 C 0.18096 0.44961 0.28087   0.043069
 C 0.18344 0.41366 0.23086   -0.175922
 C 0.26674 0.42285 0.17327   0.153086
 C 0.33831 0.50165 0.21133   0.155536
 C 0.25985 0.4952 0.2707   -0.176854
 C 0.2586 0.46209 0.51231   0.043119
 C 0.2496 0.16338 0.79562   -0.017004
 C 0.17085 0.14715 0.90475   0.143898
 C 0.03335 0.17179 0.90271   -0.220249
 C 0.92655 0.17735 0.95715   -0.090615
 C 0.95893 0.15847 0.01287   -0.094124
 C 0.10004 0.13332 0.0164   -0.184772
 C 0.20841 0.1254 0.96238   0.261578
 C 0.12632 0.11864 0.07732   0.152365
 C 0.38191 0.06114 0.15564   0.472397
 C 0.41144 0.05039 0.21913   0.043229
 C 0.32796 0.08634 0.26914   -0.17367
 C 0.36286 0.07715 0.32673   0.148967
 C 0.55129 0.99835 0.28867   0.156107
 C 0.52575 0.0048 0.2293   -0.180537
 C 0.733 0.03791 0.98769   0.041031
 C 0.41298 0.29562 0.83662   -0.015544
 C 0.318 0.40475 0.85285   0.145124
 C 0.20514 0.40271 0.82821   -0.216967
 C 0.1039 0.45715 0.82265   -0.095576
 C 0.1174 0.51287 0.84153   -0.089461
 C 0.23336 0.5164 0.86668   -0.186257
 C 0.33381 0.46238 0.8746   0.259796
 C 0.24496 0.57732 0.88136   0.154494
 C 0.44305 0.65564 0.93886   0.475372
 C 0.46183 0.71913 0.94961   0.040583
 C 0.4143 0.76914 0.91366   -0.171871
 C 0.44001 0.82673 0.92285   0.147714
 C 0.54964 0.78867 0.00165   0.152267
 C 0.53055 0.7293 0.9952   -0.175952
 C 0.77091 0.48769 0.96209   0.041006
 C 0.04522 0.20438 0.66338   -0.011479
 C 0.0756 0.09525 0.64715   0.144668
 C 0.93606 0.09729 0.67179   -0.218177
 C 0.8837 0.04285 0.67735   -0.091483
 C 0.9718 0.98713 0.65847   -0.091425
 C 0.11644 0.9836 0.63332   -0.183673
 C 0.17079 0.03762 0.6254   0.258391
 C 0.20364 0.92268 0.61864   0.151094
 C 0.53755 0.84436 0.56114   0.473165
 C 0.63057 0.78087 0.55039   0.044284
 C 0.5971 0.73086 0.58634   -0.174312
 C 0.68959 0.67327 0.57715   0.149848
 C 0.83996 0.71133 0.49835   0.155975
 C 0.75505 0.7707 0.5048   -0.179495
 C 0.72069 0.01231 0.53791   0.03745
 N 0.06796 0.59531 0.58877   -0.123145
 N 0.00677 0.58692 0.65254   -0.443919
 N 0.65545 0.53407 0.83723   -0.340343
 N 0.75204 0.90469 0.91123   -0.118646
 N 0.74623 0.91308 0.84746   -0.446283
 N 0.52675 0.96593 0.66277   -0.338465
 N 0.65673 0.41123 0.09531   -0.119655
 N 0.65931 0.34746 0.08692   -0.448719
 N 0.49268 0.16277 0.03407   -0.336773
 N 0.66327 0.08877 0.40469   -0.122801
 N 0.59369 0.15254 0.41308   -0.444053
 N 0.18952 0.33723 0.46593   -0.338707
 N 0.93204 0.40469 0.41123   -0.123139
 N 0.99323 0.41308 0.34746   -0.443919
 N 0.34455 0.46593 0.16277   -0.340356
 N 0.24796 0.09531 0.08877   -0.118649
 N 0.25377 0.08692 0.15254   -0.446284
 N 0.47325 0.03407 0.33723   -0.338464
 N 0.34327 0.58877 0.90469   -0.119649
 N 0.34069 0.65254 0.91308   -0.448721
 N 0.50732 0.83723 0.96593   -0.336772
 N 0.33673 0.91123 0.59531   -0.122828
 N 0.40631 0.84746 0.58692   -0.444046
 N 0.81048 0.66277 0.53407   -0.338712
 O 0.22429 0.6402 0.35382   -0.242425
 O 0.09608 0.60035 0.46169   -0.481557
 O 0.86171 0.54441 0.60757   -0.50643
 O 0.88861 0.52811 0.47847   -0.535574
 O 0.71831 0.8598 0.14618   -0.242202
 O 0.65812 0.89965 0.03831   -0.483091
 O 0.51369 0.95559 0.89243   -0.507308
 O 0.39519 0.97189 0.02153   -0.53632
 O 0.57811 0.64618 0.1402   -0.242455
 O 0.55777 0.53831 0.10035   -0.48066
 O 0.46928 0.39243 0.04441   -0.507674
 O 0.36708 0.52153 0.02811   -0.535818
 O 0.86449 0.85382 0.3598   -0.244574
 O 0.69643 0.96169 0.39965   -0.480317
 O 0.40612 0.10757 0.45559   -0.508531
 O 0.41672 0.97847 0.47189   -0.535396
 O 0.77571 0.3598 0.64618   -0.242424
 O 0.90392 0.39965 0.53831   -0.481554
 O 0.13829 0.45559 0.39243   -0.506425
 O 0.11139 0.47189 0.52153   -0.535577
 O 0.28169 0.1402 0.85382   -0.242201
 O 0.34188 0.10035 0.96169   -0.483092
 O 0.48631 0.04441 0.10757   -0.50731
 O 0.60481 0.02811 0.97847   -0.53632
 O 0.42189 0.35382 0.8598   -0.242454
 O 0.44223 0.46169 0.89965   -0.480663
 O 0.53072 0.60757 0.95559   -0.507678
 O 0.63292 0.47847 0.97189   -0.535831
 O 0.13551 0.14618 0.6402   -0.244573
 O 0.30357 0.03831 0.60035   -0.480344
 O 0.59388 0.89243 0.54441   -0.508562
 O 0.58328 0.02153 0.52811   -0.535407
