{'_ref': 'TBD', '_srcid': 'CAKYAQ_clean', 'submitters': [{'name': 'Dalar Nazarian Jeff Camp and David Sholl', 'email': 'dalar@gatech.edu jcamp6@gatech.edu'}], '_method': 'VASP DFT with PBE;DDEC'}
data_LaGdH12(C4O5)3
_symmetry_space_group_name_H-M   'P 1'
_cell_length_a   9.27200000
_cell_length_b   9.27200040
_cell_length_c   17.71600000
_cell_angle_alpha   90.00000000
_cell_angle_beta   90.00000000
_cell_angle_gamma   119.99999859
_symmetry_Int_Tables_number   1
_chemical_formula_structural   LaGdH12(C4O5)3
_chemical_formula_sum   'La2 Gd2 H24 C24 O30'
_cell_volume   1318.99507486
_cell_formula_units_Z   2
loop_
 _symmetry_equiv_pos_site_id
 _symmetry_equiv_pos_as_xyz
  1  'x, y, z'
loop_
 _atom_site_label
 _atom_site_fract_x
 _atom_site_fract_y
 _atom_site_fract_z
 _atom_site_charge
 La 0.33333 0.66666 0.75   2.268821
 La 0.66667 0.33334 0.25   2.268821
 Gd 0.0 0.0 0.0   2.098057
 Gd 0.0 0.0 0.5   2.098057
 H 0.5735 0.5998 0.9181   0.108421
 H 0.5095 0.6776 0.9765   0.089703
 H 0.0263 0.4265 0.9181   0.108423
 H 0.1681 0.4905 0.9765   0.089705
 H 0.4002 0.9737 0.9181   0.108424
 H 0.3224 0.8319 0.9765   0.089703
 H 0.5735 0.5998 0.5819   0.108421
 H 0.5095 0.6776 0.5235   0.089703
 H 0.0263 0.4265 0.5819   0.108423
 H 0.1681 0.4905 0.5235   0.089705
 H 0.4002 0.9737 0.5819   0.108424
 H 0.3224 0.8319 0.5235   0.089703
 H 0.9737 0.4002 0.0819   0.108421
 H 0.8319 0.3224 0.0235   0.089703
 H 0.5998 0.5735 0.0819   0.108422
 H 0.6776 0.5095 0.0235   0.089705
 H 0.4265 0.0263 0.0819   0.108423
 H 0.4905 0.1681 0.0235   0.089703
 H 0.9737 0.4002 0.4181   0.108421
 H 0.8319 0.3224 0.4765   0.089703
 H 0.5998 0.5735 0.4181   0.108422
 H 0.6776 0.5095 0.4765   0.089705
 H 0.4265 0.0263 0.4181   0.108423
 H 0.4905 0.1681 0.4765   0.089703
 C 0.6572 0.8413 0.8953   0.775129
 C 0.6032 0.6957 0.9478   -0.079893
 C 0.1841 0.3428 0.8953   0.775135
 C 0.0925 0.3968 0.9478   -0.079895
 C 0.1587 0.8159 0.8953   0.775133
 C 0.3043 0.9075 0.9478   -0.079893
 C 0.6572 0.8413 0.6047   0.775129
 C 0.6032 0.6957 0.5522   -0.079893
 C 0.1841 0.3428 0.6047   0.775135
 C 0.0925 0.3968 0.5522   -0.079895
 C 0.1587 0.8159 0.6047   0.775133
 C 0.3043 0.9075 0.5522   -0.079894
 C 0.8159 0.1587 0.1047   0.775128
 C 0.9075 0.3043 0.0522   -0.079893
 C 0.8413 0.6572 0.1047   0.775135
 C 0.6957 0.6032 0.0522   -0.079895
 C 0.3428 0.1841 0.1047   0.775133
 C 0.3968 0.0925 0.0522   -0.079893
 C 0.8159 0.1587 0.3953   0.775128
 C 0.9075 0.3043 0.4478   -0.079893
 C 0.8413 0.6572 0.3953   0.775135
 C 0.6957 0.6032 0.4478   -0.079895
 C 0.3428 0.1841 0.3953   0.775133
 C 0.3968 0.0925 0.4478   -0.079893
 O 0.7955 0.9679 0.90713   -0.67373
 O 0.559 0.8271 0.84415   -0.773495
 O 0.1724 0.2045 0.90713   -0.673724
 O 0.2681 0.441 0.84415   -0.773507
 O 0.0321 0.8276 0.90713   -0.673731
 O 0.1729 0.7319 0.84415   -0.773501
 O 0.7955 0.9679 0.59287   -0.67373
 O 0.559 0.8271 0.65585   -0.773495
 O 0.1724 0.2045 0.59287   -0.673724
 O 0.2681 0.441 0.65585   -0.773507
 O 0.0321 0.8276 0.59287   -0.673731
 O 0.1729 0.7319 0.65585   -0.773501
 O 0.8276 0.0321 0.09287   -0.67373
 O 0.7319 0.1729 0.15585   -0.773495
 O 0.9679 0.7955 0.09287   -0.673724
 O 0.8271 0.559 0.15585   -0.773507
 O 0.2045 0.1724 0.09287   -0.673731
 O 0.441 0.2681 0.15585   -0.773501
 O 0.8276 0.0321 0.40713   -0.67373
 O 0.7319 0.1729 0.34415   -0.773495
 O 0.9679 0.7955 0.40713   -0.673723
 O 0.8271 0.559 0.34415   -0.773507
 O 0.2045 0.1724 0.40713   -0.673731
 O 0.441 0.2681 0.34415   -0.773501
 O 0.7317 0.7317 0.0   -0.347895
 O 0.0 0.2683 0.0   -0.347895
 O 0.2683 0.0 0.0   -0.347897
 O 0.7317 0.7317 0.5   -0.347895
 O 0.0 0.2683 0.5   -0.347895
 O 0.2683 0.0 0.5   -0.347897
