{'_ref': 'TBD', '_srcid': 'CAKYAQ_clean', 'submitters': [{'name': 'Dalar Nazarian Jeff Camp and David Sholl', 'email': 'dalar@gatech.edu jcamp6@gatech.edu'}], '_method': 'VASP DFT with PBE;DDEC'}
data_ScH5C8O5
_symmetry_space_group_name_H-M   'P 1'
_cell_length_a   7.30130000
_cell_length_b   9.18020000
_cell_length_c   19.34400000
_cell_angle_alpha   90.00000000
_cell_angle_beta   90.00000000
_cell_angle_gamma   90.00000000
_symmetry_Int_Tables_number   1
_chemical_formula_structural   ScH5C8O5
_chemical_formula_sum   'Sc4 H20 C32 O20'
_cell_volume   1296.57791457
_cell_formula_units_Z   4
loop_
 _symmetry_equiv_pos_site_id
 _symmetry_equiv_pos_as_xyz
  1  'x, y, z'
loop_
 _atom_site_label
 _atom_site_fract_x
 _atom_site_fract_y
 _atom_site_fract_z
 _atom_site_charge
 Sc 0.6461 0.5044 0.4995   2.064557
 Sc 0.1461 0.4956 0.5005   2.064553
 Sc 0.6461 0.9956 0.9995   2.064557
 Sc 0.1461 0.0044 0.000500000000002   2.064553
 H 0.1279 0.239 0.6879   0.129287
 H 0.1319 0.1697 0.8028   0.096274
 H 0.6646 0.2753 0.821   0.103565
 H 0.6632 0.359 0.705   0.11692
 H 0.346 0.662 0.531   0.405779
 H 0.6279 0.761 0.3121   0.129287
 H 0.6319 0.8303 0.1972   0.096274
 H 0.1646 0.7247 0.179   0.103565
 H 0.1632 0.641 0.295   0.11692
 H 0.846 0.338 0.469   0.405779
 H 0.1279 0.261 0.1879   0.129286
 H 0.1319 0.3303 0.3028   0.096274
 H 0.6646 0.2247 0.321   0.103564
 H 0.6632 0.141 0.205   0.11692
 H 0.346 0.838 0.031   0.405779
 H 0.6279 0.739 0.8121   0.129286
 H 0.6319 0.6697 0.6972   0.096274
 H 0.1646 0.7753 0.679   0.103564
 H 0.1632 0.859 0.795   0.11692
 H 0.846 0.162 0.969   0.405779
 C 0.4014 0.3601 0.6123   0.764521
 C 0.3959 0.3095 0.6872   -0.114047
 C 0.2355 0.2497 0.715   -0.075278
 C 0.2404 0.2076 0.7824   -0.044565
 C 0.4024 0.2181 0.8241   -0.150236
 C 0.5548 0.2707 0.7948   -0.040445
 C 0.5552 0.3198 0.7251   -0.072946
 C 0.4041 0.1705 0.8969   0.812086
 C 0.9014 0.6399 0.3877   0.764521
 C 0.8959 0.6905 0.3128   -0.114047
 C 0.7355 0.7503 0.285   -0.075278
 C 0.7404 0.7924 0.2176   -0.044565
 C 0.9024 0.7819 0.1759   -0.150236
 C 0.0548 0.7293 0.2052   -0.040445
 C 0.0552 0.6802 0.2749   -0.072946
 C 0.9041 0.8295 0.1031   0.812086
 C 0.4014 0.1399 0.1123   0.764521
 C 0.3959 0.1905 0.1872   -0.114047
 C 0.2355 0.2503 0.215   -0.075277
 C 0.2404 0.2924 0.2824   -0.044565
 C 0.4024 0.2819 0.3241   -0.150236
 C 0.5548 0.2293 0.2948   -0.040444
 C 0.5552 0.1802 0.2251   -0.072946
 C 0.4041 0.3295 0.3969   0.812086
 C 0.9014 0.8601 0.8877   0.764521
 C 0.8959 0.8095 0.8128   -0.114047
 C 0.7355 0.7497 0.785   -0.075277
 C 0.7404 0.7076 0.7176   -0.044565
 C 0.9024 0.7181 0.6759   -0.150236
 C 0.0548 0.7707 0.7052   -0.040444
 C 0.0552 0.8198 0.7749   -0.072946
 C 0.9041 0.6705 0.6031   0.812086
 O 0.5514 0.387 0.5855   -0.709839
 O 0.247 0.3723 0.5825   -0.740549
 O 0.2468 0.1549 0.9266   -0.744406
 O 0.5503 0.1503 0.926   -0.723773
 O 0.3901 0.6067 0.4916   -1.076903
 O 0.0514 0.613 0.4145   -0.709839
 O 0.747 0.6277 0.4175   -0.740549
 O 0.7468 0.8451 0.0734   -0.744406
 O 0.0503 0.8497 0.074   -0.723773
 O 0.8901 0.3933 0.5084   -1.076903
 O 0.5514 0.113 0.0855   -0.709839
 O 0.247 0.1277 0.0825   -0.740549
 O 0.2468 0.3451 0.4266   -0.744406
 O 0.5503 0.3497 0.426   -0.723773
 O 0.3901 0.8933 0.9916   -1.076903
 O 0.0514 0.887 0.9145   -0.709839
 O 0.747 0.8723 0.9175   -0.740549
 O 0.7468 0.6549 0.5734   -0.744406
 O 0.0503 0.6503 0.574   -0.723773
 O 0.8901 0.1067 0.0084   -1.076903
