{'_ref': 'TBD', '_srcid': 'CAKYAQ_clean', 'submitters': [{'name': 'Dalar Nazarian Jeff Camp and David Sholl', 'email': 'dalar@gatech.edu jcamp6@gatech.edu'}], '_method': 'VASP DFT with PBE;DDEC'}
data_U(CO2)5
_symmetry_space_group_name_H-M   'P 1'
_cell_length_a   12.72800000
_cell_length_b   19.17699985
_cell_length_c   19.17700000
_cell_angle_alpha   120.00000025
_cell_angle_beta   90.00000000
_cell_angle_gamma   90.00000000
_symmetry_Int_Tables_number   1
_chemical_formula_structural   U(CO2)5
_chemical_formula_sum   'U12 C60 O120'
_cell_volume   4053.70490485
_cell_formula_units_Z   12
loop_
 _symmetry_equiv_pos_site_id
 _symmetry_equiv_pos_as_xyz
  1  'x, y, z'
loop_
 _atom_site_label
 _atom_site_fract_x
 _atom_site_fract_y
 _atom_site_fract_z
 _atom_site_charge
 U 0.5 0.66695 0.0   2.519275
 U 0.5 0.33305 0.33305   2.519275
 U 0.5 0.0 0.66695   2.519275
 U 0.0 0.33305 0.0   2.519275
 U 0.0 0.66695 0.66695   2.519275
 U 0.0 0.0 0.33305   2.519275
 U 0.5 0.33305 0.0   2.519277
 U 0.5 0.66695 0.66695   2.519277
 U 0.5 0.0 0.33305   2.519277
 U 0.0 0.66695 0.0   2.519277
 U 0.0 0.33305 0.33305   2.519277
 U 0.0 0.0 0.66695   2.519277
 C 0.25 0.6725 0.0449   0.555236
 C 0.25 0.6868 0.975   0.573012
 C 0.25 0.3724 0.3275   0.555236
 C 0.25 0.2882 0.3132   0.573011
 C 0.25 0.9551 0.6276   0.555236
 C 0.25 0.025 0.7118   0.573011
 C 0.75 0.3275 0.9551   0.555236
 C 0.75 0.3132 0.025   0.573012
 C 0.75 0.6276 0.6725   0.555236
 C 0.75 0.7118 0.6868   0.573011
 C 0.75 0.0449 0.3724   0.555236
 C 0.75 0.975 0.2882   0.573011
 C 0.75 0.6276 0.9551   0.555236
 C 0.75 0.7118 0.025   0.573011
 C 0.75 0.0449 0.6725   0.555236
 C 0.75 0.975 0.6868   0.573012
 C 0.75 0.3275 0.3724   0.555236
 C 0.75 0.3132 0.2882   0.573011
 C 0.25 0.3724 0.0449   0.555236
 C 0.25 0.2882 0.975   0.573011
 C 0.25 0.9551 0.3275   0.555236
 C 0.25 0.025 0.3132   0.573012
 C 0.25 0.6725 0.6276   0.555236
 C 0.25 0.6868 0.7118   0.573011
 C 0.47 0.8523 0.1477   0.547384
 C 0.506 0.80865 0.19135   0.526989
 C 0.47 0.2954 0.1477   0.547384
 C 0.506 0.3827 0.19135   0.526989
 C 0.47 0.8523 0.7046   0.547384
 C 0.506 0.80865 0.6173   0.526988
 C 0.97 0.1477 0.8523   0.547384
 C 0.006 0.19135 0.80865   0.526989
 C 0.97 0.7046 0.8523   0.547384
 C 0.006 0.6173 0.80865   0.526989
 C 0.97 0.1477 0.2954   0.547384
 C 0.006 0.19135 0.3827   0.526988
 C 0.53 0.7046 0.8523   0.547383
 C 0.494 0.6173 0.80865   0.526989
 C 0.53 0.1477 0.8523   0.547383
 C 0.494 0.19135 0.80865   0.526989
 C 0.53 0.1477 0.2954   0.547383
 C 0.494 0.19135 0.3827   0.526989
 C 0.03 0.2954 0.1477   0.547383
 C 0.994 0.3827 0.19135   0.526989
 C 0.03 0.8523 0.1477   0.547383
 C 0.994 0.80865 0.19135   0.526989
 C 0.03 0.8523 0.7046   0.547383
 C 0.994 0.80865 0.6173   0.526989
 C 0.5405 0.5163 0.0326   0.526821
 C 0.5405 0.5163 0.4837   0.526822
 C 0.5405 0.9674 0.4837   0.526821
 C 0.0405 0.4837 0.9674   0.526821
 C 0.0405 0.4837 0.5163   0.526822
 C 0.0405 0.0326 0.5163   0.526821
 C 0.4595 0.4837 0.9674   0.526822
 C 0.4595 0.0326 0.5163   0.526822
 C 0.4595 0.4837 0.5163   0.526822
 C 0.9595 0.5163 0.0326   0.526822
 C 0.9595 0.9674 0.4837   0.526822
 C 0.9595 0.5163 0.4837   0.526822
 O 0.3392 0.672 0.0737   -0.552041
 O 0.5217 0.7341 0.1498   -0.502634
 O 0.4569 0.8105 0.0729   -0.517542
 O 0.5786 0.587 0.0537   -0.518983
 O 0.337 0.6947 0.9512   -0.533158
 O 0.3392 0.4017 0.328   -0.552041
 O 0.5217 0.4157 0.2659   -0.502634
 O 0.4569 0.2624 0.1895   -0.517542
 O 0.5786 0.4667 0.413   -0.518984
 O 0.337 0.2565 0.3053   -0.533158
 O 0.3392 0.9263 0.5983   -0.552041
 O 0.5217 0.8502 0.5843   -0.502634
 O 0.4569 0.9271 0.7376   -0.517542
 O 0.5786 0.9463 0.5333   -0.518983
 O 0.337 0.0488 0.7435   -0.533158
 O 0.8392 0.328 0.9263   -0.552041
 O 0.0217 0.2659 0.8502   -0.502634
 O 0.9569 0.1895 0.9271   -0.517542
 O 0.0786 0.413 0.9463   -0.518983
 O 0.837 0.3053 0.0488   -0.533158
 O 0.8392 0.5983 0.672   -0.552041
 O 0.0217 0.5843 0.7341   -0.502634
 O 0.9569 0.7376 0.8105   -0.517542
 O 0.0786 0.5333 0.587   -0.518984
 O 0.837 0.7435 0.6947   -0.533158
 O 0.8392 0.0737 0.4017   -0.552041
 O 0.0217 0.1498 0.4157   -0.502634
 O 0.9569 0.0729 0.2624   -0.517542
 O 0.0786 0.0537 0.4667   -0.518983
 O 0.837 0.9512 0.2565   -0.533158
 O 0.6608 0.5983 0.9263   -0.552041
 O 0.4783 0.5843 0.8502   -0.502634
 O 0.5431 0.7376 0.9271   -0.517542
 O 0.4214 0.5333 0.9463   -0.518983
 O 0.663 0.7435 0.0488   -0.533158
 O 0.6608 0.0737 0.672   -0.552041
 O 0.4783 0.1498 0.7341   -0.502634
 O 0.5431 0.0729 0.8105   -0.517542
 O 0.4214 0.0537 0.587   -0.518983
 O 0.663 0.9512 0.6947   -0.533158
 O 0.6608 0.328 0.4017   -0.552041
 O 0.4783 0.2659 0.4157   -0.502634
 O 0.5431 0.1895 0.2624   -0.517542
 O 0.4214 0.413 0.4667   -0.518984
 O 0.663 0.3053 0.2565   -0.533158
 O 0.1608 0.4017 0.0737   -0.552041
 O 0.9783 0.4157 0.1498   -0.502634
 O 0.0431 0.2624 0.0729   -0.517542
 O 0.9214 0.4667 0.0537   -0.518983
 O 0.163 0.2565 0.9512   -0.533158
 O 0.1608 0.9263 0.328   -0.552041
 O 0.9783 0.8502 0.2659   -0.502634
 O 0.0431 0.9271 0.1895   -0.517542
 O 0.9214 0.9463 0.413   -0.518983
 O 0.163 0.0488 0.3053   -0.533158
 O 0.1608 0.672 0.5983   -0.552041
 O 0.9783 0.7341 0.5843   -0.502634
 O 0.0431 0.8105 0.7376   -0.517542
 O 0.9214 0.587 0.5333   -0.518984
 O 0.163 0.6947 0.7435   -0.533158
 O 0.6608 0.328 0.9263   -0.552041
 O 0.4783 0.2659 0.8502   -0.502634
 O 0.5431 0.1895 0.9271   -0.517543
 O 0.4214 0.413 0.9463   -0.518984
 O 0.663 0.3053 0.0488   -0.533158
 O 0.6608 0.5983 0.672   -0.552041
 O 0.4783 0.5843 0.7341   -0.502634
 O 0.5431 0.7376 0.8105   -0.517542
 O 0.4214 0.5333 0.587   -0.518984
 O 0.663 0.7435 0.6947   -0.533158
 O 0.6608 0.0737 0.4017   -0.552041
 O 0.4783 0.1498 0.4157   -0.502635
 O 0.5431 0.0729 0.2624   -0.517543
 O 0.4214 0.0537 0.4667   -0.518983
 O 0.663 0.9512 0.2565   -0.533158
 O 0.1608 0.672 0.0737   -0.552041
 O 0.9783 0.7341 0.1498   -0.502634
 O 0.0431 0.8105 0.0729   -0.517543
 O 0.9214 0.587 0.0537   -0.518984
 O 0.163 0.6947 0.9512   -0.533158
 O 0.1608 0.4017 0.328   -0.552041
 O 0.9783 0.4157 0.2659   -0.502634
 O 0.0431 0.2624 0.1895   -0.517542
 O 0.9214 0.4667 0.413   -0.518984
 O 0.163 0.2565 0.3053   -0.533158
 O 0.1608 0.9263 0.5983   -0.552041
 O 0.9783 0.8502 0.5843   -0.502635
 O 0.0431 0.9271 0.7376   -0.517543
 O 0.9214 0.9463 0.5333   -0.518983
 O 0.163 0.0488 0.7435   -0.533158
 O 0.3392 0.4017 0.0737   -0.552041
 O 0.5217 0.4157 0.1498   -0.502635
 O 0.4569 0.2624 0.0729   -0.517543
 O 0.5786 0.4667 0.0537   -0.518983
 O 0.337 0.2565 0.9512   -0.533158
 O 0.3392 0.9263 0.328   -0.552041
 O 0.5217 0.8502 0.2659   -0.502634
 O 0.4569 0.9271 0.1895   -0.517543
 O 0.5786 0.9463 0.413   -0.518983
 O 0.337 0.0488 0.3053   -0.533158
 O 0.3392 0.672 0.5983   -0.552041
 O 0.5217 0.7341 0.5843   -0.502634
 O 0.4569 0.8105 0.7376   -0.517543
 O 0.5786 0.587 0.5333   -0.518984
 O 0.337 0.6947 0.7435   -0.533158
 O 0.8392 0.5983 0.9263   -0.552041
 O 0.0217 0.5843 0.8502   -0.502635
 O 0.9569 0.7376 0.9271   -0.517543
 O 0.0786 0.5333 0.9463   -0.518983
 O 0.837 0.7435 0.0488   -0.533158
 O 0.8392 0.0737 0.672   -0.552041
 O 0.0217 0.1498 0.7341   -0.502634
 O 0.9569 0.0729 0.8105   -0.517543
 O 0.0786 0.0537 0.587   -0.518983
 O 0.837 0.9512 0.6947   -0.533158
 O 0.8392 0.328 0.4017   -0.552041
 O 0.0217 0.2659 0.4157   -0.502634
 O 0.9569 0.1895 0.2624   -0.517543
 O 0.0786 0.413 0.4667   -0.518984
 O 0.837 0.3053 0.2565   -0.533158
