{'_ref': 'TBD', '_srcid': 'CAKYAQ_clean', 'submitters': [{'name': 'Dalar Nazarian Jeff Camp and David Sholl', 'email': 'dalar@gatech.edu jcamp6@gatech.edu'}], '_method': 'VASP DFT with PBE;DDEC'}
data_Gd(CO2)4
_symmetry_space_group_name_H-M   'P 1'
_cell_length_a   8.51999967
_cell_length_b   9.51000011
_cell_length_c   10.14000000
_cell_angle_alpha   62.10999752
_cell_angle_beta   76.14999784
_cell_angle_gamma   73.72999821
_symmetry_Int_Tables_number   1
_chemical_formula_structural   Gd(CO2)4
_chemical_formula_sum   'Gd2 C8 O16'
_cell_volume   691.378576435
_cell_formula_units_Z   2
loop_
 _symmetry_equiv_pos_site_id
 _symmetry_equiv_pos_as_xyz
  1  'x, y, z'
loop_
 _atom_site_label
 _atom_site_fract_x
 _atom_site_fract_y
 _atom_site_fract_z
 _atom_site_charge
 Gd 0.66706 0.62803 0.1599   2.066922
 Gd 0.33294 0.37197 0.8401   2.066925
 C 0.0134 0.5873 0.9517   0.552709
 C 0.5733 0.0231 0.0146   0.581305
 C 0.4477 0.5868 0.4831   0.5616
 C 0.4421 0.4623 0.075   0.572173
 C 0.9866 0.4127 0.0483   0.552717
 C 0.4267 0.9769 0.9854   0.58131
 C 0.5523 0.4132 0.5169   0.561606
 C 0.5579 0.5377 0.925   0.572181
 O 0.9189 0.6958 0.9844   -0.532858
 O 0.6827 0.908 0.0782   -0.544668
 O 0.4723 0.6934 0.3502   -0.57228
 O 0.4626 0.4801 0.185   -0.546111
 O 0.5672 0.171 0.9681   -0.524736
 O 0.1331 0.6079 0.8473   -0.547279
 O 0.3409 0.391 0.0735   -0.541551
 O 0.3482 0.6038 0.5888   -0.525239
 O 0.0811 0.3042 0.0156   -0.532859
 O 0.3173 0.092 0.9218   -0.544669
 O 0.5277 0.3066 0.6498   -0.57228
 O 0.5374 0.5199 0.815   -0.546112
 O 0.4328 0.829 0.0319   -0.524737
 O 0.8669 0.3921 0.1527   -0.547279
 O 0.6591 0.609 0.9265   -0.541552
 O 0.6518 0.3962 0.4112   -0.525239
