{'_ref': 'TBD', '_srcid': 'CAKYAQ_clean', 'submitters': [{'name': 'Dalar Nazarian Jeff Camp and David Sholl', 'email': 'dalar@gatech.edu jcamp6@gatech.edu'}], '_method': 'VASP DFT with PBE;DDEC'}
data_Li2H3C3SO5
_symmetry_space_group_name_H-M   'P 1'
_cell_length_a   7.52030000
_cell_length_b   13.55200000
_cell_length_c   15.62300000
_cell_angle_alpha   90.00000000
_cell_angle_beta   90.00000000
_cell_angle_gamma   90.00000000
_symmetry_Int_Tables_number   1
_chemical_formula_structural   Li2H3C3SO5
_chemical_formula_sum   'Li16 H24 C24 S8 O40'
_cell_volume   1592.21969479
_cell_formula_units_Z   8
loop_
 _symmetry_equiv_pos_site_id
 _symmetry_equiv_pos_as_xyz
  1  'x, y, z'
loop_
 _atom_site_label
 _atom_site_fract_x
 _atom_site_fract_y
 _atom_site_fract_z
 _atom_site_charge
 Li 0.4779 0.6755 0.08893   0.937722
 Li 0.3372 0.5182 0.9829   0.930696
 Li 0.9779 0.8245 0.91107   0.937722
 Li 0.8372 0.9818 0.0171   0.930696
 Li 0.5221 0.3245 0.58893   0.937722
 Li 0.6628 0.4818 0.4829   0.930696
 Li 0.0221 0.1755 0.41107   0.937722
 Li 0.1628 0.0182 0.5171   0.930696
 Li 0.5221 0.3245 0.91107   0.93772
 Li 0.6628 0.4818 0.0171   0.930696
 Li 0.0221 0.1755 0.08893   0.93772
 Li 0.1628 0.0182 0.9829   0.930696
 Li 0.4779 0.6755 0.41107   0.93772
 Li 0.3372 0.5182 0.5171   0.930696
 Li 0.9779 0.8245 0.58893   0.93772
 Li 0.8372 0.9818 0.4829   0.930696
 H 0.0318 0.5864 0.9354   0.450864
 H 0.1622 0.5219 0.9483   0.310174
 H 0.5318 0.9136 0.0646   0.450864
 H 0.6622 0.9781 0.0517   0.310174
 H 0.9682 0.4136 0.4354   0.450864
 H 0.8378 0.4781 0.4483   0.310174
 H 0.4682 0.0864 0.5646   0.450864
 H 0.3378 0.0219 0.5517   0.310174
 H 0.9682 0.4136 0.0646   0.450864
 H 0.8378 0.4781 0.0517   0.310174
 H 0.4682 0.0864 0.9354   0.450864
 H 0.3378 0.0219 0.9483   0.310174
 H 0.0318 0.5864 0.5646   0.450864
 H 0.1622 0.5219 0.5517   0.310174
 H 0.5318 0.9136 0.4354   0.450864
 H 0.6622 0.9781 0.4483   0.310174
 H 0.712 0.7185 0.75   0.085066
 H 0.4862 0.4003 0.75   0.133587
 H 0.212 0.7815 0.25   0.085066
 H 0.9862 0.0997 0.25   0.133587
 H 0.288 0.2815 0.25   0.085066
 H 0.5138 0.5997 0.25   0.133587
 H 0.788 0.2185 0.75   0.085066
 H 0.0138 0.9003 0.75   0.133587
 C 0.6313 0.60799 0.82688   -0.493847
 C 0.5619 0.51031 0.82924   0.605652
 C 0.1313 0.89201 0.17312   -0.493847
 C 0.0619 0.98969 0.17076   0.605652
 C 0.3687 0.39201 0.32688   -0.493847
 C 0.4381 0.48969 0.32924   0.605652
 C 0.8687 0.10799 0.67312   -0.493847
 C 0.9381 0.01031 0.67076   0.605652
 C 0.3687 0.39201 0.17312   -0.493847
 C 0.4381 0.48969 0.17076   0.605652
 C 0.8687 0.10799 0.82688   -0.493847
 C 0.9381 0.01031 0.82924   0.605652
 C 0.6313 0.60799 0.67312   -0.493847
 C 0.5619 0.51031 0.67076   0.605652
 C 0.1313 0.89201 0.32688   -0.493847
 C 0.0619 0.98969 0.32924   0.605652
 C 0.6657 0.65489 0.75   0.154368
 C 0.5303 0.4644 0.75   -0.475113
 C 0.1657 0.84511 0.25   0.154368
 C 0.0303 0.0356 0.25   -0.475113
 C 0.3343 0.34511 0.25   0.154368
 C 0.4697 0.5356 0.25   -0.475113
 C 0.8343 0.15489 0.75   0.154368
 C 0.9697 0.9644 0.75   -0.475113
 S 0.668 0.6703 0.92237   1.522978
 S 0.168 0.8297 0.07763   1.522978
 S 0.332 0.3297 0.42237   1.522978
 S 0.832 0.1703 0.57763   1.522978
 S 0.332 0.3297 0.07763   1.522978
 S 0.832 0.1703 0.92237   1.522978
 S 0.668 0.6703 0.57763   1.522978
 S 0.168 0.8297 0.42237   1.522978
 O 0.49572 0.6817 0.96436   -0.811077
 O 0.74536 0.76554 0.8993   -0.767863
 O 0.1337 0.57169 0.92182   -0.807949
 O 0.78709 0.61052 0.9756   -0.789039
 O 0.52835 0.46624 0.90333   -1.037265
 O 0.99572 0.8183 0.03564   -0.811077
 O 0.24536 0.73446 0.1007   -0.767863
 O 0.6337 0.92831 0.07818   -0.807949
 O 0.28709 0.88948 0.0244   -0.789039
 O 0.02835 0.03376 0.09667   -1.037265
 O 0.50428 0.3183 0.46436   -0.811077
 O 0.25464 0.23446 0.3993   -0.767863
 O 0.8663 0.42831 0.42182   -0.807949
 O 0.21291 0.38948 0.4756   -0.789039
 O 0.47165 0.53376 0.40333   -1.037265
 O 0.00428 0.1817 0.53564   -0.811077
 O 0.75464 0.26554 0.6007   -0.767863
 O 0.3663 0.07169 0.57818   -0.807949
 O 0.71291 0.11052 0.5244   -0.789039
 O 0.97165 0.96624 0.59667   -1.037265
 O 0.50428 0.3183 0.03564   -0.811077
 O 0.25464 0.23446 0.1007   -0.767862
 O 0.8663 0.42831 0.07818   -0.807949
 O 0.21291 0.38948 0.0244   -0.789038
 O 0.47165 0.53376 0.09667   -1.037265
 O 0.00428 0.1817 0.96436   -0.811077
 O 0.75464 0.26554 0.8993   -0.767862
 O 0.3663 0.07169 0.92182   -0.807949
 O 0.71291 0.11052 0.9756   -0.789038
 O 0.97165 0.96624 0.90333   -1.037265
 O 0.49572 0.6817 0.53564   -0.811077
 O 0.74536 0.76554 0.6007   -0.767862
 O 0.1337 0.57169 0.57818   -0.807949
 O 0.78709 0.61052 0.5244   -0.789038
 O 0.52835 0.46624 0.59667   -1.037265
 O 0.99572 0.8183 0.46436   -0.811077
 O 0.24536 0.73446 0.3993   -0.767862
 O 0.6337 0.92831 0.42182   -0.807949
 O 0.28709 0.88948 0.4756   -0.789038
 O 0.02835 0.03376 0.40333   -1.037265
