{'_ref': 'TBD', '_srcid': 'CAKYAQ_clean', 'submitters': [{'name': 'Dalar Nazarian Jeff Camp and David Sholl', 'email': 'dalar@gatech.edu jcamp6@gatech.edu'}], '_method': 'VASP DFT with PBE;DDEC'}
data_PrH2(CO)7
_symmetry_space_group_name_H-M   'P 1'
_cell_length_a   7.47860040
_cell_length_b   9.83200000
_cell_length_c   14.93330000
_cell_angle_alpha   90.00000000
_cell_angle_beta   100.07799615
_cell_angle_gamma   90.00000000
_symmetry_Int_Tables_number   1
_chemical_formula_structural   PrH2(CO)7
_chemical_formula_sum   'Pr4 H8 C28 O28'
_cell_volume   1081.09731209
_cell_formula_units_Z   4
loop_
 _symmetry_equiv_pos_site_id
 _symmetry_equiv_pos_as_xyz
  1  'x, y, z'
loop_
 _atom_site_label
 _atom_site_fract_x
 _atom_site_fract_y
 _atom_site_fract_z
 _atom_site_charge
 Pr 0.63139 0.44453 0.35634   2.190779
 Pr 0.86861 0.94453 0.14366   2.190779
 Pr 0.36861 0.55547 0.64366   2.19078
 Pr 0.13139 0.05547 0.85634   2.190779
 H 0.7214 0.9532 0.6226   0.139507
 H 0.8216 0.163 0.5453   0.150869
 H 0.7786 0.4532 0.8774   0.139507
 H 0.6784 0.663 0.9547   0.150869
 H 0.2786 0.0468 0.3774   0.139507
 H 0.1784 0.837 0.4547   0.150869
 H 0.2214 0.5468 0.1226   0.139507
 H 0.3216 0.337 0.0453   0.150869
 C 0.6062 0.7298 0.4954   0.777601
 C 0.6859 0.8678 0.4958   0.026056
 C 0.7281 0.9627 0.5613   -0.135239
 C 0.7851 0.0802 0.518   -0.132669
 C 0.7754 0.047 0.4289   -0.003818
 C 0.816 0.1234 0.3497   0.754831
 C 0.9583 0.4652 0.5384   0.565165
 C 0.8938 0.2298 0.0046   0.777601
 C 0.8141 0.3678 0.0042   0.026056
 C 0.7719 0.4627 0.9387   -0.135239
 C 0.7149 0.5802 0.982   -0.132669
 C 0.7246 0.547 0.0711   -0.003818
 C 0.684 0.6234 0.1503   0.754831
 C 0.5417 0.9652 0.9616   0.565165
 C 0.3938 0.2702 0.5046   0.777601
 C 0.3141 0.1322 0.5042   0.026055
 C 0.2719 0.0373 0.4387   -0.135239
 C 0.2149 0.9198 0.482   -0.132669
 C 0.2246 0.953 0.5711   -0.003818
 C 0.184 0.8766 0.6503   0.754831
 C 0.0417 0.5348 0.4616   0.565163
 C 0.1062 0.7702 0.9954   0.777601
 C 0.1859 0.6322 0.9958   0.026055
 C 0.2281 0.5373 0.0613   -0.135239
 C 0.2851 0.4198 0.018   -0.132669
 C 0.2754 0.453 0.9289   -0.003818
 C 0.316 0.3766 0.8497   0.754831
 C 0.4583 0.0348 0.0384   0.565163
 O 0.7955 0.4283 0.5187   -0.639494
 O 0.5809 0.665 0.4216   -0.727544
 O 0.5658 0.6906 0.5691   -0.773101
 O 0.7165 0.916 0.4141   -0.091831
 O 0.8388 0.251 0.359   -0.720214
 O 0.8267 0.059 0.2789   -0.762605
 O 0.06 0.451 0.6141   -0.618294
 O 0.7045 0.9283 0.9813   -0.639494
 O 0.9191 0.165 0.0784   -0.727544
 O 0.9342 0.1906 0.9309   -0.773101
 O 0.7835 0.416 0.0859   -0.091831
 O 0.6612 0.751 0.141   -0.720214
 O 0.6733 0.559 0.2211   -0.762605
 O 0.44 0.951 0.8859   -0.618294
 O 0.2045 0.5717 0.4813   -0.639493
 O 0.4191 0.335 0.5784   -0.727544
 O 0.4342 0.3094 0.4309   -0.773101
 O 0.2835 0.084 0.5859   -0.091831
 O 0.1612 0.749 0.641   -0.720214
 O 0.1733 0.941 0.7211   -0.762605
 O 0.94 0.549 0.3859   -0.618294
 O 0.2955 0.0717 0.0187   -0.639493
 O 0.0809 0.835 0.9216   -0.727544
 O 0.0658 0.8094 0.0691   -0.773101
 O 0.2165 0.584 0.9141   -0.091831
 O 0.3388 0.249 0.859   -0.720214
 O 0.3267 0.441 0.7789   -0.762605
 O 0.56 0.049 0.1141   -0.618294
