{'_ref': 'TBD', '_srcid': 'CAKYAQ_clean', 'submitters': [{'name': 'Dalar Nazarian Jeff Camp and David Sholl', 'email': 'dalar@gatech.edu jcamp6@gatech.edu'}], '_method': 'VASP DFT with PBE;DDEC'}
data_NdH2(CO)7
_symmetry_space_group_name_H-M   'P 1'
_cell_length_a   7.41280030
_cell_length_b   9.77100000
_cell_length_c   14.83830000
_cell_angle_alpha   90.00000000
_cell_angle_beta   99.97879971
_cell_angle_gamma   90.00000000
_symmetry_Int_Tables_number   1
_chemical_formula_structural   NdH2(CO)7
_chemical_formula_sum   'Nd4 H8 C28 O28'
_cell_volume   1058.48625902
_cell_formula_units_Z   4
loop_
 _symmetry_equiv_pos_site_id
 _symmetry_equiv_pos_as_xyz
  1  'x, y, z'
loop_
 _atom_site_label
 _atom_site_fract_x
 _atom_site_fract_y
 _atom_site_fract_z
 _atom_site_charge
 Nd 0.63246 0.4447 0.3566   2.298527
 Nd 0.86754 0.9447 0.1434   2.298527
 Nd 0.36754 0.5553 0.6434   2.298527
 Nd 0.13246 0.0553 0.8566   2.298527
 H 0.7227 0.9535 0.6231   0.135639
 H 0.818 0.1652 0.5452   0.150441
 H 0.7773 0.4535 0.8769   0.135639
 H 0.682 0.6652 0.9548   0.150441
 H 0.2773 0.0465 0.3769   0.135639
 H 0.182 0.8348 0.4548   0.150441
 H 0.2227 0.5465 0.1231   0.135639
 H 0.318 0.3348 0.0452   0.150441
 C 0.6075 0.7288 0.4961   0.802222
 C 0.6864 0.8672 0.4962   0.022302
 C 0.7285 0.963 0.5613   -0.134648
 C 0.7835 0.0813 0.518   -0.129479
 C 0.7756 0.0473 0.4288   -0.008521
 C 0.8158 0.1239 0.3493   0.776241
 C 0.9573 0.4659 0.5382   0.574269
 C 0.8925 0.2288 0.0039   0.802222
 C 0.8136 0.3672 0.0038   0.022302
 C 0.7715 0.463 0.9387   -0.134648
 C 0.7165 0.5813 0.982   -0.129479
 C 0.7244 0.5473 0.0712   -0.008521
 C 0.6842 0.6239 0.1507   0.776241
 C 0.5427 0.9659 0.9618   0.574269
 C 0.3925 0.2712 0.5039   0.802222
 C 0.3136 0.1328 0.5038   0.022302
 C 0.2715 0.037 0.4387   -0.134648
 C 0.2165 0.9187 0.482   -0.129479
 C 0.2244 0.9527 0.5712   -0.008521
 C 0.1842 0.8761 0.6507   0.776241
 C 0.0427 0.5341 0.4618   0.57427
 C 0.1075 0.7712 0.9961   0.802222
 C 0.1864 0.6328 0.9962   0.022302
 C 0.2285 0.537 0.0613   -0.134648
 C 0.2835 0.4187 0.018   -0.129479
 C 0.2756 0.4527 0.9288   -0.008521
 C 0.3158 0.3761 0.8493   0.776241
 C 0.4573 0.0341 0.0382   0.57427
 O 0.7946 0.4275 0.5185   -0.655894
 O 0.5827 0.6637 0.4221   -0.757054
 O 0.5646 0.6897 0.5695   -0.80683
 O 0.7164 0.9154 0.4138   -0.08931
 O 0.8378 0.2512 0.3585   -0.745007
 O 0.8264 0.0594 0.2784   -0.794531
 O 0.059 0.4512 0.6141   -0.638367
 O 0.7054 0.9275 0.9815   -0.655894
 O 0.9173 0.1637 0.0779   -0.757054
 O 0.9354 0.1897 0.9305   -0.80683
 O 0.7836 0.4154 0.0862   -0.08931
 O 0.6622 0.7512 0.1415   -0.745007
 O 0.6736 0.5594 0.2216   -0.794531
 O 0.441 0.9512 0.8859   -0.638367
 O 0.2054 0.5725 0.4815   -0.655895
 O 0.4173 0.3363 0.5779   -0.757054
 O 0.4354 0.3103 0.4305   -0.80683
 O 0.2836 0.0846 0.5862   -0.08931
 O 0.1622 0.7488 0.6415   -0.745007
 O 0.1736 0.9406 0.7216   -0.794531
 O 0.941 0.5488 0.3859   -0.638367
 O 0.2946 0.0725 0.0185   -0.655895
 O 0.0827 0.8363 0.9221   -0.757054
 O 0.0646 0.8103 0.0695   -0.80683
 O 0.2164 0.5846 0.9138   -0.08931
 O 0.3378 0.2488 0.8585   -0.745007
 O 0.3264 0.4406 0.7784   -0.794531
 O 0.559 0.0488 0.1141   -0.638367
