{'_ref': 'TBD', '_srcid': 'CAKYAQ_clean', 'submitters': [{'name': 'Dalar Nazarian Jeff Camp and David Sholl', 'email': 'dalar@gatech.edu jcamp6@gatech.edu'}], '_method': 'VASP DFT with PBE;DDEC'}
data_Co2H18C24N4O9
_symmetry_space_group_name_H-M   'P 1'
_cell_length_a   11.24900000
_cell_length_b   13.23800000
_cell_length_c   26.05000000
_cell_angle_alpha   90.00000000
_cell_angle_beta   90.00000000
_cell_angle_gamma   90.00000000
_symmetry_Int_Tables_number   1
_chemical_formula_structural   Co2H18C24N4O9
_chemical_formula_sum   'Co8 H72 C96 N16 O36'
_cell_volume   3879.2165251
_cell_formula_units_Z   4
loop_
 _symmetry_equiv_pos_site_id
 _symmetry_equiv_pos_as_xyz
  1  'x, y, z'
loop_
 _atom_site_label
 _atom_site_fract_x
 _atom_site_fract_y
 _atom_site_fract_z
 _atom_site_charge
 Co 0.66147 0.56092 0.92048   0.982695
 Co 0.40802 0.43849 0.86307   0.978916
 Co 0.83853 0.43908 0.42048   0.982695
 Co 0.09198 0.56151 0.36307   0.978916
 Co 0.33853 0.06092 0.57952   0.982695
 Co 0.59198 0.93849 0.63693   0.978916
 Co 0.16147 0.93908 0.07952   0.982695
 Co 0.90802 0.06151 0.13693   0.978916
 H 0.6243 0.8149 0.8216   0.129954
 H 0.4344 0.63 0.7313   0.123568
 H 0.7055 0.3039 0.0651   0.129903
 H 0.6145 0.4198 0.0124   0.083856
 H 0.0155 0.6172 0.8445   0.124531
 H 0.9832 0.3156 0.8368   0.130202
 H 0.9196 0.4948 0.9472   0.071186
 H 0.34 0.7643 0.1015   0.085695
 H 0.6439 0.924 0.7517   0.080569
 H 0.2199 0.6 0.8425   0.08575
 H 0.2252 0.6854 0.9368   0.122693
 H 0.0219 0.3724 0.9949   0.138618
 H 0.1449 0.8239 0.9804   0.072059
 H 0.1915 0.3041 0.8379   0.086776
 H 0.4368 0.6363 0.0587   0.128987
 H 0.4603 0.7396 0.6638   0.087511
 H 0.6416 0.4083 0.8563   0.409262
 H 0.6001 0.3699 0.9116   0.409231
 H 0.8757 0.1851 0.3216   0.129954
 H 0.0656 0.37 0.2313   0.123568
 H 0.7945 0.6961 0.5651   0.129903
 H 0.8855 0.5802 0.5124   0.083856
 H 0.4845 0.3828 0.3445   0.124531
 H 0.5168 0.6844 0.3368   0.130202
 H 0.5804 0.5052 0.4472   0.071186
 H 0.16 0.2357 0.6015   0.085695
 H 0.8561 0.076 0.2517   0.080569
 H 0.2801 0.4 0.3425   0.08575
 H 0.2748 0.3146 0.4368   0.122693
 H 0.4781 0.6276 0.4949   0.138618
 H 0.3551 0.1761 0.4804   0.072059
 H 0.3085 0.6959 0.3379   0.086776
 H 0.0632 0.3637 0.5587   0.128987
 H 0.0397 0.2604 0.1638   0.087511
 H 0.8584 0.5917 0.3563   0.409262
 H 0.8999 0.6301 0.4116   0.409231
 H 0.3757 0.3149 0.6784   0.129955
 H 0.5656 0.13 0.7687   0.123568
 H 0.2945 0.8039 0.4349   0.129902
 H 0.3855 0.9198 0.4876   0.083856
 H 0.9845 0.1172 0.6555   0.12453
 H 0.0168 0.8156 0.6632   0.130201
 H 0.0804 0.9948 0.5528   0.071186
 H 0.66 0.2643 0.3985   0.085694
 H 0.3561 0.424 0.7483   0.080569
 H 0.7801 0.1 0.6575   0.08575
 H 0.7748 0.1854 0.5632   0.122693
 H 0.9781 0.8724 0.5051   0.138619
 H 0.8551 0.3239 0.5196   0.072058
 H 0.8085 0.8041 0.6621   0.086776
 H 0.5632 0.1363 0.4413   0.128985
 H 0.5397 0.2396 0.8362   0.087511
 H 0.3584 0.9083 0.6437   0.409262
 H 0.3999 0.8699 0.5884   0.409231
 H 0.1243 0.6851 0.1784   0.129955
 H 0.9344 0.87 0.2687   0.123568
 H 0.2055 0.1961 0.9349   0.129902
 H 0.1145 0.0802 0.9876   0.083856
 H 0.5155 0.8828 0.1555   0.12453
 H 0.4832 0.1844 0.1632   0.130201
 H 0.4196 0.0052 0.0528   0.071186
 H 0.84 0.7357 0.8985   0.085694
 H 0.1439 0.576 0.2483   0.080569
 H 0.7199 0.9 0.1575   0.08575
 H 0.7252 0.8146 0.0632   0.122693
 H 0.5219 0.1276 0.0051   0.138619
 H 0.6449 0.6761 0.0196   0.072058
 H 0.6915 0.1959 0.1621   0.086776
 H 0.9368 0.8637 0.9413   0.128985
 H 0.9603 0.7604 0.3362   0.087511
 H 0.1416 0.0917 0.1437   0.409262
 H 0.1001 0.1301 0.0884   0.409231
 C 0.8413 0.476 0.8462   0.641891
 C 0.9768 0.4672 0.8414   -0.011447
 C 0.5295 0.7088 0.7837   -0.020474
 C 0.5904 0.7974 0.7894   -0.151561
 C 0.4799 0.6897 0.7362   -0.141903
 C 0.936 0.2397 0.0647   0.641869
 C 0.7505 0.3406 0.0405   -0.148249
 C 0.6981 0.4109 0.0097   0.164246
 C 0.0498 0.5517 0.8431   -0.167881
 C 0.03 0.3752 0.839   -0.160669
 C 0.8767 0.4541 0.9709   0.152679
 C 0.319 0.7505 0.0668   0.146523
 C 0.6022 0.8623 0.7471   0.148647
 C 0.1715 0.5412 0.8428   0.148259
 C 0.8749 0.3237 0.0345   -0.027456
 C 0.4142 0.574 0.9597   0.655575
 C 0.3464 0.6502 0.9917   -0.002081
 C 0.2542 0.7033 0.9699   -0.160234
 C 0.9388 0.3818 0.9994   -0.160608
 C 0.2037 0.7841 0.997   0.152751
 C 0.5168 0.6341 0.827   0.659321
 C 0.155 0.3687 0.8398   0.142268
 C 0.3763 0.6736 0.0416   -0.172787
 C 0.495 0.7553 0.6961   0.144647
 C 0.6587 0.524 0.3462   0.641891
 C 0.5232 0.5328 0.3414   -0.011447
 C 0.9705 0.2912 0.2837   -0.020474
 C 0.9096 0.2026 0.2894   -0.151561
 C 0.0201 0.3103 0.2362   -0.141902
 C 0.564 0.7603 0.5647   0.641869
 C 0.7495 0.6594 0.5405   -0.148249
 C 0.8019 0.5891 0.5097   0.164246
 C 0.4502 0.4483 0.3431   -0.167881
 C 0.47 0.6248 0.339   -0.160669
 C 0.6233 0.5459 0.4709   0.152679
 C 0.181 0.2495 0.5668   0.146523
 C 0.8978 0.1377 0.2471   0.148647
 C 0.3285 0.4588 0.3428   0.148259
 C 0.6251 0.6763 0.5345   -0.027455
 C 0.0858 0.426 0.4597   0.655575
 C 0.1536 0.3498 0.4917   -0.002081
 C 0.2458 0.2967 0.4699   -0.160234
 C 0.5612 0.6182 0.4994   -0.160608
 C 0.2963 0.2159 0.497   0.152751
 C 0.9832 0.3659 0.327   0.659321
 C 0.345 0.6313 0.3398   0.142268
 C 0.1237 0.3264 0.5416   -0.172787
 C 0.005 0.2447 0.1961   0.144647
 C 0.1587 0.976 0.6538   0.641891
 C 0.0232 0.9672 0.6586   -0.011448
 C 0.4705 0.2088 0.7163   -0.020474
 C 0.4096 0.2974 0.7106   -0.15156
 C 0.5201 0.1897 0.7638   -0.141902
 C 0.064 0.7397 0.4353   0.641869
 C 0.2495 0.8406 0.4595   -0.148248
 C 0.3019 0.9109 0.4903   0.164246
 C 0.9502 0.0517 0.6569   -0.167881
 C 0.97 0.8752 0.661   -0.160669
 C 0.1233 0.9541 0.5291   0.15268
 C 0.681 0.2505 0.4332   0.146523
 C 0.3978 0.3623 0.7529   0.148647
 C 0.8285 0.0412 0.6572   0.148259
 C 0.1251 0.8237 0.4655   -0.027455
 C 0.5858 0.074 0.5403   0.655575
 C 0.6536 0.1502 0.5083   -0.002081
 C 0.7458 0.2033 0.5301   -0.160234
 C 0.0612 0.8818 0.5006   -0.160608
 C 0.7963 0.2841 0.503   0.152752
 C 0.4832 0.1341 0.673   0.659321
 C 0.845 0.8687 0.6602   0.142269
 C 0.6237 0.1736 0.4584   -0.172787
 C 0.505 0.2553 0.8039   0.144647
 C 0.3413 0.024 0.1538   0.641891
 C 0.4768 0.0328 0.1586   -0.011448
 C 0.0295 0.7912 0.2163   -0.020474
 C 0.0904 0.7026 0.2106   -0.15156
 C 0.9799 0.8103 0.2638   -0.141902
 C 0.436 0.2603 0.9353   0.641869
 C 0.2505 0.1594 0.9595   -0.148248
 C 0.1981 0.0891 0.9903   0.164246
 C 0.5498 0.9483 0.1569   -0.167881
 C 0.53 0.1248 0.161   -0.160669
 C 0.3767 0.0459 0.0291   0.15268
 C 0.819 0.7495 0.9332   0.146523
 C 0.1022 0.6377 0.2529   0.148647
 C 0.6715 0.9588 0.1572   0.148259
 C 0.3749 0.1763 0.9655   -0.027455
 C 0.9142 0.926 0.0403   0.655575
 C 0.8464 0.8498 0.0083   -0.002081
 C 0.7542 0.7967 0.0301   -0.160234
 C 0.4388 0.1182 0.000599999999999   -0.160608
 C 0.7037 0.7159 0.003   0.152752
 C 0.0168 0.8659 0.173   0.659321
 C 0.655 0.1313 0.1602   0.142269
 C 0.8763 0.8264 0.9584   -0.172787
 C 0.995 0.7447 0.3039   0.144647
 N 0.2235 0.4506 0.843   -0.330335
 N 0.5581 0.8419 0.7011   -0.353032
 N 0.7581 0.4687 0.9757   -0.368603
 N 0.2343 0.8073 0.0446   -0.328076
 N 0.2765 0.5494 0.343   -0.330335
 N 0.9419 0.1581 0.2011   -0.353032
 N 0.7419 0.5313 0.4757   -0.368603
 N 0.2657 0.1927 0.5446   -0.328076
 N 0.7765 0.9506 0.657   -0.330335
 N 0.4419 0.3419 0.7989   -0.353032
 N 0.2419 0.9687 0.5243   -0.368603
 N 0.7657 0.3073 0.4554   -0.328077
 N 0.7235 0.0494 0.157   -0.330335
 N 0.0581 0.6581 0.2989   -0.353032
 N 0.2581 0.0313 0.0243   -0.368603
 N 0.7343 0.6927 0.9554   -0.328077
 O 0.5216 0.5618 0.97216   -0.589947
 O 0.5724 0.653 0.86768   -0.592485
 O 0.4496 0.559 0.81793   -0.592794
 O 0.3595 0.5323 0.92375   -0.577478
 O 0.8051 0.553 0.8706   -0.612395
 O 0.869 0.187 0.09271   -0.599611
 O 0.7803 0.4052 0.8294   -0.587886
 O 0.0459 0.2306 0.059   -0.589943
 O 0.5927 0.4258 0.88662   -0.812703
 O 0.9784 0.4382 0.47216   -0.589947
 O 0.9276 0.347 0.36768   -0.592485
 O 0.0504 0.441 0.31793   -0.592794
 O 0.1405 0.4677 0.42375   -0.577478
 O 0.6949 0.447 0.3706   -0.612395
 O 0.631 0.813 0.59271   -0.599611
 O 0.7197 0.5948 0.3294   -0.587886
 O 0.4541 0.7694 0.559   -0.589943
 O 0.9073 0.5742 0.38662   -0.812703
 O 0.4784 0.0618 0.52784   -0.589947
 O 0.4276 0.153 0.63232   -0.592485
 O 0.5504 0.059 0.68207   -0.592794
 O 0.6405 0.0323 0.57625   -0.577478
 O 0.1949 0.053 0.6294   -0.612395
 O 0.131 0.687 0.40729   -0.599611
 O 0.2197 0.9052 0.6706   -0.587886
 O 0.9541 0.7306 0.441   -0.589943
 O 0.4073 0.9258 0.61338   -0.812703
 O 0.0216 0.9382 0.02784   -0.589947
 O 0.0724 0.847 0.13232   -0.592485
 O 0.9496 0.941 0.18207   -0.592794
 O 0.8595 0.9677 0.07625   -0.577478
 O 0.3051 0.947 0.1294   -0.612395
 O 0.369 0.313 0.90729   -0.599611
 O 0.2803 0.0948 0.1706   -0.587886
 O 0.5459 0.2694 0.941   -0.589943
 O 0.0927 0.0742 0.11338   -0.812703
