{'_ref': 'TBD', '_srcid': 'CAKYAQ_clean', 'submitters': [{'name': 'Dalar Nazarian Jeff Camp and David Sholl', 'email': 'dalar@gatech.edu jcamp6@gatech.edu'}], '_method': 'VASP DFT with PBE;DDEC'}
data_Mn3H18C34(O5F6)2
_symmetry_space_group_name_H-M   'P 1'
_cell_length_a   7.27700000
_cell_length_b   16.43400030
_cell_length_c   31.83700000
_cell_angle_alpha   90.00000000
_cell_angle_beta   90.00000000
_cell_angle_gamma   99.98000130
_symmetry_Int_Tables_number   1
_chemical_formula_structural   Mn3H18C34(O5F6)2
_chemical_formula_sum   'Mn12 H72 C136 O40 F48'
_cell_volume   3749.78151304
_cell_formula_units_Z   4
loop_
 _symmetry_equiv_pos_site_id
 _symmetry_equiv_pos_as_xyz
  1  'x, y, z'
loop_
 _atom_site_label
 _atom_site_fract_x
 _atom_site_fract_y
 _atom_site_fract_z
 _atom_site_charge
 Mn 0.74764 0.60147 0.07068   1.133634
 Mn 0.72646 0.37486 0.92635   1.202192
 Mn 0.25236 0.89853 0.57068   1.133634
 Mn 0.27354 0.12514 0.42635   1.202192
 Mn 0.25236 0.39853 0.92932   1.133634
 Mn 0.27354 0.62514 0.07365   1.202192
 Mn 0.74764 0.10147 0.42932   1.133634
 Mn 0.72646 0.87486 0.57365   1.202192
 Mn 0.0 0.5 0.0   1.288911
 Mn 0.0 0.0 0.5   1.288911
 Mn 0.5 0.5 0.0   1.216547
 Mn 0.5 0.0 0.5   1.216547
 H 0.8497 0.2322 0.997   0.1063
 H 0.8782 0.199 0.2891   0.105948
 H 0.9419 0.1249 0.0333   0.108092
 H 0.7944 0.2185 0.1419   0.095576
 H 0.6728 0.3188 0.105   0.103872
 H 0.1052 0.9526 0.0919   0.097936
 H 0.955 0.8251 0.0686   0.101967
 H 0.6171 0.0345 0.0927   0.099485
 H 0.226 0.3897 0.0989   0.108628
 H 0.398 0.3424 0.1518   0.099916
 H 0.1041 0.4448 0.2379   0.113589
 H 0.2603 0.2972 0.3745   0.091074
 H 0.926 0.4881 0.1851   0.099263
 H 0.436 0.3704 0.3222   0.102979
 H 0.0623 0.2682 0.2362   0.101764
 H 0.459 0.904 0.074   0.10565
 H 0.79 0.613 0.9973   0.463492
 H 0.439 0.504 0.0774   0.447606
 H 0.1503 0.2678 0.497   0.1063
 H 0.1218 0.301 0.7891   0.105948
 H 0.0581 0.3751 0.5333   0.108092
 H 0.2056 0.2815 0.6419   0.095576
 H 0.3272 0.1812 0.605   0.103872
 H 0.8948 0.5474 0.5919   0.097936
 H 0.045 0.6749 0.5686   0.101967
 H 0.3829 0.4655 0.5927   0.099485
 H 0.774 0.1103 0.5989   0.108628
 H 0.602 0.1576 0.6518   0.099916
 H 0.8959 0.0552 0.7379   0.113589
 H 0.7397 0.2028 0.8745   0.091074
 H 0.074 0.0119 0.6851   0.099263
 H 0.564 0.1296 0.8222   0.102979
 H 0.9377 0.2318 0.7362   0.101764
 H 0.541 0.596 0.574   0.10565
 H 0.21 0.887 0.4973   0.463492
 H 0.561 0.996 0.5774   0.447606
 H 0.1503 0.7678 0.003   0.1063
 H 0.1218 0.801 0.7109   0.105948
 H 0.0581 0.8751 0.9667   0.108092
 H 0.2056 0.7815 0.8581   0.095576
 H 0.3272 0.6812 0.895   0.103872
 H 0.8948 0.0474 0.9081   0.097936
 H 0.045 0.1749 0.9314   0.101966
 H 0.3829 0.9655 0.9073   0.099485
 H 0.774 0.6103 0.9011   0.108628
 H 0.602 0.6576 0.8482   0.099916
 H 0.8959 0.5552 0.7621   0.113589
 H 0.7397 0.7028 0.6255   0.091073
 H 0.074 0.5119 0.8149   0.099263
 H 0.564 0.6296 0.6778   0.102979
 H 0.9377 0.7318 0.7638   0.101763
 H 0.541 0.096 0.926   0.10565
 H 0.21 0.387 0.0027   0.463492
 H 0.561 0.496 0.9226   0.447606
 H 0.8497 0.7322 0.503   0.1063
 H 0.8782 0.699 0.2109   0.105948
 H 0.9419 0.6249 0.4667   0.108092
 H 0.7944 0.7185 0.3581   0.095576
 H 0.6728 0.8188 0.395   0.103872
 H 0.1052 0.4526 0.4081   0.097936
 H 0.955 0.3251 0.4314   0.101966
 H 0.6171 0.5345 0.4073   0.099485
 H 0.226 0.8897 0.4011   0.108628
 H 0.398 0.8424 0.3482   0.099916
 H 0.1041 0.9448 0.2621   0.113589
 H 0.2603 0.7972 0.1255   0.091073
 H 0.926 0.9881 0.3149   0.099263
 H 0.436 0.8704 0.1778   0.102979
 H 0.0623 0.7682 0.2638   0.101763
 H 0.459 0.404 0.426   0.10565
 H 0.79 0.113 0.5027   0.463492
 H 0.439 0.004 0.4226   0.447606
 C 0.6937 0.3567 0.02384   0.70901
 C 0.751 0.2864 0.0473   -0.15164
 C 0.8342 0.2284 0.02597   -0.015643
 C 0.8936 0.1654 0.0479   -0.142489
 C 0.8825 0.1613 0.09171   0.08602
 C 0.8019 0.22 0.11274   -0.142411
 C 0.732 0.2813 0.09071   -0.021543
 C 0.9658 0.092 0.11321   -0.293141
 C 0.929 0.0867 0.16116   0.680902
 C 0.1809 0.1118 0.10688   0.688626
 C 0.878 0.0067 0.09518   0.077173
 C 0.9767 0.9435 0.08777   -0.150209
 C 0.8865 0.8666 0.07429   -0.010722
 C 0.6932 0.8514 0.06918   -0.140815
 C 0.5944 0.9147 0.07598   -0.032948
 C 0.6849 0.9921 0.08861   -0.130023
 C 0.5985 0.7646 0.05874   0.699844
 C 0.9603 0.4825 0.10265   0.670934
 C 0.0616 0.4457 0.13645   -0.176476
 C 0.2018 0.4008 0.12677   -0.024728
 C 0.3052 0.3726 0.15847   -0.127604
 C 0.2708 0.3894 0.20034   0.083875
 C 0.1283 0.4334 0.20998   -0.133185
 C 0.023 0.4602 0.17833   -0.014318
 C 0.3912 0.3659 0.23679   -0.294639
 C 0.5111 0.3008 0.2239   0.685363
 C 0.5244 0.4462 0.2501   0.687776
 C 0.2691 0.3269 0.27358   0.075653
 C 0.3258 0.3352 0.3153   -0.130436
 C 0.2201 0.2915 0.34676   -0.026868
 C 0.0535 0.2392 0.33702   -0.162647
 C 0.9916 0.232 0.29567   -0.011366
 C 0.1013 0.2746 0.26404   -0.137395
 C 0.9435 0.1894 0.3706   0.681944
 C 0.3063 0.1433 0.52384   0.70901
 C 0.249 0.2136 0.5473   -0.15164
 C 0.1658 0.2716 0.52597   -0.015643
 C 0.1064 0.3346 0.5479   -0.142489
 C 0.1175 0.3387 0.59171   0.08602
 C 0.1981 0.28 0.61274   -0.142411
 C 0.268 0.2187 0.59071   -0.021543
 C 0.0342 0.408 0.61321   -0.293141
 C 0.071 0.4133 0.66116   0.680902
 C 0.8191 0.3882 0.60688   0.688626
 C 0.122 0.4933 0.59518   0.077173
 C 0.0233 0.5565 0.58777   -0.150209
 C 0.1135 0.6334 0.57429   -0.010722
 C 0.3068 0.6486 0.56918   -0.140815
 C 0.4056 0.5853 0.57598   -0.032948
 C 0.3151 0.5079 0.58861   -0.130023
 C 0.4015 0.7354 0.55874   0.699844
 C 0.0397 0.0175 0.60265   0.670934
 C 0.9384 0.0543 0.63645   -0.176476
 C 0.7982 0.0992 0.62677   -0.024728
 C 0.6948 0.1274 0.65847   -0.127604
 C 0.7292 0.1106 0.70034   0.083875
 C 0.8717 0.0666 0.70998   -0.133185
 C 0.977 0.0398 0.67833   -0.014318
 C 0.6088 0.1341 0.73679   -0.294639
 C 0.4889 0.1992 0.7239   0.685363
 C 0.4756 0.0538 0.7501   0.687776
 C 0.7309 0.1731 0.77358   0.075653
 C 0.6742 0.1648 0.8153   -0.130436
 C 0.7799 0.2085 0.84676   -0.026868
 C 0.9465 0.2608 0.83702   -0.162647
 C 0.0084 0.268 0.79567   -0.011366
 C 0.8987 0.2254 0.76404   -0.137395
 C 0.0565 0.3106 0.8706   0.681944
 C 0.3063 0.6433 0.97616   0.70901
 C 0.249 0.7136 0.9527   -0.15164
 C 0.1658 0.7716 0.97403   -0.015643
 C 0.1064 0.8346 0.9521   -0.142489
 C 0.1175 0.8387 0.90829   0.08602
 C 0.1981 0.78 0.88726   -0.142411
 C 0.268 0.7187 0.90929   -0.021543
 C 0.0342 0.908 0.88679   -0.293141
 C 0.071 0.9133 0.83884   0.680902
 C 0.8191 0.8882 0.89312   0.688626
 C 0.122 0.9933 0.90482   0.077173
 C 0.0233 0.0565 0.91223   -0.150209
 C 0.1135 0.1334 0.92571   -0.010722
 C 0.3068 0.1486 0.93082   -0.140815
 C 0.4056 0.0853 0.92402   -0.032948
 C 0.3151 0.0079 0.91139   -0.130023
 C 0.4015 0.2354 0.94126   0.699844
 C 0.0397 0.5175 0.89735   0.670934
 C 0.9384 0.5543 0.86355   -0.176476
 C 0.7982 0.5992 0.87323   -0.024728
 C 0.6948 0.6274 0.84153   -0.127604
 C 0.7292 0.6106 0.79966   0.083875
 C 0.8717 0.5666 0.79002   -0.133185
 C 0.977 0.5398 0.82167   -0.014318
 C 0.6088 0.6341 0.76321   -0.294639
 C 0.4889 0.6992 0.7761   0.685363
 C 0.4756 0.5538 0.7499   0.687776
 C 0.7309 0.6731 0.72642   0.075653
 C 0.6742 0.6648 0.6847   -0.130436
 C 0.7799 0.7085 0.65324   -0.026868
 C 0.9465 0.7608 0.66298   -0.162647
 C 0.0084 0.768 0.70433   -0.011366
 C 0.8987 0.7254 0.73596   -0.137395
 C 0.0565 0.8106 0.6294   0.681944
 C 0.6937 0.8567 0.47616   0.70901
 C 0.751 0.7864 0.4527   -0.15164
 C 0.8342 0.7284 0.47403   -0.015643
 C 0.8936 0.6654 0.4521   -0.142489
 C 0.8825 0.6613 0.40829   0.08602
 C 0.8019 0.72 0.38726   -0.142411
 C 0.732 0.7813 0.40929   -0.021543
 C 0.9658 0.592 0.38679   -0.293141
 C 0.929 0.5867 0.33884   0.680902
 C 0.1809 0.6118 0.39312   0.688626
 C 0.878 0.5067 0.40482   0.077173
 C 0.9767 0.4435 0.41223   -0.150209
 C 0.8865 0.3666 0.42571   -0.010722
 C 0.6932 0.3514 0.43082   -0.140815
 C 0.5944 0.4147 0.42402   -0.032948
 C 0.6849 0.4921 0.41139   -0.130023
 C 0.5985 0.2646 0.44126   0.699844
 C 0.9603 0.9825 0.39735   0.670934
 C 0.0616 0.9457 0.36355   -0.176476
 C 0.2018 0.9008 0.37323   -0.024728
 C 0.3052 0.8726 0.34153   -0.127604
 C 0.2708 0.8894 0.29966   0.083875
 C 0.1283 0.9334 0.29002   -0.133185
 C 0.023 0.9602 0.32167   -0.014318
 C 0.3912 0.8659 0.26321   -0.294639
 C 0.5111 0.8008 0.2761   0.685363
 C 0.5244 0.9462 0.2499   0.687776
 C 0.2691 0.8269 0.22642   0.075653
 C 0.3258 0.8352 0.1847   -0.130436
 C 0.2201 0.7915 0.15324   -0.026868
 C 0.0535 0.7392 0.16298   -0.162647
 C 0.9916 0.732 0.20433   -0.011366
 C 0.1013 0.7746 0.23596   -0.137395
 C 0.9435 0.6894 0.1294   0.681944
 O 0.7995 0.38344 0.9924   -0.726966
 O 0.5604 0.38862 0.03535   -0.567735
 O 0.6976 0.71536 0.04534   -0.626694
 O 0.4238 0.74729 0.06543   -0.633698
 O 0.0524 0.50275 0.06866   -0.725354
 O 0.7996 0.49643 0.10888   -0.550848
 O 0.0263 0.16913 0.40313   -0.680585
 O 0.7705 0.1678 0.36616   -0.566021
 O 0.7808 0.56559 0.00767   -1.02582
 O 0.4672 0.54652 0.06413   -1.021722
 O 0.2005 0.11656 0.4924   -0.726966
 O 0.4396 0.11138 0.53535   -0.567735
 O 0.3024 0.78464 0.54534   -0.626694
 O 0.5762 0.75271 0.56543   -0.633698
 O 0.9476 0.99725 0.56866   -0.725354
 O 0.2004 0.00357 0.60888   -0.550848
 O 0.9737 0.33087 0.90313   -0.680585
 O 0.2295 0.3322 0.86616   -0.566021
 O 0.2192 0.93441 0.50767   -1.02582
 O 0.5328 0.95348 0.56413   -1.021722
 O 0.2005 0.61656 0.0076   -0.726966
 O 0.4396 0.61138 0.96465   -0.567735
 O 0.3024 0.28464 0.95466   -0.626694
 O 0.5762 0.25271 0.93457   -0.633698
 O 0.9476 0.49725 0.93134   -0.725354
 O 0.2004 0.50357 0.89112   -0.550848
 O 0.9737 0.83087 0.59687   -0.680585
 O 0.2295 0.8322 0.63384   -0.566021
 O 0.2192 0.43441 0.99233   -1.02582
 O 0.5328 0.45348 0.93587   -1.021722
 O 0.7995 0.88344 0.5076   -0.726966
 O 0.5604 0.88862 0.46465   -0.567735
 O 0.6976 0.21536 0.45466   -0.626694
 O 0.4238 0.24729 0.43457   -0.633698
 O 0.0524 0.00275 0.43134   -0.725354
 O 0.7996 0.99643 0.39112   -0.550848
 O 0.0263 0.66913 0.09687   -0.680585
 O 0.7705 0.6678 0.13384   -0.566021
 O 0.7808 0.06559 0.49233   -1.02582
 O 0.4672 0.04652 0.43587   -1.021722
 F 0.2464 0.19167 0.11516   -0.210217
 F 0.2291 0.09837 0.06743   -0.192154
 F 0.2749 0.06762 0.13155   -0.19607
 F 0.9832 0.02122 0.17819   -0.190617
 F 0.0178 0.15386 0.18152   -0.198126
 F 0.7463 0.08102 0.16933   -0.197536
 F 0.5973 0.48886 0.21648   -0.200788
 F 0.4317 0.4957 0.27166   -0.196804
 F 0.6666 0.43202 0.27355   -0.199083
 F 0.4083 0.23605 0.20534   -0.192401
 F 0.6495 0.33134 0.19708   -0.198395
 F 0.5936 0.27208 0.25698   -0.199933
 F 0.7536 0.30833 0.61516   -0.210217
 F 0.7709 0.40163 0.56743   -0.192154
 F 0.7251 0.43238 0.63155   -0.19607
 F 0.0168 0.47878 0.67819   -0.190617
 F 0.9822 0.34614 0.68152   -0.198126
 F 0.2537 0.41898 0.66933   -0.197536
 F 0.4027 0.01114 0.71648   -0.200788
 F 0.5683 0.0043 0.77166   -0.196804
 F 0.3334 0.06798 0.77355   -0.199083
 F 0.5917 0.26395 0.70534   -0.192401
 F 0.3505 0.16866 0.69708   -0.198395
 F 0.4064 0.22792 0.75698   -0.199933
 F 0.7536 0.80833 0.88484   -0.210217
 F 0.7709 0.90163 0.93257   -0.192154
 F 0.7251 0.93238 0.86845   -0.196069
 F 0.0168 0.97878 0.82181   -0.190617
 F 0.9822 0.84614 0.81848   -0.198126
 F 0.2537 0.91898 0.83067   -0.197536
 F 0.4027 0.51114 0.78352   -0.200788
 F 0.5683 0.5043 0.72834   -0.196802
 F 0.3334 0.56798 0.72645   -0.199083
 F 0.5917 0.76395 0.79466   -0.1924
 F 0.3505 0.66866 0.80292   -0.198395
 F 0.4064 0.72792 0.74302   -0.199932
 F 0.2464 0.69167 0.38484   -0.210217
 F 0.2291 0.59837 0.43257   -0.192154
 F 0.2749 0.56762 0.36845   -0.196069
 F 0.9832 0.52122 0.32181   -0.190617
 F 0.0178 0.65386 0.31848   -0.198126
 F 0.7463 0.58102 0.33067   -0.197536
 F 0.5973 0.98886 0.28352   -0.200788
 F 0.4317 0.9957 0.22834   -0.196802
 F 0.6666 0.93202 0.22645   -0.199083
 F 0.4083 0.73605 0.29466   -0.1924
 F 0.6495 0.83134 0.30292   -0.198395
 F 0.5936 0.77208 0.24302   -0.199932
