{'_ref': 'TBD', '_srcid': 'CAKYAQ_clean', 'submitters': [{'name': 'Dalar Nazarian Jeff Camp and David Sholl', 'email': 'dalar@gatech.edu jcamp6@gatech.edu'}], '_method': 'VASP DFT with PBE;DDEC'}
data_ZnH11C11NO6
_symmetry_space_group_name_H-M   'P 1'
_cell_length_a   9.32000000
_cell_length_b   12.60799951
_cell_length_c   16.10700000
_cell_angle_alpha   90.00000000
_cell_angle_beta   90.00000000
_cell_angle_gamma   100.94199992
_symmetry_Int_Tables_number   1
_chemical_formula_structural   ZnH11C11NO6
_chemical_formula_sum   'Zn4 H44 C44 N4 O24'
_cell_volume   1858.26888864
_cell_formula_units_Z   4
loop_
 _symmetry_equiv_pos_site_id
 _symmetry_equiv_pos_as_xyz
  1  'x, y, z'
loop_
 _atom_site_label
 _atom_site_fract_x
 _atom_site_fract_y
 _atom_site_fract_z
 _atom_site_charge
 Zn 0.36729 0.02326 0.91258   1.053061
 Zn 0.13271 0.47674 0.41258   1.053061
 Zn 0.63271 0.97674 0.08742   1.053061
 Zn 0.86729 0.52326 0.58742   1.053061
 H 0.958 0.0906 0.9179   0.083782
 H 0.0845 0.2958 0.7309   0.083191
 H 0.6676 0.2403 0.8068   0.094096
 H 0.542 0.4094 0.4179   0.083782
 H 0.4155 0.2042 0.2309   0.083191
 H 0.8324 0.2597 0.3068   0.094096
 H 0.042 0.9094 0.0821   0.083782
 H 0.9155 0.7042 0.2691   0.083191
 H 0.3324 0.7597 0.1932   0.094096
 H 0.458 0.5906 0.5821   0.083782
 H 0.5845 0.7958 0.7691   0.083191
 H 0.1676 0.7403 0.6932   0.094096
 H 0.06 0.7149 0.953   0.128616
 H 0.9908 0.6141 0.8997   0.128558
 H 0.9015 0.6525 0.9726   0.115872
 H 0.8065 0.8243 0.9528   0.125269
 H 0.8238 0.8748 0.8635   0.135784
 H 0.9575 0.8916 0.9243   0.141005
 H 0.8346 0.7031 0.8504   0.281312
 H 0.9805 0.7626 0.8342   0.29062
 H 0.44 0.7851 0.453   0.128616
 H 0.5092 0.8859 0.3997   0.128558
 H 0.5985 0.8475 0.4726   0.115872
 H 0.6935 0.6757 0.4528   0.125269
 H 0.6762 0.6252 0.3635   0.135784
 H 0.5425 0.6084 0.4243   0.141005
 H 0.6654 0.7969 0.3504   0.281312
 H 0.5195 0.7374 0.3342   0.29062
 H 0.94 0.2851 0.047   0.128616
 H 0.0092 0.3859 0.1003   0.128558
 H 0.0985 0.3475 0.0274   0.115872
 H 0.1935 0.1757 0.0472   0.125269
 H 0.1762 0.1252 0.1365   0.135784
 H 0.0425 0.1084 0.0757   0.141005
 H 0.1654 0.2969 0.1496   0.281312
 H 0.0195 0.2374 0.1658   0.29062
 H 0.56 0.2149 0.547   0.128616
 H 0.4908 0.1141 0.6003   0.128558
 H 0.4015 0.1525 0.5274   0.115872
 H 0.3065 0.3243 0.5472   0.125269
 H 0.3238 0.3748 0.6365   0.135784
 H 0.4575 0.3916 0.5757   0.141005
 H 0.3346 0.2031 0.6496   0.281312
 H 0.4805 0.2626 0.6658   0.29062
 C 0.7939 0.158 0.8724   -0.187912
 C 0.9357 0.1381 0.8778   0.00699
 C 0.044 0.1882 0.824   -0.18923
 C 0.0113 0.2602 0.7657   0.017737
 C 0.8698 0.2801 0.7585   -0.177362
 C 0.7625 0.228 0.8118   0.019008
 C 0.6791 0.103 0.932   0.722423
 C 0.1966 0.1623 0.8305   0.714998
 C 0.8327 0.3569 0.6938   0.691267
 C 0.7061 0.342 0.3724   -0.187912
 C 0.5643 0.3619 0.3778   0.00699
 C 0.456 0.3118 0.324   -0.18923
 C 0.4887 0.2398 0.2657   0.017737
 C 0.6302 0.2199 0.2585   -0.177362
 C 0.7375 0.272 0.3118   0.019008
 C 0.8209 0.397 0.432   0.722423
 C 0.3034 0.3377 0.3305   0.714998
 C 0.6673 0.1431 0.1938   0.691267
 C 0.2061 0.842 0.1276   -0.187912
 C 0.0643 0.8619 0.1222   0.00699
 C 0.956 0.8118 0.176   -0.18923
 C 0.9887 0.7398 0.2343   0.017737
 C 0.1302 0.7199 0.2415   -0.177362
 C 0.2375 0.772 0.1882   0.019008
 C 0.3209 0.897 0.068   0.722423
 C 0.8034 0.8377 0.1695   0.714998
 C 0.1673 0.6431 0.3062   0.691267
 C 0.2939 0.658 0.6276   -0.187912
 C 0.4357 0.6381 0.6222   0.00699
 C 0.544 0.6882 0.676   -0.18923
 C 0.5113 0.7602 0.7343   0.017737
 C 0.3698 0.7801 0.7415   -0.177362
 C 0.2625 0.728 0.6882   0.019008
 C 0.1791 0.603 0.568   0.722423
 C 0.6966 0.6623 0.6695   0.714998
 C 0.3327 0.8569 0.8062   0.691267
 C 0.971 0.6759 0.9292   -0.217505
 C 0.8718 0.842 0.9066   -0.215918
 C 0.529 0.8241 0.4292   -0.217505
 C 0.6282 0.658 0.4066   -0.215918
 C 0.029 0.3241 0.0708   -0.217505
 C 0.1282 0.158 0.0934   -0.215918
 C 0.471 0.1759 0.5708   -0.217505
 C 0.3718 0.342 0.5934   -0.215918
 N 0.914 0.743 0.8745   -0.036598
 N 0.586 0.757 0.3745   -0.036598
 N 0.086 0.257 0.1255   -0.036598
 N 0.414 0.243 0.6255   -0.036598
 O 0.5537 0.125 0.9257   -0.635474
 O 0.7165 0.0391 0.9829   -0.614253
 O 0.2141 0.102 0.8912   -0.643327
 O 0.2902 0.1984 0.78   -0.647646
 O 0.9367 0.4245 0.664   -0.623689
 O 0.703 0.3516 0.6733   -0.644676
 O 0.9463 0.375 0.4257   -0.635474
 O 0.7835 0.4609 0.4829   -0.614253
 O 0.2859 0.398 0.3912   -0.643327
 O 0.2098 0.3016 0.28   -0.647646
 O 0.5633 0.0755 0.164   -0.623689
 O 0.797 0.1484 0.1733   -0.644676
 O 0.4463 0.875 0.0743   -0.635474
 O 0.2835 0.9609 0.0171   -0.614252
 O 0.7859 0.898 0.1088   -0.643327
 O 0.7098 0.8016 0.22   -0.647646
 O 0.0633 0.5755 0.336   -0.623689
 O 0.297 0.6484 0.3267   -0.644676
 O 0.0537 0.625 0.5743   -0.635474
 O 0.2165 0.5391 0.5171   -0.614253
 O 0.7141 0.602 0.6088   -0.643327
 O 0.7902 0.6984 0.72   -0.647646
 O 0.4367 0.9245 0.836   -0.623689
 O 0.203 0.8516 0.8267   -0.644676
