{'_ref': 'TBD', '_srcid': 'CAKYAQ_clean', 'submitters': [{'name': 'Dalar Nazarian Jeff Camp and David Sholl', 'email': 'dalar@gatech.edu jcamp6@gatech.edu'}], '_method': 'VASP DFT with PBE;DDEC'}
data_CuH7C12N3O4
_symmetry_space_group_name_H-M   'P 1'
_cell_length_a   4.71090000
_cell_length_b   11.00199980
_cell_length_c   31.85800000
_cell_angle_alpha   90.00000000
_cell_angle_beta   90.00000000
_cell_angle_gamma   96.00800066
_symmetry_Int_Tables_number   1
_chemical_formula_structural   CuH7C12N3O4
_chemical_formula_sum   'Cu4 H28 C48 N12 O16'
_cell_volume   1642.10905836
_cell_formula_units_Z   4
loop_
 _symmetry_equiv_pos_site_id
 _symmetry_equiv_pos_as_xyz
  1  'x, y, z'
loop_
 _atom_site_label
 _atom_site_fract_x
 _atom_site_fract_y
 _atom_site_fract_z
 _atom_site_charge
 Cu 0.501 0.411 0.8042   0.975335
 Cu 0.499 0.089 0.3042   0.975335
 Cu 0.499 0.589 0.1958   0.975335
 Cu 0.501 0.911 0.6958   0.975335
 H 0.6313 0.461 0.7081   0.129247
 H 0.4489 0.3641 0.6468   0.094915
 H 0.7333 0.4606 0.013   0.090847
 H 0.4521 0.5909 0.8714   0.077524
 H 0.6163 0.6238 0.9404   0.138162
 H 0.7825 0.2644 0.8694   0.113223
 H 0.9468 0.2973 0.9384   0.142963
 H 0.3687 0.039 0.2081   0.129247
 H 0.5511 0.1359 0.1468   0.094915
 H 0.2667 0.0394 0.513   0.090847
 H 0.5479 0.9091 0.3714   0.077524
 H 0.3837 0.8762 0.4404   0.138162
 H 0.2175 0.2356 0.3694   0.113223
 H 0.0532 0.2027 0.4384   0.142963
 H 0.3687 0.539 0.2919   0.129247
 H 0.5511 0.6359 0.3532   0.094912
 H 0.2667 0.5394 0.987   0.090834
 H 0.5479 0.4091 0.1286   0.077524
 H 0.3837 0.3762 0.0596   0.13816
 H 0.2175 0.7356 0.1306   0.113223
 H 0.0532 0.7027 0.0616   0.142958
 H 0.6313 0.961 0.7919   0.129247
 H 0.4489 0.8641 0.8532   0.094912
 H 0.7333 0.9606 0.487   0.090834
 H 0.4521 0.0909 0.6286   0.077524
 H 0.6163 0.1238 0.5596   0.13816
 H 0.7825 0.7644 0.6306   0.113223
 H 0.9468 0.7973 0.5616   0.142958
 C 0.88268 0.48055 0.99341   -0.110042
 C 0.2165 0.177 0.7947   0.552296
 C 0.2674 0.2294 0.7493   0.043884
 C 0.5095 0.3867 0.7098   0.097286
 C 0.3975 0.3286 0.6733   0.127253
 C 0.1552 0.1753 0.7121   0.115392
 C 0.9683 0.0572 0.7084   0.689602
 C 0.7489 0.3372 0.8838   0.194095
 C 0.5523 0.5315 0.885   0.174605
 C 0.65 0.551 0.926   -0.228228
 C 0.8466 0.3568 0.9248   -0.227198
 C 0.7971 0.4637 0.9459   0.139889
 C 0.11732 0.01945 0.49341   -0.110042
 C 0.7835 0.323 0.2947   0.552296
 C 0.7326 0.2706 0.2493   0.043884
 C 0.4905 0.1133 0.2098   0.097286
 C 0.6025 0.1714 0.1733   0.127253
 C 0.8448 0.3247 0.2121   0.115392
 C 0.0317 0.4428 0.2084   0.689602
 C 0.2511 0.1628 0.3838   0.194095
 C 0.4477 0.9685 0.385   0.174605
 C 0.35 0.949 0.426   -0.228228
 C 0.1534 0.1432 0.4248   -0.227198
 C 0.2029 0.0363 0.4459   0.139889
 C 0.11732 0.51945 0.00659   -0.10988
 C 0.7835 0.823 0.2053   0.552296
 C 0.7326 0.7706 0.2507   0.043884
 C 0.4905 0.6133 0.2902   0.097286
 C 0.6025 0.6714 0.3267   0.127254
 C 0.8448 0.8247 0.2879   0.115392
 C 0.0317 0.9428 0.2916   0.689602
 C 0.2511 0.6628 0.1162   0.194095
 C 0.4477 0.4685 0.115   0.174605
 C 0.35 0.449 0.074   -0.228225
 C 0.1534 0.6432 0.0752   -0.227195
 C 0.2029 0.5363 0.0541   0.13987
 C 0.88268 0.98055 0.50659   -0.10988
 C 0.2165 0.677 0.7053   0.552296
 C 0.2674 0.7294 0.7507   0.043884
 C 0.5095 0.8867 0.7902   0.097286
 C 0.3975 0.8286 0.8267   0.127254
 C 0.1552 0.6753 0.7879   0.115392
 C 0.9683 0.5572 0.7916   0.689602
 C 0.7489 0.8372 0.6162   0.194095
 C 0.5523 0.0315 0.615   0.174605
 C 0.65 0.051 0.574   -0.228225
 C 0.8466 0.8568 0.5752   -0.227195
 C 0.7971 0.9637 0.5541   0.13987
 N 0.4395 0.334 0.7481   -0.236155
 N 0.2233 0.2264 0.6743   -0.371278
 N 0.6017 0.4246 0.8639   -0.347403
 N 0.5605 0.166 0.2481   -0.236155
 N 0.7767 0.2736 0.1743   -0.371278
 N 0.3983 0.0754 0.3639   -0.347403
 N 0.5605 0.666 0.2519   -0.236155
 N 0.7767 0.7736 0.3257   -0.371278
 N 0.3983 0.5754 0.1361   -0.347403
 N 0.4395 0.834 0.7519   -0.236155
 N 0.2233 0.7264 0.8257   -0.371278
 N 0.6017 0.9246 0.6361   -0.347403
 O 0.31485 0.24416 0.82296   -0.543301
 O 0.01927 0.06993 0.8003   -0.616596
 O 0.70819 0.00789 0.71735   -0.679981
 O 0.10582 0.98899 0.69724   -0.536401
 O 0.68515 0.25584 0.32296   -0.543301
 O 0.98073 0.43007 0.3003   -0.616596
 O 0.29181 0.49211 0.21735   -0.679981
 O 0.89418 0.51101 0.19724   -0.536401
 O 0.68515 0.75584 0.17704   -0.543301
 O 0.98073 0.93007 0.1997   -0.616596
 O 0.29181 0.99211 0.28265   -0.679981
 O 0.89418 0.01101 0.30276   -0.536401
 O 0.31485 0.74416 0.67704   -0.543301
 O 0.01927 0.56993 0.6997   -0.616596
 O 0.70819 0.50789 0.78265   -0.679981
 O 0.10582 0.48899 0.80276   -0.536401
