{'_ref': 'TBD', '_srcid': 'CAKYAQ_clean', 'submitters': [{'name': 'Dalar Nazarian Jeff Camp and David Sholl', 'email': 'dalar@gatech.edu jcamp6@gatech.edu'}], '_method': 'VASP DFT with PBE;DDEC'}
data_ZnH6(C3N2)2
_symmetry_space_group_name_H-M   'P 1'
_cell_length_a   9.67900000
_cell_length_b   24.11400000
_cell_length_c   24.45000000
_cell_angle_alpha   90.00000000
_cell_angle_beta   90.00000000
_cell_angle_gamma   90.00000000
_symmetry_Int_Tables_number   1
_chemical_formula_structural   ZnH6(C3N2)2
_chemical_formula_sum   'Zn16 H96 C96 N64'
_cell_volume   5706.6154767
_cell_formula_units_Z   16
loop_
 _symmetry_equiv_pos_site_id
 _symmetry_equiv_pos_as_xyz
  1  'x, y, z'
loop_
 _atom_site_label
 _atom_site_fract_x
 _atom_site_fract_y
 _atom_site_fract_z
 _atom_site_charge
 Zn 0.01511 0.82535 0.49878   0.734175
 Zn 0.00204 0.99821 0.67613   0.737454
 Zn 0.48489 0.17465 0.99878   0.734175
 Zn 0.49796 0.00179 0.17613   0.737454
 Zn 0.98489 0.32535 0.00122   0.734175
 Zn 0.99796 0.49821 0.82387   0.737454
 Zn 0.51511 0.67465 0.50122   0.734175
 Zn 0.50204 0.50179 0.32387   0.737454
 Zn 0.98489 0.17465 0.50122   0.734175
 Zn 0.99796 0.00179 0.32387   0.737454
 Zn 0.51511 0.82535 0.00122   0.734175
 Zn 0.50204 0.99821 0.82387   0.737454
 Zn 0.01511 0.67465 0.99878   0.734175
 Zn 0.00204 0.50179 0.17613   0.737454
 Zn 0.48489 0.32535 0.49878   0.734175
 Zn 0.49796 0.49821 0.67613   0.737454
 H 0.978 0.9455 0.5577   0.051924
 H 0.3028 0.9652 0.7256   0.07131
 H 0.9739 0.7256 0.5836   0.089087
 H 0.0061 0.0517 0.7956   0.090575
 H 0.7185 0.7738 0.4671   0.052691
 H 0.2054 0.0514 0.857   0.093497
 H 0.0739 0.9389 0.4384   0.072525
 H 0.77 0.6648 0.5868   0.094452
 H 0.1361 0.8083 0.6156   0.09059
 H 0.8082 0.8941 0.3235   0.102636
 H 0.1313 0.8769 0.6906   0.101496
 H 0.8115 0.8212 0.3937   0.098091
 H 0.522 0.0545 0.0577   0.051924
 H 0.1972 0.0348 0.2256   0.07131
 H 0.5261 0.2744 0.0836   0.089087
 H 0.4939 0.9483 0.2956   0.090575
 H 0.7815 0.2262 0.9671   0.052691
 H 0.2946 0.9486 0.357   0.093498
 H 0.4261 0.0611 0.9384   0.072526
 H 0.73 0.3352 0.0868   0.094452
 H 0.3639 0.1917 0.1156   0.09059
 H 0.6918 0.1059 0.8235   0.102636
 H 0.3687 0.1231 0.1906   0.101496
 H 0.6885 0.1788 0.8937   0.098091
 H 0.022 0.4455 0.9423   0.051924
 H 0.6972 0.4652 0.7744   0.07131
 H 0.0261 0.2256 0.9164   0.089087
 H 0.9939 0.5517 0.7044   0.090575
 H 0.2815 0.2738 0.0329   0.052691
 H 0.7946 0.5514 0.643   0.093497
 H 0.9261 0.4389 0.0616   0.072525
 H 0.23 0.1648 0.9132   0.094453
 H 0.8639 0.3083 0.8844   0.09059
 H 0.1918 0.3941 0.1765   0.102636
 H 0.8687 0.3769 0.8094   0.101496
 H 0.1885 0.3212 0.1063   0.09809
 H 0.478 0.5545 0.4423   0.051924
 H 0.8028 0.5348 0.2744   0.07131
 H 0.4739 0.7744 0.4164   0.089087
 H 0.5061 0.4483 0.2044   0.090575
 H 0.2185 0.7262 0.5329   0.052691
 H 0.7054 0.4486 0.143   0.093498
 H 0.5739 0.5611 0.5616   0.072526
 H 0.27 0.8352 0.4132   0.094453
 H 0.6361 0.6917 0.3844   0.09059
 H 0.3082 0.6059 0.6765   0.102636
 H 0.6313 0.6231 0.3094   0.101496
 H 0.3115 0.6788 0.6063   0.09809
 H 0.022 0.0545 0.4423   0.051924
 H 0.6972 0.0348 0.2744   0.07131
 H 0.0261 0.2744 0.4164   0.089087
 H 0.9939 0.9483 0.2044   0.090575
 H 0.2815 0.2262 0.5329   0.052691
 H 0.7946 0.9486 0.143   0.093497
 H 0.9261 0.0611 0.5616   0.072525
 H 0.23 0.3352 0.4132   0.094452
 H 0.8639 0.1917 0.3844   0.09059
 H 0.1918 0.1059 0.6765   0.102636
 H 0.8687 0.1231 0.3094   0.101495
 H 0.1885 0.1788 0.6063   0.098091
 H 0.478 0.9455 0.9423   0.051924
 H 0.8028 0.9652 0.7744   0.07131
 H 0.4739 0.7256 0.9164   0.089087
 H 0.5061 0.0517 0.7044   0.090575
 H 0.2185 0.7738 0.0329   0.052691
 H 0.7054 0.0514 0.643   0.093498
 H 0.5739 0.9389 0.0616   0.072526
 H 0.27 0.6648 0.9132   0.094452
 H 0.6361 0.8083 0.8844   0.09059
 H 0.3082 0.8941 0.1765   0.102636
 H 0.6313 0.8769 0.8094   0.101495
 H 0.3115 0.8212 0.1063   0.098091
 H 0.978 0.5545 0.0577   0.051924
 H 0.3028 0.5348 0.2256   0.07131
 H 0.9739 0.7744 0.0836   0.089087
 H 0.0061 0.4483 0.2956   0.090575
 H 0.7185 0.7262 0.9671   0.052691
 H 0.2054 0.4486 0.357   0.093498
 H 0.0739 0.5611 0.9384   0.072525
 H 0.77 0.8352 0.0868   0.094453
 H 0.1361 0.6917 0.1156   0.09059
 H 0.8082 0.6059 0.8235   0.102636
 H 0.1313 0.6231 0.1906   0.101495
 H 0.8115 0.6788 0.8937   0.09809
 H 0.522 0.4455 0.5577   0.051924
 H 0.1972 0.4652 0.7256   0.07131
 H 0.5261 0.2256 0.5836   0.089087
 H 0.4939 0.5517 0.7956   0.090575
 H 0.7815 0.2738 0.4671   0.052691
 H 0.2946 0.5514 0.857   0.093498
 H 0.4261 0.4389 0.4384   0.072526
 H 0.73 0.1648 0.5868   0.094453
 H 0.3639 0.3083 0.6156   0.09059
 H 0.6918 0.3941 0.3235   0.102636
 H 0.3687 0.3769 0.6906   0.101495
 H 0.6885 0.3212 0.3937   0.09809
 C 0.0172 0.919 0.5819   0.229698
 C 0.2534 0.9876 0.7508   0.203554
 C 0.8966 0.7278 0.5598   -0.034024
 C 0.0919 0.034 0.7884   -0.019615
 C 0.7584 0.7537 0.4967   0.228816
 C 0.2016 0.0341 0.8221   -0.036343
 C 0.0078 0.9182 0.4182   0.199053
 C 0.7847 0.6943 0.5618   -0.023756
 C 0.1026 0.8452 0.6127   -0.040781
 C 0.8642 0.8942 0.3555   -0.031927
 C 0.0995 0.8828 0.6543   -0.024318
 C 0.8649 0.8543 0.3945   -0.032542
 C 0.4828 0.081 0.0819   0.229698
 C 0.2466 0.0124 0.2508   0.203554
 C 0.6034 0.2722 0.0598   -0.034024
 C 0.4081 0.966 0.2884   -0.019615
 C 0.7416 0.2463 0.9967   0.228816
 C 0.2984 0.9659 0.3221   -0.036343
 C 0.4922 0.0818 0.9182   0.199052
 C 0.7153 0.3057 0.0618   -0.023756
 C 0.3974 0.1548 0.1127   -0.040781
 C 0.6358 0.1058 0.8555   -0.031927
 C 0.4005 0.1172 0.1543   -0.024318
 C 0.6351 0.1457 0.8945   -0.032542
 C 0.9828 0.419 0.9181   0.229698
 C 0.7466 0.4876 0.7492   0.203554
 C 0.1034 0.2278 0.9402   -0.034024
 C 0.9081 0.534 0.7116   -0.019615
 C 0.2416 0.2537 0.0033   0.228816
 C 0.7984 0.5341 0.6779   -0.036343
 C 0.9922 0.4182 0.0818   0.199053
 C 0.2153 0.1943 0.9382   -0.023756
 C 0.8974 0.3452 0.8873   -0.04078
 C 0.1358 0.3942 0.1445   -0.031927
 C 0.9005 0.3828 0.8457   -0.024319
 C 0.1351 0.3543 0.1055   -0.032541
 C 0.5172 0.581 0.4181   0.229698
 C 0.7534 0.5124 0.2492   0.203554
 C 0.3966 0.7722 0.4402   -0.034024
 C 0.5919 0.466 0.2116   -0.019615
 C 0.2584 0.7463 0.5033   0.228816
 C 0.7016 0.4659 0.1779   -0.036343
 C 0.5078 0.5818 0.5818   0.199052
 C 0.2847 0.8057 0.4382   -0.023756
 C 0.6026 0.6548 0.3873   -0.04078
 C 0.3642 0.6058 0.6445   -0.031927
 C 0.5995 0.6172 0.3457   -0.024319
 C 0.3649 0.6457 0.6055   -0.032541
 C 0.9828 0.081 0.4181   0.229699
 C 0.7466 0.0124 0.2492   0.203554
 C 0.1034 0.2722 0.4402   -0.034024
 C 0.9081 0.966 0.2116   -0.019615
 C 0.2416 0.2463 0.5033   0.228816
 C 0.7984 0.9659 0.1779   -0.036342
 C 0.9922 0.0818 0.5818   0.199053
 C 0.2153 0.3057 0.4382   -0.023756
 C 0.8974 0.1548 0.3873   -0.040781
 C 0.1358 0.1058 0.6445   -0.031927
 C 0.9005 0.1172 0.3457   -0.024318
 C 0.1351 0.1457 0.6055   -0.032542
 C 0.5172 0.919 0.9181   0.229699
 C 0.7534 0.9876 0.7492   0.203554
 C 0.3966 0.7278 0.9402   -0.034024
 C 0.5919 0.034 0.7116   -0.019615
 C 0.2584 0.7537 0.0033   0.228816
 C 0.7016 0.0341 0.6779   -0.036342
 C 0.5078 0.9182 0.0818   0.199053
 C 0.2847 0.6943 0.9382   -0.023756
 C 0.6026 0.8452 0.8873   -0.040781
 C 0.3642 0.8942 0.1445   -0.031927
 C 0.5995 0.8828 0.8457   -0.024318
 C 0.3649 0.8543 0.1055   -0.032542
 C 0.0172 0.581 0.0819   0.229699
 C 0.2534 0.5124 0.2508   0.203554
 C 0.8966 0.7722 0.0598   -0.034024
 C 0.0919 0.466 0.2884   -0.019615
 C 0.7584 0.7463 0.9967   0.228816
 C 0.2016 0.4659 0.3221   -0.036342
 C 0.0078 0.5818 0.9182   0.199053
 C 0.7847 0.8057 0.0618   -0.023755
 C 0.1026 0.6548 0.1127   -0.04078
 C 0.8642 0.6058 0.8555   -0.031927
 C 0.0995 0.6172 0.1543   -0.024318
 C 0.8649 0.6457 0.8945   -0.032541
 C 0.4828 0.419 0.5819   0.229699
 C 0.2466 0.4876 0.7508   0.203554
 C 0.6034 0.2278 0.5598   -0.034024
 C 0.4081 0.534 0.7884   -0.019615
 C 0.7416 0.2537 0.4967   0.228816
 C 0.2984 0.5341 0.8221   -0.036342
 C 0.4922 0.4182 0.4182   0.199053
 C 0.7153 0.1943 0.5618   -0.023755
 C 0.3974 0.3452 0.6127   -0.04078
 C 0.6358 0.3942 0.3555   -0.031927
 C 0.4005 0.3828 0.6543   -0.024318
 C 0.6351 0.3543 0.3945   -0.032541
 N 0.8816 0.7654 0.5181   -0.390063
 N 0.6968 0.7106 0.5213   -0.39709
 N 0.1215 0.0051 0.7428   -0.387566
 N 0.3059 0.0055 0.7982   -0.382732
 N 0.05 0.8687 0.5664   -0.377933
 N 0.0433 0.9298 0.6346   -0.399355
 N 0.9549 0.8691 0.4354   -0.379429
 N 0.9568 0.9349 0.3693   -0.384152
 N 0.6184 0.2346 0.0181   -0.390063
 N 0.8032 0.2894 0.0213   -0.39709
 N 0.3785 0.9949 0.2428   -0.387566
 N 0.1941 0.9945 0.2982   -0.382731
 N 0.45 0.1313 0.0664   -0.377933
 N 0.4567 0.0702 0.1346   -0.399355
 N 0.5451 0.1309 0.9354   -0.379429
 N 0.5432 0.0651 0.8693   -0.384152
 N 0.1184 0.2654 0.9819   -0.390063
 N 0.3032 0.2106 0.9787   -0.39709
 N 0.8785 0.5051 0.7572   -0.387566
 N 0.6941 0.5055 0.7018   -0.382732
 N 0.95 0.3687 0.9336   -0.377933
 N 0.9567 0.4298 0.8654   -0.399355
 N 0.0451 0.3691 0.0646   -0.379429
 N 0.0432 0.4349 0.1307   -0.384152
 N 0.3816 0.7346 0.4819   -0.390063
 N 0.1968 0.7894 0.4787   -0.39709
 N 0.6215 0.4949 0.2572   -0.387566
 N 0.8059 0.4945 0.2018   -0.382731
 N 0.55 0.6313 0.4336   -0.377933
 N 0.5433 0.5702 0.3654   -0.399355
 N 0.4549 0.6309 0.5646   -0.379429
 N 0.4568 0.5651 0.6307   -0.384152
 N 0.1184 0.2346 0.4819   -0.390063
 N 0.3032 0.2894 0.4787   -0.39709
 N 0.8785 0.9949 0.2572   -0.387566
 N 0.6941 0.9945 0.2018   -0.382732
 N 0.95 0.1313 0.4336   -0.377933
 N 0.9567 0.0702 0.3654   -0.399355
 N 0.0451 0.1309 0.5646   -0.379429
 N 0.0432 0.0651 0.6307   -0.384152
 N 0.3816 0.7654 0.9819   -0.390063
 N 0.1968 0.7106 0.9787   -0.39709
 N 0.6215 0.0051 0.7572   -0.387566
 N 0.8059 0.0055 0.7018   -0.382731
 N 0.55 0.8687 0.9336   -0.377933
 N 0.5433 0.9298 0.8654   -0.399355
 N 0.4549 0.8691 0.0646   -0.379429
 N 0.4568 0.9349 0.1307   -0.384152
 N 0.8816 0.7346 0.0181   -0.390063
 N 0.6968 0.7894 0.0213   -0.39709
 N 0.1215 0.4949 0.2428   -0.387566
 N 0.3059 0.4945 0.2982   -0.382732
 N 0.05 0.6313 0.0664   -0.377933
 N 0.0433 0.5702 0.1346   -0.399355
 N 0.9549 0.6309 0.9354   -0.379429
 N 0.9568 0.5651 0.8693   -0.384152
 N 0.6184 0.2654 0.5181   -0.390063
 N 0.8032 0.2106 0.5213   -0.39709
 N 0.3785 0.5051 0.7428   -0.387566
 N 0.1941 0.5055 0.7982   -0.382731
 N 0.45 0.3687 0.5664   -0.377933
 N 0.4567 0.4298 0.6346   -0.399355
 N 0.5451 0.3691 0.4354   -0.379429
 N 0.5432 0.4349 0.3693   -0.384152
