{'_ref': 'TBD', '_srcid': 'CAKYAQ_clean', 'submitters': [{'name': 'Dalar Nazarian Jeff Camp and David Sholl', 'email': 'dalar@gatech.edu jcamp6@gatech.edu'}], '_method': 'VASP DFT with PBE;DDEC'}
data_ZnH6(C3N2)2
_symmetry_space_group_name_H-M   'P 1'
_cell_length_a   9.80100000
_cell_length_b   24.10400000
_cell_length_c   24.35600000
_cell_angle_alpha   90.00000000
_cell_angle_beta   90.00000000
_cell_angle_gamma   90.00000000
_symmetry_Int_Tables_number   1
_chemical_formula_structural   ZnH6(C3N2)2
_chemical_formula_sum   'Zn16 H96 C96 N64'
_cell_volume   5753.94191222
_cell_formula_units_Z   16
loop_
 _symmetry_equiv_pos_site_id
 _symmetry_equiv_pos_as_xyz
  1  'x, y, z'
loop_
 _atom_site_label
 _atom_site_fract_x
 _atom_site_fract_y
 _atom_site_fract_z
 _atom_site_charge
 Zn 0.02466 0.82422 0.49944   0.734622
 Zn 0.000399999999999 0.000590000000002 0.32337   0.741317
 Zn 0.47534 0.17578 0.99944   0.734622
 Zn 0.4996 0.99941 0.82337   0.741317
 Zn 0.97534 0.32422 0.00056   0.734622
 Zn 0.9996 0.50059 0.17663   0.741317
 Zn 0.52466 0.67578 0.50056   0.734622
 Zn 0.5004 0.49941 0.67663   0.741317
 Zn 0.97534 0.17578 0.50056   0.734622
 Zn 0.9996 0.99941 0.67663   0.741317
 Zn 0.52466 0.82422 0.00056   0.734622
 Zn 0.5004 0.000590000000002 0.17663   0.741317
 Zn 0.02466 0.67578 0.99944   0.734622
 Zn 0.000399999999999 0.49941 0.82337   0.741317
 Zn 0.47534 0.32422 0.49944   0.734622
 Zn 0.4996 0.50059 0.32337   0.741317
 H 0.7315 0.7763 0.5309   0.047445
 H 0.787 0.6567 0.4262   0.084813
 H 0.9882 0.7156 0.4255   0.091918
 H 0.9788 0.9456 0.4425   0.05255
 H 0.0671 0.9396 0.5597   0.061928
 H 0.8484 0.8144 0.6093   0.09485
 H 0.8424 0.885 0.6799   0.096815
 H 0.301 0.969 0.2769   0.063642
 H 0.0148 0.0555 0.205   0.098265
 H 0.2133 0.0528 0.1448   0.088734
 H 0.1127 0.8782 0.3071   0.09883
 H 0.124 0.8098 0.38   0.089758
 H 0.7685 0.2237 0.0309   0.047445
 H 0.713 0.3433 0.9262   0.084813
 H 0.5118 0.2844 0.9255   0.091918
 H 0.5212 0.0544 0.9425   0.05255
 H 0.4329 0.0604 0.0597   0.061928
 H 0.6516 0.1856 0.1093   0.09485
 H 0.6576 0.115 0.1799   0.096815
 H 0.199 0.031 0.7769   0.063642
 H 0.4852 0.9445 0.705   0.098265
 H 0.2867 0.9472 0.6448   0.088735
 H 0.3873 0.1218 0.8071   0.09883
 H 0.376 0.1902 0.88   0.089758
 H 0.2685 0.2763 0.9691   0.047445
 H 0.213 0.1567 0.0738   0.084814
 H 0.0118 0.2156 0.0745   0.091918
 H 0.0212 0.4456 0.0575   0.05255
 H 0.9329 0.4396 0.9403   0.061928
 H 0.1516 0.3144 0.8907   0.09485
 H 0.1576 0.385 0.8201   0.096815
 H 0.699 0.469 0.2231   0.063642
 H 0.9852 0.5555 0.295   0.098265
 H 0.7867 0.5528 0.3552   0.088735
 H 0.8873 0.3782 0.1929   0.09883
 H 0.876 0.3098 0.12   0.089757
 H 0.2315 0.7237 0.4691   0.047445
 H 0.287 0.8433 0.5738   0.084814
 H 0.4882 0.7844 0.5745   0.091918
 H 0.4788 0.5544 0.5575   0.05255
 H 0.5671 0.5604 0.4403   0.061928
 H 0.3484 0.6856 0.3907   0.09485
 H 0.3424 0.615 0.3201   0.096815
 H 0.801 0.531 0.7231   0.063642
 H 0.5148 0.4445 0.795   0.098265
 H 0.7133 0.4472 0.8552   0.088735
 H 0.6127 0.6218 0.6929   0.09883
 H 0.624 0.6902 0.62   0.089757
 H 0.2685 0.2237 0.4691   0.047445
 H 0.213 0.3433 0.5738   0.084813
 H 0.0118 0.2844 0.5745   0.091918
 H 0.0212 0.0544 0.5575   0.05255
 H 0.9329 0.0604 0.4403   0.061928
 H 0.1516 0.1856 0.3907   0.09485
 H 0.1576 0.115 0.3201   0.096815
 H 0.699 0.031 0.7231   0.063641
 H 0.9852 0.9445 0.795   0.098265
 H 0.7867 0.9472 0.8552   0.088734
 H 0.8873 0.1218 0.6929   0.098829
 H 0.876 0.1902 0.62   0.089758
 H 0.2315 0.7763 0.9691   0.047445
 H 0.287 0.6567 0.0738   0.084813
 H 0.4882 0.7156 0.0745   0.091918
 H 0.4788 0.9456 0.0575   0.05255
 H 0.5671 0.9396 0.9403   0.061928
 H 0.3484 0.8144 0.8907   0.09485
 H 0.3424 0.885 0.8201   0.096815
 H 0.801 0.969 0.2231   0.063641
 H 0.5148 0.0555 0.295   0.098265
 H 0.7133 0.0528 0.3552   0.088735
 H 0.6127 0.8782 0.1929   0.098829
 H 0.624 0.8098 0.12   0.089758
 H 0.7315 0.7237 0.0309   0.047445
 H 0.787 0.8433 0.9262   0.084814
 H 0.9882 0.7844 0.9255   0.091918
 H 0.9788 0.5544 0.9425   0.05255
 H 0.0671 0.5604 0.0597   0.061928
 H 0.8484 0.6856 0.1093   0.094849
 H 0.8424 0.615 0.1799   0.096815
 H 0.301 0.531 0.7769   0.063641
 H 0.0148 0.4445 0.705   0.098265
 H 0.2133 0.4472 0.6448   0.088735
 H 0.1127 0.6218 0.8071   0.098829
 H 0.124 0.6902 0.88   0.089757
 H 0.7685 0.2763 0.5309   0.047445
 H 0.713 0.1567 0.4262   0.084814
 H 0.5118 0.2156 0.4255   0.091918
 H 0.5212 0.4456 0.4425   0.05255
 H 0.4329 0.4396 0.5597   0.061928
 H 0.6516 0.3144 0.6093   0.094849
 H 0.6576 0.385 0.6799   0.096815
 H 0.199 0.469 0.2769   0.063641
 H 0.4852 0.5555 0.205   0.098265
 H 0.2867 0.5528 0.1448   0.088736
 H 0.3873 0.3782 0.3071   0.098829
 H 0.376 0.3098 0.38   0.089757
 C 0.7712 0.7533 0.5048   0.230853
 C 0.7996 0.6881 0.4478   -0.012213
 C 0.9115 0.7207 0.4474   -0.040057
 C 0.0127 0.9199 0.4175   0.227921
 C 0.0106 0.9173 0.581   0.222961
 C 0.8919 0.8487 0.6076   -0.026049
 C 0.8886 0.8878 0.6467   -0.026441
 C 0.2541 0.9907 0.2516   0.229996
 C 0.0966 0.0375 0.2124   -0.043981
 C 0.2076 0.0365 0.1794   -0.018509
 C 0.0861 0.8838 0.3433   -0.024323
 C 0.0917 0.8459 0.3838   -0.023014
 C 0.7288 0.2467 0.0048   0.230853
 C 0.7004 0.3119 0.9478   -0.012213
 C 0.5885 0.2793 0.9474   -0.040057
 C 0.4873 0.0801 0.9175   0.227921
 C 0.4894 0.0827 0.081   0.222961
 C 0.6081 0.1513 0.1076   -0.026049
 C 0.6114 0.1122 0.1467   -0.026441
 C 0.2459 0.0093 0.7516   0.229996
 C 0.4034 0.9625 0.7124   -0.043981
 C 0.2924 0.9635 0.6794   -0.018509
 C 0.4139 0.1162 0.8433   -0.024323
 C 0.4083 0.1541 0.8838   -0.023014
 C 0.2288 0.2533 0.9952   0.230853
 C 0.2004 0.1881 0.0522   -0.012213
 C 0.0885 0.2207 0.0526   -0.040056
 C 0.9873 0.4199 0.0825   0.227921
 C 0.9894 0.4173 0.919   0.222961
 C 0.1081 0.3487 0.8924   -0.026049
 C 0.1114 0.3878 0.8533   -0.026441
 C 0.7459 0.4907 0.2484   0.229996
 C 0.9034 0.5375 0.2876   -0.043981
 C 0.7924 0.5365 0.3206   -0.018509
 C 0.9139 0.3838 0.1567   -0.024323
 C 0.9083 0.3459 0.1162   -0.023014
 C 0.2712 0.7467 0.4952   0.230853
 C 0.2996 0.8119 0.5522   -0.012213
 C 0.4115 0.7793 0.5526   -0.040056
 C 0.5127 0.5801 0.5825   0.227921
 C 0.5106 0.5827 0.419   0.222961
 C 0.3919 0.6513 0.3924   -0.026048
 C 0.3886 0.6122 0.3533   -0.026441
 C 0.7541 0.5093 0.7484   0.229996
 C 0.5966 0.4625 0.7876   -0.043981
 C 0.7076 0.4635 0.8206   -0.018509
 C 0.5861 0.6162 0.6567   -0.024323
 C 0.5917 0.6541 0.6162   -0.023014
 C 0.2288 0.2467 0.4952   0.230853
 C 0.2004 0.3119 0.5522   -0.012213
 C 0.0885 0.2793 0.5526   -0.040057
 C 0.9873 0.0801 0.5825   0.227921
 C 0.9894 0.0827 0.419   0.222961
 C 0.1081 0.1513 0.3924   -0.026049
 C 0.1114 0.1122 0.3533   -0.026441
 C 0.7459 0.0093 0.7484   0.229996
 C 0.9034 0.9625 0.7876   -0.043981
 C 0.7924 0.9635 0.8206   -0.018508
 C 0.9139 0.1162 0.6567   -0.024323
 C 0.9083 0.1541 0.6162   -0.023014
 C 0.2712 0.7533 0.9952   0.230853
 C 0.2996 0.6881 0.0522   -0.012213
 C 0.4115 0.7207 0.0526   -0.040057
 C 0.5127 0.9199 0.0825   0.227921
 C 0.5106 0.9173 0.919   0.222961
 C 0.3919 0.8487 0.8924   -0.026049
 C 0.3886 0.8878 0.8533   -0.026441
 C 0.7541 0.9907 0.2484   0.229996
 C 0.5966 0.0375 0.2876   -0.043981
 C 0.7076 0.0365 0.3206   -0.018508
 C 0.5861 0.8838 0.1567   -0.024323
 C 0.5917 0.8459 0.1162   -0.023014
 C 0.7712 0.7467 0.0048   0.230853
 C 0.7996 0.8119 0.9478   -0.012213
 C 0.9115 0.7793 0.9474   -0.040057
 C 0.0127 0.5801 0.9175   0.227921
 C 0.0106 0.5827 0.081   0.222961
 C 0.8919 0.6513 0.1076   -0.026048
 C 0.8886 0.6122 0.1467   -0.026441
 C 0.2541 0.5093 0.7516   0.229996
 C 0.0966 0.4625 0.7124   -0.043981
 C 0.2076 0.4635 0.6794   -0.018508
 C 0.0861 0.6162 0.8433   -0.024323
 C 0.0917 0.6541 0.8838   -0.023014
 C 0.7288 0.2533 0.5048   0.230853
 C 0.7004 0.1881 0.4478   -0.012213
 C 0.5885 0.2207 0.4474   -0.040057
 C 0.4873 0.4199 0.4175   0.227921
 C 0.4894 0.4173 0.581   0.222961
 C 0.6081 0.3487 0.6076   -0.026048
 C 0.6114 0.3878 0.6467   -0.026441
 C 0.2459 0.4907 0.2516   0.229996
 C 0.4034 0.5375 0.2124   -0.043981
 C 0.2924 0.5365 0.1794   -0.018509
 C 0.4139 0.3838 0.3433   -0.024323
 C 0.4083 0.3459 0.3838   -0.023014
 N 0.8932 0.7619 0.4842   -0.382335
 N 0.7091 0.7081 0.4844   -0.399458
 N 0.0436 0.8682 0.4307   -0.387774
 N 0.0351 0.9316 0.3643   -0.402486
 N 0.9638 0.9325 0.6301   -0.394632
 N 0.9691 0.8673 0.5652   -0.388482
 N 0.1252 0.0072 0.2589   -0.39125
 N 0.3091 0.0082 0.2046   -0.396216
 N 0.6068 0.2381 0.9842   -0.382335
 N 0.7909 0.2919 0.9844   -0.399458
 N 0.4564 0.1318 0.9307   -0.387774
 N 0.4649 0.0684 0.8643   -0.402486
 N 0.5362 0.0675 0.1301   -0.394632
 N 0.5309 0.1327 0.0652   -0.388482
 N 0.3748 0.9928 0.7589   -0.39125
 N 0.1909 0.9918 0.7046   -0.396216
 N 0.1068 0.2619 0.0158   -0.382335
 N 0.2909 0.2081 0.0156   -0.399458
 N 0.9564 0.3682 0.0693   -0.387774
 N 0.9649 0.4316 0.1357   -0.402486
 N 0.0362 0.4325 0.8699   -0.394632
 N 0.0309 0.3673 0.9348   -0.388482
 N 0.8748 0.5072 0.2411   -0.39125
 N 0.6909 0.5082 0.2954   -0.396216
 N 0.3932 0.7381 0.5158   -0.382335
 N 0.2091 0.7919 0.5156   -0.399458
 N 0.5436 0.6318 0.5693   -0.387774
 N 0.5351 0.5684 0.6357   -0.402486
 N 0.4638 0.5675 0.3699   -0.394632
 N 0.4691 0.6327 0.4348   -0.388482
 N 0.6252 0.4928 0.7411   -0.39125
 N 0.8091 0.4918 0.7954   -0.396216
 N 0.1068 0.2381 0.5158   -0.382335
 N 0.2909 0.2919 0.5156   -0.399458
 N 0.9564 0.1318 0.5693   -0.387774
 N 0.9649 0.0684 0.6357   -0.402486
 N 0.0362 0.0675 0.3699   -0.394632
 N 0.0309 0.1327 0.4348   -0.388482
 N 0.8748 0.9928 0.7411   -0.39125
 N 0.6909 0.9918 0.7954   -0.396216
 N 0.3932 0.7619 0.0158   -0.382335
 N 0.2091 0.7081 0.0156   -0.399458
 N 0.5436 0.8682 0.0693   -0.387774
 N 0.5351 0.9316 0.1357   -0.402486
 N 0.4638 0.9325 0.8699   -0.394632
 N 0.4691 0.8673 0.9348   -0.388482
 N 0.6252 0.0072 0.2411   -0.39125
 N 0.8091 0.0082 0.2954   -0.396216
 N 0.8932 0.7381 0.9842   -0.382335
 N 0.7091 0.7919 0.9844   -0.399458
 N 0.0436 0.6318 0.9307   -0.387774
 N 0.0351 0.5684 0.8643   -0.402486
 N 0.9638 0.5675 0.1301   -0.394632
 N 0.9691 0.6327 0.0652   -0.388482
 N 0.1252 0.4928 0.7589   -0.39125
 N 0.3091 0.4918 0.7046   -0.396216
 N 0.6068 0.2619 0.4842   -0.382335
 N 0.7909 0.2081 0.4844   -0.399458
 N 0.4564 0.3682 0.4307   -0.387774
 N 0.4649 0.4316 0.3643   -0.402486
 N 0.5362 0.4325 0.6301   -0.394632
 N 0.5309 0.3673 0.5652   -0.388482
 N 0.3748 0.5072 0.2589   -0.39125
 N 0.1909 0.5082 0.2046   -0.396216
