{'_ref': 'TBD', '_srcid': 'CAKYAQ_clean', 'submitters': [{'name': 'Dalar Nazarian Jeff Camp and David Sholl', 'email': 'dalar@gatech.edu jcamp6@gatech.edu'}], '_method': 'VASP DFT with PBE;DDEC'}
data_Ni5H22C16(N2O9)2
_symmetry_space_group_name_H-M   'P 1'
_cell_length_a   11.70600000
_cell_length_b   18.18600000
_cell_length_c   18.18600000
_cell_angle_alpha   90.00000000
_cell_angle_beta   90.00000000
_cell_angle_gamma   90.00000000
_symmetry_Int_Tables_number   1
_chemical_formula_structural   Ni5H22C16(N2O9)2
_chemical_formula_sum   'Ni20 H88 C64 N16 O72'
_cell_volume   3871.53235678
_cell_formula_units_Z   4
loop_
 _symmetry_equiv_pos_site_id
 _symmetry_equiv_pos_as_xyz
  1  'x, y, z'
loop_
 _atom_site_label
 _atom_site_fract_x
 _atom_site_fract_y
 _atom_site_fract_z
 _atom_site_charge
 Ni 0.1609 0.54289 0.9394   1.143289
 Ni 0.936 0.5931 0.87576   0.936002
 Ni 0.6609 0.45711 0.0606   1.143289
 Ni 0.436 0.4069 0.12424   0.936002
 Ni 0.9109 0.5606 0.04289   1.143289
 Ni 0.686 0.62424 0.0931   0.936002
 Ni 0.4109 0.4394 0.95711   1.143289
 Ni 0.186 0.37576 0.9069   0.936002
 Ni 0.5891 0.95711 0.4394   1.143289
 Ni 0.814 0.9069 0.37576   0.936002
 Ni 0.0891 0.04289 0.5606   1.143289
 Ni 0.314 0.0931 0.62424   0.936002
 Ni 0.8391 0.9394 0.54289   1.143289
 Ni 0.064 0.87576 0.5931   0.936002
 Ni 0.3391 0.0606 0.45711   1.143289
 Ni 0.564 0.12424 0.4069   0.936002
 Ni 0.0 0.7444 0.7444   0.862264
 Ni 0.5 0.2556 0.2556   0.862264
 Ni 0.75 0.7556 0.2444   0.862264
 Ni 0.25 0.2444 0.7556   0.862264
 H 0.8911 0.5559 0.7459   0.351202
 H 0.7878 0.5435 0.7891   0.335948
 H 0.109 0.8233 0.8333   0.329184
 H 0.1628 0.8327 0.7609   0.303688
 H 0.8892 0.435 0.7468   0.092186
 H 0.8171 0.3722 0.851   0.156607
 H 0.7283 0.4318 0.8266   0.16537
 H 0.264 0.7546 0.8488   0.072601
 H 0.3339 0.7647 0.7367   0.134335
 H 0.3466 0.6834 0.7646   0.169168
 H 0.2849 0.4781 0.8446   0.433688
 H 0.3911 0.4441 0.2541   0.351202
 H 0.2878 0.4565 0.2109   0.335948
 H 0.609 0.1767 0.1667   0.329184
 H 0.6628 0.1673 0.2391   0.303688
 H 0.3892 0.565 0.2532   0.092186
 H 0.3171 0.6278 0.149   0.156607
 H 0.2283 0.5682 0.1734   0.16537
 H 0.764 0.2454 0.1512   0.072601
 H 0.8339 0.2353 0.2633   0.134335
 H 0.8466 0.3166 0.2354   0.169168
 H 0.7849 0.5219 0.1554   0.433688
 H 0.6411 0.7541 0.0559   0.351202
 H 0.5378 0.7109 0.0435   0.335948
 H 0.859 0.6667 0.3233   0.329184
 H 0.9128 0.7391 0.3327   0.303688
 H 0.6392 0.7532 0.935   0.092187
 H 0.5671 0.649 0.8722   0.156607
 H 0.4783 0.6734 0.9318   0.16537
 H 0.014 0.6512 0.2546   0.072602
 H 0.0839 0.7633 0.2647   0.134335
 H 0.0966 0.7354 0.1834   0.169169
 H 0.0349 0.6554 0.9781   0.433688
 H 0.1411 0.2459 0.9441   0.351202
 H 0.0378 0.2891 0.9565   0.335948
 H 0.359 0.3333 0.6767   0.329184
 H 0.4128 0.2609 0.6673   0.303688
 H 0.1392 0.2468 0.065   0.092187
 H 0.0671 0.351 0.1278   0.156607
 H 0.9783 0.3266 0.0682   0.16537
 H 0.514 0.3488 0.7454   0.072602
 H 0.5839 0.2367 0.7353   0.134335
 H 0.5966 0.2646 0.8166   0.169169
 H 0.5349 0.3446 0.0219   0.433688
 H 0.8589 0.9441 0.2459   0.351202
 H 0.9622 0.9565 0.2891   0.335948
 H 0.641 0.6767 0.3333   0.329183
 H 0.5872 0.6673 0.2609   0.303688
 H 0.8608 0.065 0.2468   0.092187
 H 0.9329 0.1278 0.351   0.156607
 H 0.0217 0.0682 0.3266   0.16537
 H 0.486 0.7454 0.3488   0.072601
 H 0.4161 0.7353 0.2367   0.134335
 H 0.4034 0.8166 0.2646   0.169168
 H 0.4651 0.0219 0.3446   0.433688
 H 0.3589 0.0559 0.7541   0.351202
 H 0.4622 0.0435 0.7109   0.335948
 H 0.141 0.3233 0.6667   0.329183
 H 0.0872 0.3327 0.7391   0.303688
 H 0.3608 0.935 0.7532   0.092187
 H 0.4329 0.8722 0.649   0.156607
 H 0.5217 0.9318 0.6734   0.16537
 H 0.986 0.2546 0.6512   0.072601
 H 0.9161 0.2647 0.7633   0.134335
 H 0.9034 0.1834 0.7354   0.169168
 H 0.9651 0.9781 0.6554   0.433688
 H 0.1089 0.7459 0.5559   0.351201
 H 0.2122 0.7891 0.5435   0.335948
 H 0.891 0.8333 0.8233   0.329183
 H 0.8372 0.7609 0.8327   0.303688
 H 0.1108 0.7468 0.435   0.092187
 H 0.1829 0.851 0.3722   0.156607
 H 0.2717 0.8266 0.4318   0.16537
 H 0.736 0.8488 0.7546   0.072602
 H 0.6661 0.7367 0.7647   0.134335
 H 0.6534 0.7646 0.6834   0.169169
 H 0.7151 0.8446 0.4781   0.433688
 H 0.6089 0.2541 0.4441   0.351201
 H 0.7122 0.2109 0.4565   0.335948
 H 0.391 0.1667 0.1767   0.329183
 H 0.3372 0.2391 0.1673   0.303688
 H 0.6108 0.2532 0.565   0.092187
 H 0.6829 0.149 0.6278   0.156607
 H 0.7717 0.1734 0.5682   0.16537
 H 0.236 0.1512 0.2454   0.072602
 H 0.1661 0.2633 0.2353   0.134335
 H 0.1534 0.2354 0.3166   0.169169
 H 0.2151 0.1554 0.5219   0.433688
 C 0.009 0.448 0.827   0.632028
 C 0.894 0.4587 0.7951   0.086027
 C 0.804 0.4247 0.8477   -0.389714
 C 0.805 0.4568 0.9243   0.731282
 C 0.15 0.6737 0.8406   0.649528
 C 0.214 0.7367 0.809   0.069562
 C 0.292 0.7198 0.7452   -0.374825
 C 0.229 0.695 0.685   0.670702
 C 0.509 0.552 0.173   0.632028
 C 0.394 0.5413 0.2049   0.086027
 C 0.304 0.5753 0.1523   -0.389714
 C 0.305 0.5432 0.0757   0.731282
 C 0.65 0.3263 0.1594   0.649528
 C 0.714 0.2633 0.191   0.069562
 C 0.792 0.2802 0.2548   -0.374825
 C 0.729 0.305 0.315   0.670702
 C 0.759 0.673 0.948   0.632028
 C 0.644 0.7049 0.9587   0.086027
 C 0.554 0.6523 0.9247   -0.389714
 C 0.555 0.5757 0.9568   0.731282
 C 0.9 0.6594 0.1737   0.649528
 C 0.964 0.691 0.2367   0.069561
 C 0.042 0.7548 0.2198   -0.374826
 C 0.979 0.815 0.195   0.670703
 C 0.259 0.327 0.052   0.632028
 C 0.144 0.2951 0.0413   0.086027
 C 0.054 0.3477 0.0753   -0.389714
 C 0.055 0.4243 0.0432   0.731282
 C 0.4 0.3406 0.8263   0.649528
 C 0.464 0.309 0.7633   0.069561
 C 0.542 0.2452 0.7802   -0.374826
 C 0.479 0.185 0.805   0.670703
 C 0.741 0.052 0.327   0.632028
 C 0.856 0.0413 0.2951   0.086027
 C 0.946 0.0753 0.3477   -0.389714
 C 0.945 0.0432 0.4243   0.731282
 C 0.6 0.8263 0.3406   0.649528
 C 0.536 0.7633 0.309   0.069561
 C 0.458 0.7802 0.2452   -0.374826
 C 0.521 0.805 0.185   0.670703
 C 0.241 0.948 0.673   0.632028
 C 0.356 0.9587 0.7049   0.086027
 C 0.446 0.9247 0.6523   -0.389714
 C 0.445 0.9568 0.5757   0.731282
 C 0.1 0.1737 0.6594   0.649528
 C 0.036 0.2367 0.691   0.069561
 C 0.958 0.2198 0.7548   -0.374826
 C 0.021 0.195 0.815   0.670703
 C 0.991 0.827 0.448   0.632028
 C 0.106 0.7951 0.4587   0.086027
 C 0.196 0.8477 0.4247   -0.389714
 C 0.195 0.9243 0.4568   0.731282
 C 0.85 0.8406 0.6737   0.649528
 C 0.786 0.809 0.7367   0.069561
 C 0.708 0.7452 0.7198   -0.374826
 C 0.771 0.685 0.695   0.670703
 C 0.491 0.173 0.552   0.632028
 C 0.606 0.2049 0.5413   0.086027
 C 0.696 0.1523 0.5753   -0.389714
 C 0.695 0.0757 0.5432   0.731282
 C 0.35 0.1594 0.3263   0.649528
 C 0.286 0.191 0.2633   0.069561
 C 0.208 0.2548 0.2802   -0.374826
 C 0.271 0.315 0.305   0.670703
 N 0.8641 0.5378 0.7886   -0.690978
 N 0.131 0.8 0.7921   -0.675024
 N 0.3641 0.4622 0.2114   -0.690978
 N 0.631 0.2 0.2079   -0.675024
 N 0.6141 0.7114 0.0378   -0.690979
 N 0.881 0.7079 0.3   -0.675024
 N 0.1141 0.2886 0.9622   -0.690979
 N 0.381 0.2921 0.7   -0.675024
 N 0.8859 0.9622 0.2886   -0.690978
 N 0.619 0.7 0.2921   -0.675023
 N 0.3859 0.0378 0.7114   -0.690978
 N 0.119 0.3 0.7079   -0.675023
 N 0.1359 0.7886 0.5378   -0.690978
 N 0.869 0.7921 0.8   -0.675023
 N 0.6359 0.2114 0.4622   -0.690978
 N 0.369 0.2079 0.2   -0.675023
 O 0.0546 0.5139 0.8514   -0.644219
 O 0.0583 0.3912 0.8355   -0.521549
 O 0.7483 0.4187 0.9721   -0.618094
 O 0.8531 0.515 0.9432   -0.617663
 O 0.0439 0.6717 0.8245   -0.594379
 O 0.2094 0.6311 0.8791   -0.565134
 O 0.1186 0.6959 0.6801   -0.574989
 O 0.282 0.655 0.634   -0.655484
 O 0.2732 0.4707 0.8977   -0.971476
 O 0.5546 0.4861 0.1486   -0.644219
 O 0.5583 0.6088 0.1645   -0.521549
 O 0.2483 0.5813 0.0279   -0.618094
 O 0.3531 0.485 0.0568   -0.617663
 O 0.5439 0.3283 0.1755   -0.594379
 O 0.7094 0.3689 0.1209   -0.565134
 O 0.6186 0.3041 0.3199   -0.574989
 O 0.782 0.345 0.366   -0.655484
 O 0.7732 0.5293 0.1023   -0.971476
 O 0.8046 0.6486 0.0139   -0.644219
 O 0.8083 0.6645 0.8912   -0.521549
 O 0.4983 0.5279 0.9187   -0.618094
 O 0.6031 0.5568 0.015   -0.617663
 O 0.7939 0.6755 0.1717   -0.594379
 O 0.9594 0.6209 0.1311   -0.565134
 O 0.8686 0.8199 0.1959   -0.574989
 O 0.032 0.866 0.155   -0.655484
 O 0.0232 0.6023 0.9707   -0.971476
 O 0.3046 0.3514 0.9861   -0.644219
 O 0.3083 0.3355 0.1088   -0.521549
 O 0.9983 0.4721 0.0813   -0.618094
 O 0.1031 0.4432 0.985   -0.617663
 O 0.2939 0.3245 0.8283   -0.594379
 O 0.4594 0.3791 0.8689   -0.565134
 O 0.3686 0.1801 0.8041   -0.574989
 O 0.532 0.134 0.845   -0.655484
 O 0.5232 0.3977 0.0293   -0.971476
 O 0.6954 0.9861 0.3514   -0.644219
 O 0.6917 0.1088 0.3355   -0.521549
 O 0.0017 0.0813 0.4721   -0.618094
 O 0.8969 0.985 0.4432   -0.617663
 O 0.7061 0.8283 0.3245   -0.594379
 O 0.5406 0.8689 0.3791   -0.565134
 O 0.6314 0.8041 0.1801   -0.574989
 O 0.468 0.845 0.134   -0.655484
 O 0.4768 0.0293 0.3977   -0.971476
 O 0.1954 0.0139 0.6486   -0.644219
 O 0.1917 0.8912 0.6645   -0.521549
 O 0.5017 0.9187 0.5279   -0.618094
 O 0.3969 0.015 0.5568   -0.617663
 O 0.2061 0.1717 0.6755   -0.594379
 O 0.0406 0.1311 0.6209   -0.565134
 O 0.1314 0.1959 0.8199   -0.574989
 O 0.968 0.155 0.866   -0.655484
 O 0.9768 0.9707 0.6023   -0.971476
 O 0.9454 0.8514 0.5139   -0.644219
 O 0.9417 0.8355 0.3912   -0.521549
 O 0.2517 0.9721 0.4187   -0.618094
 O 0.1469 0.9432 0.515   -0.617663
 O 0.9561 0.8245 0.6717   -0.594379
 O 0.7906 0.8791 0.6311   -0.565134
 O 0.8814 0.6801 0.6959   -0.574989
 O 0.718 0.634 0.655   -0.655484
 O 0.7268 0.8977 0.4707   -0.971476
 O 0.4454 0.1486 0.4861   -0.644219
 O 0.4417 0.1645 0.6088   -0.521549
 O 0.7517 0.0279 0.5813   -0.618094
 O 0.6469 0.0568 0.485   -0.617663
 O 0.4561 0.1755 0.3283   -0.594379
 O 0.2906 0.1209 0.3689   -0.565134
 O 0.3814 0.3199 0.3041   -0.574989
 O 0.218 0.366 0.345   -0.655484
 O 0.2268 0.1023 0.5293   -0.971476
