{'_ref': 'TBD', '_srcid': 'CAKYAQ_clean', 'submitters': [{'name': 'Dalar Nazarian Jeff Camp and David Sholl', 'email': 'dalar@gatech.edu jcamp6@gatech.edu'}], '_method': 'VASP DFT with PBE;DDEC'}
data_FeH12(C3N)6
_symmetry_space_group_name_H-M   'P 1'
_cell_length_a   7.10460046
_cell_length_b   13.71519977
_cell_length_c   22.95100000
_cell_angle_alpha   87.70269899
_cell_angle_beta   81.09650204
_cell_angle_gamma   74.98909803
_symmetry_Int_Tables_number   1
_chemical_formula_structural   FeH12(C3N)6
_chemical_formula_sum   'Fe4 H48 C72 N24'
_cell_volume   2134.02836447
_cell_formula_units_Z   4
loop_
 _symmetry_equiv_pos_site_id
 _symmetry_equiv_pos_as_xyz
  1  'x, y, z'
loop_
 _atom_site_label
 _atom_site_fract_x
 _atom_site_fract_y
 _atom_site_fract_z
 _atom_site_charge
 Fe 0.63004 0.25 0.23992   0.248497
 Fe 0.11996 0.25 0.26008   0.246112
 Fe 0.36996 0.75 0.76008   0.248497
 Fe 0.88004 0.75 0.73992   0.246112
 H 0.24528 0.99322 0.07678   0.110637
 H 0.1788 0.11676 0.13958   0.118668
 H 0.73547 0.12438 0.10274   0.117798
 H 0.72362 0.09424 0.01112   0.108826
 H 0.7956 0.83832 0.25   0.106591
 H 0.72583 0.9935 0.25   0.119193
 H 0.17794 0.50678 0.07678   0.110701
 H 0.18162 0.38324 0.13958   0.118357
 H 0.66179 0.37562 0.10274   0.118387
 H 0.76526 0.40576 0.01112   0.109488
 H 0.4544 0.66168 0.25   0.106581
 H 0.52417 0.5065 0.25   0.119232
 H 0.7615 0.99322 0.42322   0.111002
 H 0.70444 0.11676 0.36042   0.119289
 H 0.14015 0.12438 0.39726   0.118944
 H 0.18214 0.09424 0.48888   0.109993
 H 0.36608 0.83832 0.25   0.105657
 H 0.28067 0.9935 0.25   0.119441
 H 0.31528 0.50678 0.42322   0.109792
 H 0.43514 0.38324 0.36042   0.120031
 H 0.96259 0.37562 0.39726   0.117724
 H 0.82898 0.40576 0.48888   0.108921
 H 0.88392 0.66168 0.25   0.10566
 H 0.96933 0.5065 0.25   0.119468
 H 0.75472 0.00678 0.92322   0.110637
 H 0.8212 0.88324 0.86042   0.118668
 H 0.26453 0.87562 0.89726   0.117798
 H 0.27638 0.90576 0.98888   0.108827
 H 0.2044 0.16168 0.75   0.106591
 H 0.27417 0.0065 0.75   0.119193
 H 0.82206 0.49322 0.92322   0.110702
 H 0.81838 0.61676 0.86042   0.118357
 H 0.33821 0.62438 0.89726   0.118387
 H 0.23474 0.59424 0.98888   0.109489
 H 0.5456 0.33832 0.75   0.106581
 H 0.47583 0.4935 0.75   0.119232
 H 0.2385 0.00678 0.57678   0.111003
 H 0.29556 0.88324 0.63958   0.119289
 H 0.85985 0.87562 0.60274   0.118944
 H 0.81786 0.90576 0.51112   0.109994
 H 0.63392 0.16168 0.75   0.105657
 H 0.71933 0.0065 0.75   0.119441
 H 0.68472 0.49322 0.57678   0.109792
 H 0.56486 0.61676 0.63958   0.120031
 H 0.03741 0.62438 0.60274   0.117724
 H 0.17102 0.59424 0.51112   0.108922
 H 0.11608 0.33832 0.75   0.10566
 H 0.03067 0.4935 0.75   0.119468
 C 0.34869 0.99598 0.0456   -0.130094
 C 0.48153 0.05196 0.0522   0.077332
 C 0.46226 0.10614 0.10668   -0.101248
 C 0.29261 0.1345 0.14788   -0.048295
 C 0.61021 0.13886 0.12684   -0.067357
 C 0.63284 0.05598 0.0066   -0.131326
 C 0.92933 0.80246 0.25   -0.127929
 C 0.82869 0.02606 0.25   -0.055579
 C 0.10571 0.50402 0.0456   -0.130537
 C 0.96627 0.44804 0.0522   0.07614
 C 0.93106 0.39386 0.10668   -0.100236
 C 0.05951 0.3655 0.14788   -0.046381
 C 0.76295 0.36114 0.12684   -0.069184
 C 0.86056 0.44402 0.0066   -0.131233
 C 0.32067 0.69754 0.25   -0.127935
 C 0.42131 0.47394 0.25   -0.055464
 C 0.65533 0.99598 0.4544   -0.130569
 C 0.46651 0.05196 0.4478   0.077088
 C 0.4316 0.10614 0.39332   -0.100911
 C 0.57289 0.1345 0.35212   -0.047752
 C 0.25093 0.13886 0.37316   -0.069618
 C 0.31118 0.05598 0.4934   -0.132501
 C 0.26821 0.80246 0.25   -0.125843
 C 0.14525 0.02606 0.25   -0.058568
 C 0.39027 0.50402 0.4544   -0.12865
 C 0.58569 0.44804 0.4478   0.075408
 C 0.67508 0.39386 0.39332   -0.099409
 C 0.57499 0.3655 0.35212   -0.049935
 C 0.87591 0.36114 0.37316   -0.067318
 C 0.69542 0.44402 0.4934   -0.130846
 C 0.98179 0.69754 0.25   -0.125838
 C 0.10475 0.47394 0.25   -0.058761
 C 0.65131 0.00402 0.9544   -0.130101
 C 0.51847 0.94804 0.9478   0.077333
 C 0.53774 0.89386 0.89332   -0.101248
 C 0.70739 0.8655 0.85212   -0.048295
 C 0.38979 0.86114 0.87316   -0.067357
 C 0.36716 0.94402 0.9934   -0.131333
 C 0.07067 0.19754 0.75   -0.12793
 C 0.17131 0.97394 0.75   -0.055579
 C 0.89429 0.49598 0.9544   -0.130544
 C 0.03373 0.55196 0.9478   0.076142
 C 0.06894 0.60614 0.89332   -0.100236
 C 0.94049 0.6345 0.85212   -0.046381
 C 0.23705 0.63886 0.87316   -0.069184
 C 0.13944 0.55598 0.9934   -0.13124
 C 0.67933 0.30246 0.75   -0.127935
 C 0.57869 0.52606 0.75   -0.055464
 C 0.34467 0.00402 0.5456   -0.130576
 C 0.53349 0.94804 0.5522   0.07709
 C 0.5684 0.89386 0.60668   -0.100911
 C 0.42711 0.8655 0.64788   -0.047752
 C 0.74907 0.86114 0.62684   -0.069618
 C 0.68882 0.94402 0.5066   -0.132507
 C 0.73179 0.19754 0.75   -0.125843
 C 0.85475 0.97394 0.75   -0.058568
 C 0.60973 0.49598 0.5456   -0.128656
 C 0.41431 0.55196 0.5522   0.07541
 C 0.32492 0.60614 0.60668   -0.099409
 C 0.42501 0.6345 0.64788   -0.049935
 C 0.12409 0.63886 0.62684   -0.067318
 C 0.30458 0.55598 0.5066   -0.130852
 C 0.01821 0.30246 0.75   -0.125838
 C 0.89525 0.52606 0.75   -0.058761
 C 0.07254 0.85492 0.25   0.073874
 C 0.01781 0.96438 0.25   -0.104025
 C 0.17746 0.64508 0.25   0.073891
 C 0.23219 0.53562 0.25   -0.104054
 C 0.92746 0.14508 0.75   0.073874
 C 0.98219 0.03562 0.75   -0.104025
 C 0.82254 0.35492 0.75   0.073891
 C 0.76781 0.46438 0.75   -0.104054
 N 0.33569 0.18476 0.19352   -0.080225
 N 0.53198 0.18744 0.18052   -0.061561
 N 0.83925 0.12586 0.25   -0.065616
 N 0.97079 0.31524 0.19352   -0.082155
 N 0.7875 0.31256 0.18052   -0.059874
 N 0.41075 0.37414 0.25   -0.065489
 N 0.47955 0.18476 0.30648   -0.080097
 N 0.28058 0.18744 0.31948   -0.061575
 N 0.03489 0.12586 0.25   -0.061042
 N 0.71397 0.31524 0.30648   -0.082388
 N 0.89994 0.31256 0.31948   -0.060552
 N 0.21511 0.37414 0.25   -0.060733
 N 0.66431 0.81524 0.80648   -0.080225
 N 0.46802 0.81256 0.81948   -0.061561
 N 0.16075 0.87414 0.75   -0.065616
 N 0.02921 0.68476 0.80648   -0.082155
 N 0.2125 0.68744 0.81948   -0.059874
 N 0.58925 0.62586 0.75   -0.065489
 N 0.52045 0.81524 0.69352   -0.080097
 N 0.71942 0.81256 0.68052   -0.061575
 N 0.96511 0.87414 0.75   -0.061042
 N 0.28603 0.68476 0.69352   -0.082388
 N 0.10006 0.68744 0.68052   -0.060552
 N 0.78489 0.62586 0.75   -0.060733
