{'_ref': 'TBD', '_srcid': 'CAKYAQ_clean', 'submitters': [{'name': 'Dalar Nazarian Jeff Camp and David Sholl', 'email': 'dalar@gatech.edu jcamp6@gatech.edu'}], '_method': 'VASP DFT with PBE;DDEC'}
data_Er2H3(C5O4)3
_symmetry_space_group_name_H-M   'P 1'
_cell_length_a   10.41350004
_cell_length_b   10.55410018
_cell_length_c   14.03720000
_cell_angle_alpha   99.59500037
_cell_angle_beta   99.61999812
_cell_angle_gamma   108.84299874
_symmetry_Int_Tables_number   1
_chemical_formula_structural   Er2H3(C5O4)3
_chemical_formula_sum   'Er4 H6 C30 O24'
_cell_volume   1398.71760352
_cell_formula_units_Z   2
loop_
 _symmetry_equiv_pos_site_id
 _symmetry_equiv_pos_as_xyz
  1  'x, y, z'
loop_
 _atom_site_label
 _atom_site_fract_x
 _atom_site_fract_y
 _atom_site_fract_z
 _atom_site_charge
 Er 0.96416 0.46417 0.82145   1.54244
 Er 0.54178 0.06538 0.18199   1.617998
 Er 0.03584 0.53583 0.17855   1.54244
 Er 0.45822 0.93462 0.81801   1.618001
 H 0.7921 0.8183 0.9217   0.112144
 H 0.3015 0.3345 0.8915   0.130956
 H 0.0857 0.7373 0.5513   0.124845
 H 0.2079 0.1817 0.0783   0.112144
 H 0.6985 0.6655 0.1085   0.130955
 H 0.9143 0.2627 0.4487   0.124845
 C 0.0017 0.8792 0.9443   0.00305
 C 0.1277 0.988 0.9905   -0.074076
 C 0.8752 0.8911 0.9532   -0.078892
 C 0.000900000000001 0.7414 0.8944   0.601122
 C 0.265 0.9823 0.973   0.77481
 C 0.4881 0.6018 0.0719   0.003935
 C 0.3684 0.5016 0.0068   -0.110062
 C 0.3812 0.4007 0.9351   -0.046523
 C 0.4849 0.7205 0.147   0.640012
 C 0.2252 0.4986 0.0118   0.74122
 C 0.0302 0.4199 0.5651   -0.062649
 C 0.0829 0.5648 0.5961   -0.11179
 C 0.0511 0.6417 0.5303   -0.015232
 C 0.0562 0.326 0.6303   0.668559
 C 0.1769 0.6423 0.6967   0.748778
 C 0.9983 0.1208 0.0557   0.00305
 C 0.8723 0.012 0.0095   -0.074074
 C 0.1248 0.1089 0.0468   -0.07889
 C 0.9991 0.2586 0.1056   0.601122
 C 0.735 0.0177 0.027   0.77481
 C 0.5119 0.3982 0.9281   0.003939
 C 0.6316 0.4984 0.9932   -0.110063
 C 0.6188 0.5993 0.0649   -0.046519
 C 0.5151 0.2795 0.853   0.640011
 C 0.7748 0.5014 0.9882   0.74122
 C 0.9698 0.5801 0.4349   -0.062646
 C 0.9171 0.4352 0.4039   -0.11179
 C 0.9489 0.3583 0.4697   -0.015231
 C 0.9438 0.674 0.3697   0.668558
 C 0.8231 0.3577 0.3033   0.748778
 O 0.3624 0.0069 0.0469   -0.754169
 O 0.273 0.958 0.8836   -0.658327
 O 0.0762 0.6899 0.9426   -0.496795
 O 0.9198 0.6751 0.811   -0.579106
 O 0.1312 0.4425 0.9323   -0.649474
 O 0.2068 0.5494 0.0932   -0.648729
 O 0.4744 0.8217 0.1144   -0.621406
 O 0.5027 0.7151 0.2363   -0.434056
 O 0.1543 0.593 0.7706   -0.615899
 O 0.2738 0.7523 0.7009   -0.73689
 O 0.0002 0.3158 0.7011   -0.632954
 O 0.1247 0.2549 0.6058   -0.382852
 O 0.6376 0.9931 0.9531   -0.754169
 O 0.727 0.042 0.1164   -0.658327
 O 0.9238 0.3101 0.0574   -0.496795
 O 0.0802 0.3249 0.189   -0.579106
 O 0.8688 0.5575 0.0677   -0.649474
 O 0.7932 0.4506 0.9068   -0.648729
 O 0.5256 0.1783 0.8856   -0.621406
 O 0.4973 0.2849 0.7637   -0.434051
 O 0.8457 0.407 0.2294   -0.615899
 O 0.7262 0.2477 0.2991   -0.73689
 O 0.9998 0.6842 0.2989   -0.632954
 O 0.8753 0.7451 0.3942   -0.382847
