{'_ref': 'TBD', '_srcid': 'CAKYAQ_clean', 'submitters': [{'name': 'Dalar Nazarian Jeff Camp and David Sholl', 'email': 'dalar@gatech.edu jcamp6@gatech.edu'}], '_method': 'VASP DFT with PBE;DDEC'}
data_MnH5C8NO4
_symmetry_space_group_name_H-M   'P 1'
_cell_length_a   7.78080000
_cell_length_b   10.85290000
_cell_length_c   15.27520000
_cell_angle_alpha   90.00000000
_cell_angle_beta   90.00000000
_cell_angle_gamma   90.00000000
_symmetry_Int_Tables_number   1
_chemical_formula_structural   MnH5C8NO4
_chemical_formula_sum   'Mn4 H20 C32 N4 O16'
_cell_volume   1289.90272084
_cell_formula_units_Z   4
loop_
 _symmetry_equiv_pos_site_id
 _symmetry_equiv_pos_as_xyz
  1  'x, y, z'
loop_
 _atom_site_label
 _atom_site_fract_x
 _atom_site_fract_y
 _atom_site_fract_z
 _atom_site_charge
 Mn 0.98408 0.29866 0.70584   1.151992
 Mn 0.01592 0.79866 0.29416   1.151992
 Mn 0.48408 0.29866 0.79416   1.151997
 Mn 0.51592 0.79866 0.20584   1.151997
 H 0.89 0.9013 0.5733   0.349609
 H 0.8598 0.9773 0.6531   0.346548
 H 0.2011 0.0239 0.5061   0.099954
 H 0.5811 0.0712 0.6814   0.106127
 H 0.6642 0.8683 0.466   0.114719
 H 0.11 0.4013 0.4267   0.349609
 H 0.1402 0.4773 0.3469   0.346548
 H 0.7989 0.5239 0.4939   0.099953
 H 0.4189 0.5712 0.3186   0.106127
 H 0.3358 0.3683 0.534   0.114719
 H 0.39 0.9013 0.9267   0.349609
 H 0.3598 0.9773 0.8469   0.346549
 H 0.7011 0.0239 0.9939   0.099954
 H 0.0811 0.0712 0.8186   0.106128
 H 0.1642 0.8683 0.034   0.114719
 H 0.61 0.4013 0.0733   0.349609
 H 0.6402 0.4773 0.1531   0.346549
 H 0.2989 0.5239 0.0061   0.099953
 H 0.9189 0.5712 0.1814   0.106128
 H 0.8358 0.3683 0.966   0.114719
 C 0.4227 0.9362 0.47418   -0.117988
 C 0.3134 0.00934 0.52426   -0.070014
 C 0.3744 0.06051 0.6021   -0.12725
 C 0.5422 0.038 0.62888   -0.155969
 C 0.6528 0.96666 0.57827   0.290583
 C 0.5917 0.91599 0.50059   -0.171084
 C 0.3616 0.88182 0.38892   0.761467
 C 0.2598 0.13999 0.65698   0.698955
 C 0.5773 0.4362 0.52582   -0.11799
 C 0.6866 0.50934 0.47574   -0.070013
 C 0.6256 0.56051 0.3979   -0.12725
 C 0.4578 0.538 0.37112   -0.155966
 C 0.3472 0.46666 0.42173   0.290581
 C 0.4083 0.41599 0.49941   -0.171084
 C 0.6384 0.38182 0.61108   0.76147
 C 0.7402 0.63999 0.34302   0.698954
 C 0.9227 0.9362 0.02582   -0.117988
 C 0.8134 0.00934 0.97574   -0.070014
 C 0.8744 0.06051 0.8979   -0.12725
 C 0.0422 0.038 0.87112   -0.155969
 C 0.1528 0.96666 0.92173   0.290583
 C 0.0917 0.91599 0.99941   -0.171084
 C 0.8616 0.88182 0.11108   0.761467
 C 0.7598 0.13999 0.84302   0.698954
 C 0.0773 0.4362 0.97418   -0.11799
 C 0.1866 0.50934 0.02426   -0.070013
 C 0.1256 0.56051 0.1021   -0.12725
 C 0.9578 0.538 0.12888   -0.155966
 C 0.8472 0.46666 0.07827   0.290582
 C 0.9083 0.41599 0.000590000000002   -0.171084
 C 0.1384 0.38182 0.88892   0.76147
 C 0.2402 0.63999 0.15698   0.698954
 N 0.8228 0.9457 0.60502   -0.716756
 N 0.1772 0.4457 0.39498   -0.716756
 N 0.3228 0.9457 0.89498   -0.716757
 N 0.6772 0.4457 0.10502   -0.716756
 O 0.1158 0.1708 0.62725   -0.594675
 O 0.3096 0.17178 0.73302   -0.659195
 O 0.4744 0.86179 0.33218   -0.664888
 O 0.20454 0.86248 0.3803   -0.64214
 O 0.8842 0.6708 0.37275   -0.594675
 O 0.6904 0.67178 0.26698   -0.659195
 O 0.5256 0.36179 0.66782   -0.664888
 O 0.79546 0.36248 0.6197   -0.64214
 O 0.6158 0.1708 0.87275   -0.594676
 O 0.8096 0.17178 0.76698   -0.659195
 O 0.9744 0.86179 0.16782   -0.664888
 O 0.70454 0.86248 0.1197   -0.64214
 O 0.3842 0.6708 0.12725   -0.594675
 O 0.1904 0.67178 0.23302   -0.659194
 O 0.0256 0.36179 0.83218   -0.664888
 O 0.29546 0.36248 0.8803   -0.64214
