{'_ref': 'TBD', '_srcid': 'CAKYAQ_clean', 'submitters': [{'name': 'Dalar Nazarian Jeff Camp and David Sholl', 'email': 'dalar@gatech.edu jcamp6@gatech.edu'}], '_method': 'VASP DFT with PBE;DDEC'}
data_Zn2H6PtC14N2(ClO4)2
_symmetry_space_group_name_H-M   'P 1'
_cell_length_a   12.76600000
_cell_length_b   14.90300000
_cell_length_c   23.34000000
_cell_angle_alpha   90.00000000
_cell_angle_beta   90.00000000
_cell_angle_gamma   90.00000000
_symmetry_Int_Tables_number   1
_chemical_formula_structural   Zn2H6PtC14N2(ClO4)2
_chemical_formula_sum   'Zn8 H24 Pt4 C56 N8 Cl8 O32'
_cell_volume   4440.47463132
_cell_formula_units_Z   4
loop_
 _symmetry_equiv_pos_site_id
 _symmetry_equiv_pos_as_xyz
  1  'x, y, z'
loop_
 _atom_site_label
 _atom_site_fract_x
 _atom_site_fract_y
 _atom_site_fract_z
 _atom_site_charge
 Zn 0.84944 0.48828 0.09863   0.876672
 Zn 0.74746 0.6058 0.98468   1.009258
 Zn 0.15056 0.98828 0.90137   0.876672
 Zn 0.25254 0.1058 0.01532   1.009258
 Zn 0.65056 0.48828 0.59863   0.876672
 Zn 0.75254 0.6058 0.48468   1.009258
 Zn 0.34944 0.98828 0.40137   0.876672
 Zn 0.24746 0.1058 0.51532   1.009258
 H 0.9321 0.7336 0.1694   0.091559
 H 0.9784 0.8312 0.0118   0.115418
 H 0.1014 0.9516 0.1509   0.104282
 H 0.123 0.956 0.3549   0.072997
 H 0.0028 0.8604 0.5006   0.121302
 H 0.9217 0.7561 0.3497   0.100692
 H 0.0679 0.2336 0.8306   0.091559
 H 0.0216 0.3312 0.9882   0.115418
 H 0.8986 0.4516 0.8491   0.104282
 H 0.877 0.456 0.6451   0.072997
 H 0.9972 0.3604 0.4994   0.121302
 H 0.0783 0.2561 0.6503   0.100692
 H 0.5679 0.7336 0.6694   0.091559
 H 0.5216 0.8312 0.5118   0.115418
 H 0.3986 0.9516 0.6509   0.104282
 H 0.377 0.956 0.8549   0.072997
 H 0.4972 0.8604 0.000599999999999   0.121302
 H 0.5783 0.7561 0.8497   0.100692
 H 0.4321 0.2336 0.3306   0.091559
 H 0.4784 0.3312 0.4882   0.115417
 H 0.6014 0.4516 0.3491   0.104282
 H 0.623 0.456 0.1451   0.072997
 H 0.5028 0.3604 0.9994   0.121302
 H 0.4217 0.2561 0.1503   0.100692
 Pt 0.02666 0.85073 0.25589   0.190424
 Pt 0.97334 0.35073 0.74411   0.190424
 Pt 0.47334 0.85073 0.75589   0.190424
 Pt 0.52666 0.35073 0.24411   0.190424
 C 0.9631 0.776 0.1454   0.152213
 C 0.9489 0.7678 0.087   -0.189504
 C 0.9904 0.8331 0.051   0.073894
 C 0.0501 0.9013 0.0752   -0.201261
 C 0.0626 0.9057 0.1344   0.156129
 C 0.894 0.6852 0.065   0.724588
 C 0.1054 0.968 0.0368   0.714664
 C 0.0805 0.9151 0.374   0.114268
 C 0.0743 0.9177 0.4331   -0.206073
 C 0.0093 0.8586 0.4611   0.078582
 C 0.9542 0.7962 0.4289   -0.154509
 C 0.9613 0.7964 0.3706   0.150785
 C 0.1339 0.9848 0.4672   0.673237
 C 0.8839 0.7273 0.458   0.641053
 C 0.0369 0.276 0.8546   0.152213
 C 0.0511 0.2678 0.913   -0.189504
 C 0.0096 0.3331 0.949   0.073895
 C 0.9499 0.4013 0.9248   -0.201261
 C 0.9374 0.4057 0.8656   0.156129
 C 0.106 0.1852 0.935   0.724588
 C 0.8946 0.468 0.9632   0.714665
 C 0.9195 0.4151 0.626   0.114268
 C 0.9257 0.4177 0.5669   -0.206073
 C 0.9907 0.3586 0.5389   0.078582
 C 0.0458 0.2962 0.5711   -0.154509
 C 0.0387 0.2964 0.6294   0.150785
 C 0.8661 0.4848 0.5328   0.673238
 C 0.1161 0.2273 0.542   0.641054
 C 0.5369 0.776 0.6454   0.152213
 C 0.5511 0.7678 0.587   -0.189504
 C 0.5096 0.8331 0.551   0.073896
 C 0.4499 0.9013 0.5752   -0.201261
 C 0.4374 0.9057 0.6344   0.156129
 C 0.606 0.6852 0.565   0.724588
 C 0.3946 0.968 0.5368   0.714664
 C 0.4195 0.9151 0.874   0.114268
 C 0.4257 0.9177 0.9331   -0.206073
 C 0.4907 0.8586 0.9611   0.078583
 C 0.5458 0.7962 0.9289   -0.154509
 C 0.5387 0.7964 0.8706   0.150785
 C 0.3661 0.9848 0.9672   0.673237
 C 0.6161 0.7273 0.958   0.641053
 C 0.4631 0.276 0.3546   0.152213
 C 0.4489 0.2678 0.413   -0.189504
 C 0.4904 0.3331 0.449   0.073896
 C 0.5501 0.4013 0.4248   -0.201261
 C 0.5626 0.4057 0.3656   0.156129
 C 0.394 0.1852 0.435   0.724588
 C 0.6054 0.468 0.4632   0.714665
 C 0.5805 0.4151 0.126   0.114268
 C 0.5743 0.4177 0.0669   -0.206073
 C 0.5093 0.3586 0.0389   0.078584
 C 0.4542 0.2962 0.0711   -0.154509
 C 0.4613 0.2964 0.1294   0.150785
 C 0.6339 0.4848 0.0328   0.673238
 C 0.3839 0.2273 0.042   0.641054
 N 0.0193 0.8429 0.16872   -0.104493
 N 0.0243 0.8537 0.34225   -0.097968
 N 0.9807 0.3429 0.83128   -0.104493
 N 0.9757 0.3537 0.65775   -0.097968
 N 0.4807 0.8429 0.66872   -0.104493
 N 0.4757 0.8537 0.84225   -0.097968
 N 0.5193 0.3429 0.33128   -0.104493
 N 0.5243 0.3537 0.15775   -0.097968
 Cl 0.0578 0.69838 0.26113   -0.313689
 Cl 0.99403 0.00227 0.2512   -0.308992
 Cl 0.9422 0.19838 0.73887   -0.313689
 Cl 0.00597 0.50227 0.7488   -0.308992
 Cl 0.4422 0.69838 0.76113   -0.313689
 Cl 0.50597 0.00227 0.7512   -0.308992
 Cl 0.5578 0.19838 0.23887   -0.313689
 Cl 0.49403 0.50227 0.2488   -0.308992
 O 0.8937 0.6185 0.09793   -0.584998
 O 0.8509 0.6919 0.01622   -0.567409
 O 0.0928 0.9578 0.9839   -0.627198
 O 0.1609 0.0254 0.06181   -0.543691
 O 0.2077 0.0299 0.4423   -0.617241
 O 0.1122 0.9976 0.5179   -0.487468
 O 0.8913 0.7152 0.5104   -0.575261
 O 0.8229 0.6829 0.4253   -0.582263
 O 0.1063 0.1185 0.90207   -0.584998
 O 0.1491 0.1919 0.98378   -0.567409
 O 0.9072 0.4578 0.0161   -0.627198
 O 0.8391 0.5254 0.93819   -0.543691
 O 0.7923 0.5299 0.5577   -0.617241
 O 0.8878 0.4976 0.4821   -0.487468
 O 0.1087 0.2152 0.4896   -0.575261
 O 0.1771 0.1829 0.5747   -0.582263
 O 0.6063 0.6185 0.59793   -0.584998
 O 0.6491 0.6919 0.51622   -0.567409
 O 0.4072 0.9578 0.4839   -0.627198
 O 0.3391 0.0254 0.56181   -0.543691
 O 0.2923 0.0299 0.9423   -0.617241
 O 0.3878 0.9976 0.0179   -0.487468
 O 0.6087 0.7152 0.0104   -0.575261
 O 0.6771 0.6829 0.9253   -0.582263
 O 0.3937 0.1185 0.40207   -0.584998
 O 0.3509 0.1919 0.48378   -0.567409
 O 0.5928 0.4578 0.5161   -0.627198
 O 0.6609 0.5254 0.43819   -0.543691
 O 0.7077 0.5299 0.0577   -0.617241
 O 0.6122 0.4976 0.9821   -0.487468
 O 0.3913 0.2152 0.9896   -0.575261
 O 0.3229 0.1829 0.0747   -0.582263
