{'_ref': 'TBD', '_srcid': 'CAKYAQ_clean', 'submitters': [{'name': 'Dalar Nazarian Jeff Camp and David Sholl', 'email': 'dalar@gatech.edu jcamp6@gatech.edu'}], '_method': 'VASP DFT with PBE;DDEC'}
data_Cd3H12(C6N5)2
_symmetry_space_group_name_H-M   'P 1'
_cell_length_a   7.78200000
_cell_length_b   11.32630050
_cell_length_c   13.27200000
_cell_angle_alpha   90.00000000
_cell_angle_beta   90.00000000
_cell_angle_gamma   110.09200107
_symmetry_Int_Tables_number   1
_chemical_formula_structural   Cd3H12(C6N5)2
_chemical_formula_sum   'Cd6 H24 C24 N20'
_cell_volume   1098.61884543
_cell_formula_units_Z   2
loop_
 _symmetry_equiv_pos_site_id
 _symmetry_equiv_pos_as_xyz
  1  'x, y, z'
loop_
 _atom_site_label
 _atom_site_fract_x
 _atom_site_fract_y
 _atom_site_fract_z
 _atom_site_charge
 Cd 0.27967 0.31528 0.25   0.5904
 Cd 0.72033 0.68472 0.75   0.590399
 Cd 0.96439 0.68472 0.25   0.58938
 Cd 0.03561 0.31528 0.75   0.589379
 Cd 0.5 0.0 0.0   0.865211
 Cd 0.5 0.0 0.5   0.865211
 H 0.1996 0.1064 0.9114   0.080301
 H 0.384 0.1998 0.8369   0.097132
 H 0.0932 0.8936 0.5886   0.080254
 H 0.1842 0.8002 0.6631   0.096926
 H 0.1996 0.1064 0.5886   0.080304
 H 0.384 0.1998 0.6631   0.097133
 H 0.0932 0.8936 0.9114   0.080257
 H 0.1842 0.8002 0.8369   0.096927
 H 0.9172 0.0 0.8164   0.071181
 H 0.9172 0.0 0.6836   0.071181
 H 0.4671 0.917 0.75   0.074252
 H 0.5501 0.083 0.75   0.074722
 H 0.8004 0.8936 0.4114   0.080302
 H 0.616 0.8002 0.3369   0.097132
 H 0.9068 0.1064 0.0886   0.080255
 H 0.8158 0.1998 0.1631   0.096926
 H 0.8004 0.8936 0.0886   0.080305
 H 0.616 0.8002 0.1631   0.097133
 H 0.9068 0.1064 0.4114   0.080259
 H 0.8158 0.1998 0.3369   0.096927
 H 0.0828 0.0 0.3164   0.071181
 H 0.0828 0.0 0.1836   0.071181
 H 0.5329 0.083 0.25   0.074252
 H 0.4499 0.917 0.25   0.074722
 C 0.3518 0.2144 0.1211   -0.053186
 C 0.6482 0.7856 0.6211   -0.053185
 C 0.1374 0.7856 0.3789   -0.052775
 C 0.8626 0.2144 0.8789   -0.052775
 C 0.6482 0.7856 0.8789   -0.053185
 C 0.3518 0.2144 0.3789   -0.053186
 C 0.8626 0.2144 0.6211   -0.052775
 C 0.1374 0.7856 0.1211   -0.052775
 C 0.1068 0.4298 0.25   -0.079385
 C 0.8932 0.5702 0.75   -0.079385
 C 0.677 0.5702 0.25   -0.077139
 C 0.323 0.4298 0.75   -0.077138
 C 0.2687 0.1128 0.84   0.06603
 C 0.1559 0.8872 0.66   0.066103
 C 0.2687 0.1128 0.66   0.06603
 C 0.1559 0.8872 0.84   0.066103
 C 0.9973 0.0 0.75   0.062672
 C 0.4285 0.0 0.75   0.063659
 C 0.7313 0.8872 0.34   0.066029
 C 0.8441 0.1128 0.16   0.066102
 C 0.7313 0.8872 0.16   0.066029
 C 0.8441 0.1128 0.34   0.066102
 C 0.0027 0.0 0.25   0.062672
 C 0.5715 0.0 0.25   0.063659
 N 0.398 0.1508 0.0703   -0.341766
 N 0.602 0.8492 0.5703   -0.341766
 N 0.2472 0.8492 0.4297   -0.342038
 N 0.7528 0.1508 0.9297   -0.342038
 N 0.602 0.8492 0.9297   -0.341765
 N 0.398 0.1508 0.4297   -0.341765
 N 0.7528 0.1508 0.5703   -0.342038
 N 0.2472 0.8492 0.0703   -0.342038
 N 0.0451 0.5074 0.25   -0.294563
 N 0.9549 0.4926 0.75   -0.294563
 N 0.5377 0.4926 0.25   -0.2969
 N 0.4623 0.5074 0.75   -0.2969
 N 0.3234 0.0 0.8432   -0.274115
 N 0.3234 0.0 0.6568   -0.274115
 N 0.1599 0.1154 0.75   -0.280829
 N 0.0445 0.8846 0.75   -0.279584
 N 0.6766 0.0 0.3432   -0.274115
 N 0.6766 0.0 0.1568   -0.274115
 N 0.8401 0.8846 0.25   -0.280829
 N 0.9555 0.1154 0.25   -0.279584
