{'_ref': 'TBD', '_srcid': 'CAKYAQ_clean', 'submitters': [{'name': 'Dalar Nazarian Jeff Camp and David Sholl', 'email': 'dalar@gatech.edu jcamp6@gatech.edu'}], '_method': 'VASP DFT with PBE;DDEC'}
data_CoH11C19(NO3)2
_symmetry_space_group_name_H-M   'P 1'
_cell_length_a   11.38900000
_cell_length_b   16.67359985
_cell_length_c   16.67360000
_cell_angle_alpha   120.00000030
_cell_angle_beta   90.00000000
_cell_angle_gamma   90.00000000
_symmetry_Int_Tables_number   1
_chemical_formula_structural   CoH11C19(NO3)2
_chemical_formula_sum   'Co3 H33 C57 N6 O18'
_cell_volume   2742.04751792
_cell_formula_units_Z   3
loop_
 _symmetry_equiv_pos_site_id
 _symmetry_equiv_pos_as_xyz
  1  'x, y, z'
loop_
 _atom_site_label
 _atom_site_fract_x
 _atom_site_fract_y
 _atom_site_fract_z
 _atom_site_charge
 Co 0.0 0.67765 0.67765   0.742837
 Co 0.0 0.0 0.32235   0.742838
 Co 0.0 0.32235 0.0   0.742837
 H 0.5918 0.6072 0.7446   0.134791
 H 0.7938 0.5989 0.7294   0.09467
 H 0.5918 0.1374 0.3928   0.134791
 H 0.7938 0.1305 0.4011   0.09467
 H 0.5918 0.2554 0.8626   0.134792
 H 0.7938 0.2706 0.8695   0.09467
 H 0.4082 0.6072 0.7446   0.134797
 H 0.2062 0.5989 0.7294   0.09467
 H 0.4082 0.1374 0.3928   0.134798
 H 0.2062 0.1305 0.4011   0.09467
 H 0.4082 0.2554 0.8626   0.134798
 H 0.2062 0.2706 0.8695   0.09467
 H 0.4082 0.8626 0.2554   0.134793
 H 0.2062 0.8695 0.2706   0.09467
 H 0.4082 0.7446 0.6072   0.134794
 H 0.2062 0.7294 0.5989   0.09467
 H 0.4082 0.3928 0.1374   0.134794
 H 0.2062 0.4011 0.1305   0.09467
 H 0.5918 0.8626 0.2554   0.134799
 H 0.7938 0.8695 0.2706   0.09467
 H 0.5918 0.7446 0.6072   0.1348
 H 0.7938 0.7294 0.5989   0.09467
 H 0.5918 0.3928 0.1374   0.1348
 H 0.7938 0.4011 0.1305   0.09467
 H 0.0 0.2844 0.5097   0.103085
 H 0.0 0.2253 0.7156   0.103084
 H 0.0 0.4903 0.7747   0.103084
 H 0.0 0.7747 0.4903   0.103085
 H 0.0 0.5097 0.2844   0.103085
 H 0.0 0.7156 0.2253   0.103083
 H 0.0 0.0 0.8617   0.110397
 H 0.0 0.8617 0.0   0.110397
 H 0.0 0.1383 0.1383   0.110397
 C 0.6294 0.634 0.7142   -0.201903
 C 0.7524 0.633 0.7085   0.172685
 C 0.6294 0.0802 0.366   -0.201904
 C 0.7524 0.0755 0.367   0.172685
 C 0.6294 0.2858 0.9198   -0.201904
 C 0.7524 0.2915 0.9245   0.172685
 C 0.3706 0.634 0.7142   -0.201905
 C 0.2476 0.633 0.7085   0.172685
 C 0.3706 0.0802 0.366   -0.201905
 C 0.2476 0.0755 0.367   0.172685
 C 0.3706 0.2858 0.9198   -0.201905
 C 0.2476 0.2915 0.9245   0.172685
 C 0.3706 0.9198 0.2858   -0.201903
 C 0.2476 0.9245 0.2915   0.172685
 C 0.3706 0.7142 0.634   -0.201903
 C 0.2476 0.7085 0.633   0.172685
 C 0.3706 0.366 0.0802   -0.201903
 C 0.2476 0.367 0.0755   0.172685
 C 0.6294 0.9198 0.2858   -0.201901
 C 0.7524 0.9245 0.2915   0.172685
 C 0.6294 0.7142 0.634   -0.201901
 C 0.7524 0.7085 0.633   0.172685
 C 0.6294 0.366 0.0802   -0.201901
 C 0.7524 0.367 0.0755   0.172685
 C 0.0 0.9161 0.9161   -0.161586
 C 0.0 0.8264 0.8264   0.601633
 C 0.0 0.0 0.0839   -0.161585
 C 0.0 0.0 0.1736   0.601632
 C 0.0 0.0839 0.0   -0.161585
 C 0.0 0.1736 0.0   0.601632
 C 0.0 0.3982 0.6373   -0.161721
 C 0.0 0.3041 0.5727   -0.00334
 C 0.0 0.4678 0.6055   0.628172
 C 0.0 0.2391 0.6018   -0.161709
 C 0.0 0.2686 0.6959   -0.003341
 C 0.0 0.1377 0.5322   0.628169
 C 0.0 0.3627 0.7609   -0.161712
 C 0.0 0.4273 0.7314   -0.003329
 C 0.0 0.3945 0.8623   0.62817
 C 0.0 0.7609 0.3627   -0.161723
 C 0.0 0.7314 0.4273   -0.003339
 C 0.0 0.8623 0.3945   0.628171
 C 0.0 0.6373 0.3982   -0.161709
 C 0.0 0.5727 0.3041   -0.003342
 C 0.0 0.6055 0.4678   0.628169
 C 0.0 0.6018 0.2391   -0.16171
 C 0.0 0.6959 0.2686   -0.003329
 C 0.0 0.5322 0.1377   0.628168
 C 0.0 0.0 0.9174   0.021233
 C 0.0 0.9174 0.0   0.021233
 C 0.0 0.0826 0.0826   0.021233
 C 0.5653 0.6757 0.6757   0.094226
 C 0.5653 0.0 0.3243   0.094227
 C 0.5653 0.3243 0.0   0.094227
 C 0.4347 0.6757 0.6757   0.094239
 C 0.4347 0.0 0.3243   0.09424
 C 0.4347 0.3243 0.0   0.09424
 N 0.8111 0.6757 0.6757   -0.223473
 N 0.8111 0.0 0.3243   -0.223474
 N 0.8111 0.3243 0.0   -0.223474
 N 0.1889 0.6757 0.6757   -0.223474
 N 0.1889 0.0 0.3243   -0.223474
 N 0.1889 0.3243 0.0   -0.223474
 O 0.0 0.5507 0.6654   -0.532312
 O 0.0 0.8275 0.7513   -0.486868
 O 0.0 0.437 0.5208   -0.47554
 O 0.0 0.1147 0.4493   -0.53231
 O 0.0 0.9238 0.1725   -0.486868
 O 0.0 0.0838 0.563   -0.475537
 O 0.0 0.3346 0.8853   -0.532313
 O 0.0 0.2487 0.0762   -0.486867
 O 0.0 0.4792 0.9162   -0.475539
 O 0.0 0.8853 0.3346   -0.532313
 O 0.0 0.0762 0.2487   -0.486867
 O 0.0 0.9162 0.4792   -0.475531
 O 0.0 0.6654 0.5507   -0.532312
 O 0.0 0.7513 0.8275   -0.486868
 O 0.0 0.5208 0.437   -0.475531
 O 0.0 0.4493 0.1147   -0.53231
 O 0.0 0.1725 0.9238   -0.486868
 O 0.0 0.563 0.0838   -0.475529
