{'_ref': 'TBD', '_srcid': 'CAKYAQ_clean', 'submitters': [{'name': 'Dalar Nazarian Jeff Camp and David Sholl', 'email': 'dalar@gatech.edu jcamp6@gatech.edu'}], '_method': 'VASP DFT with PBE;DDEC'}
data_Nd2H24C42(SO6)3
_symmetry_space_group_name_H-M   'P 1'
_cell_length_a   14.88300039
_cell_length_b   16.79500019
_cell_length_c   17.49000000
_cell_angle_alpha   93.19200065
_cell_angle_beta   114.06300056
_cell_angle_gamma   103.78199917
_symmetry_Int_Tables_number   1
_chemical_formula_structural   Nd2H24C42(SO6)3
_chemical_formula_sum   'Nd4 H48 C84 S6 O36'
_cell_volume   3818.95388252
_cell_formula_units_Z   2
loop_
 _symmetry_equiv_pos_site_id
 _symmetry_equiv_pos_as_xyz
  1  'x, y, z'
loop_
 _atom_site_label
 _atom_site_fract_x
 _atom_site_fract_y
 _atom_site_fract_z
 _atom_site_charge
 Nd 0.1245 0.96545 0.57907   2.251592
 Nd 0.12611 0.46511 0.00367   2.245889
 Nd 0.8755 0.03455 0.42093   2.251592
 Nd 0.87389 0.53489 0.99633   2.245889
 H 0.2537 0.0042 0.3772   0.117394
 H 0.3052 0.0097 0.2682   0.107322
 H 0.0379 0.0456 0.1147   0.099319
 H 0.9893 0.0429 0.2225   0.108602
 H 0.3356 0.9143 0.1109   0.126974
 H 0.3063 0.7717 0.0848   0.118473
 H 0.0011 0.7372 0.9949   0.105876
 H 0.0312 0.8812 0.0177   0.118879
 H 0.006 0.2377 0.5308   0.10038
 H 0.0348 0.3786 0.5206   0.119094
 H 0.3387 0.4042 0.6058   0.122561
 H 0.3065 0.2641 0.6156   0.115832
 H 0.3019 0.4972 0.4393   0.112196
 H 0.2444 0.4943 0.2929   0.098011
 H 0.9703 0.5088 0.2702   0.118274
 H 0.0292 0.515 0.4186   0.099541
 H 0.4553 0.9446 0.5767   0.111538
 H 0.5721 0.8787 0.5684   0.096865
 H 0.3523 0.6616 0.4878   0.083096
 H 0.2376 0.7293 0.4959   0.109191
 H 0.7205 0.7884 0.6869   0.089904
 H 0.7909 0.7486 0.8199   0.119478
 H 0.5754 0.5246 0.7228   0.124657
 H 0.5079 0.566 0.5907   0.110127
 H 0.7463 0.9958 0.6228   0.117393
 H 0.6948 0.9903 0.7318   0.107323
 H 0.9621 0.9544 0.8853   0.099319
 H 0.0107 0.9571 0.7775   0.108602
 H 0.6644 0.0857 0.8891   0.126975
 H 0.6937 0.2283 0.9152   0.118474
 H 0.9989 0.2628 0.0051   0.105876
 H 0.9688 0.1188 0.9823   0.118878
 H 0.994 0.7623 0.4692   0.10038
 H 0.9652 0.6214 0.4794   0.119093
 H 0.6613 0.5958 0.3942   0.122561
 H 0.6935 0.7359 0.3844   0.115833
 H 0.6981 0.5028 0.5607   0.112196
 H 0.7556 0.5057 0.7071   0.098011
 H 0.0297 0.4912 0.7298   0.118274
 H 0.9708 0.485 0.5814   0.099541
 H 0.5447 0.0554 0.4233   0.111538
 H 0.4279 0.1213 0.4316   0.096865
 H 0.6477 0.3384 0.5122   0.083096
 H 0.7624 0.2707 0.5041   0.109191
 H 0.2795 0.2116 0.3131   0.089904
 H 0.2091 0.2514 0.1801   0.119478
 H 0.4246 0.4754 0.2772   0.124657
 H 0.4921 0.434 0.4093   0.110127
 C 0.0786 0.0144 0.3799   0.793631
 C 0.116 0.0219 0.3091   -0.120865
 C 0.2106 0.0125 0.324   -0.04665
 C 0.2411 0.0155 0.2588   -0.042139
 C 0.1765 0.0272 0.1801   -0.194593
 C 0.0817 0.0374 0.1676   -0.025247
 C 0.0525 0.0353 0.2313   -0.035387
 C 0.1868 0.9098 0.0693   -0.180917
 C 0.2691 0.8788 0.0882   -0.048921
 C 0.2511 0.7936 0.0728   -0.030779
 C 0.1508 0.7391 0.0394   -0.140156
 C 0.0679 0.7722 0.0183   -0.040103
 C 0.0859 0.8584 0.0326   -0.044525
 C 0.1342 0.6455 0.0295   0.771766
 C 0.1369 0.1441 0.5753   0.774467
 C 0.1537 0.2369 0.5725   -0.133769
 C 0.0721 0.2711 0.5453   -0.053688
 C 0.0891 0.3552 0.5397   -0.047931
 C 0.1895 0.4034 0.5633   -0.191556
 C 0.2724 0.3711 0.5911   -0.040186
 C 0.2521 0.2873 0.5959   -0.011868
 C 0.1696 0.5069 0.4417   -0.19827
 C 0.236 0.5003 0.4059   -0.042684
 C 0.2011 0.4983 0.3181   -0.024924
 C 0.1034 0.5022 0.269   -0.14145
 C 0.0368 0.5074 0.304   -0.045341
 C 0.0723 0.5105 0.3932   -0.030791
 C 0.0668 0.4994 0.1728   0.792472
 C 0.2636 0.8849 0.5524   0.692502
 C 0.337 0.8432 0.5399   -0.086426
 C 0.4348 0.8873 0.5595   -0.058038
 C 0.5049 0.8481 0.5543   -0.035197
 C 0.4736 0.7632 0.5279   -0.194906
 C 0.3738 0.7188 0.5062   -0.011018
 C 0.3054 0.7593 0.5116   -0.052195
 C 0.6101 0.6805 0.626   -0.209068
 C 0.6925 0.7353 0.6943   -0.034764
 C 0.7345 0.7122 0.7746   -0.054945
 C 0.6885 0.6319 0.7846   -0.097852
 C 0.6047 0.5774 0.7158   -0.040419
 C 0.5645 0.602 0.6362   -0.011841
 C 0.7378 0.6042 0.8663   0.690632
 C 0.9214 0.9856 0.6201   0.793631
 C 0.884 0.9781 0.6909   -0.120865
 C 0.7894 0.9875 0.676   -0.04665
 C 0.7589 0.9845 0.7412   -0.042139
 C 0.8235 0.9728 0.8199   -0.194593
 C 0.9183 0.9626 0.8324   -0.025247
 C 0.9475 0.9647 0.7687   -0.035386
 C 0.8132 0.0902 0.9307   -0.180917
 C 0.7309 0.1212 0.9118   -0.048921
 C 0.7489 0.2064 0.9272   -0.030779
 C 0.8492 0.2609 0.9606   -0.140156
 C 0.9321 0.2278 0.9817   -0.040103
 C 0.9141 0.1416 0.9674   -0.044525
 C 0.8658 0.3545 0.9705   0.771766
 C 0.8631 0.8559 0.4247   0.774467
 C 0.8463 0.7631 0.4275   -0.133769
 C 0.9279 0.7289 0.4547   -0.053688
 C 0.9109 0.6448 0.4603   -0.047931
 C 0.8105 0.5966 0.4367   -0.191556
 C 0.7276 0.6289 0.4089   -0.040186
 C 0.7479 0.7127 0.4041   -0.011868
 C 0.8304 0.4931 0.5583   -0.19827
 C 0.764 0.4997 0.5941   -0.042684
 C 0.7989 0.5017 0.6819   -0.024923
 C 0.8966 0.4978 0.731   -0.141449
 C 0.9632 0.4926 0.696   -0.045341
 C 0.9277 0.4895 0.6068   -0.030791
 C 0.9332 0.5006 0.8272   0.792472
 C 0.7364 0.1151 0.4476   0.692502
 C 0.663 0.1568 0.4601   -0.086426
 C 0.5652 0.1127 0.4405   -0.058038
 C 0.4951 0.1519 0.4457   -0.035197
 C 0.5264 0.2368 0.4721   -0.194906
 C 0.6262 0.2812 0.4938   -0.011018
 C 0.6946 0.2407 0.4884   -0.052195
 C 0.3899 0.3195 0.374   -0.209068
 C 0.3075 0.2647 0.3057   -0.034763
 C 0.2655 0.2878 0.2254   -0.054944
 C 0.3115 0.3681 0.2154   -0.097853
 C 0.3953 0.4226 0.2842   -0.040419
 C 0.4355 0.398 0.3638   -0.011841
 C 0.2622 0.3958 0.1337   0.690632
 S 0.2083 0.0193 0.09318   1.092034
 S 0.211 0.51033 0.5528   1.107189
 S 0.5629 0.7108 0.52574   1.1253
 S 0.7917 0.9807 0.90682   1.092034
 S 0.789 0.48967 0.4472   1.107189
 S 0.4371 0.2892 0.47426   1.1253
 O 0.1379 0.0025 0.4492   -0.664637
 O 0.9876 0.0184 0.3573   -0.811309
 O 0.1341 0.0454 0.0221   -0.557186
 O 0.3176 0.0582 0.1235   -0.551766
 O 0.2089 0.6181 0.0364   -0.667268
 O 0.047 0.5982 0.0133   -0.847903
 O 0.047 0.0962 0.5341   -0.855113
 O 0.2104 0.119 0.6186   -0.653948
 O 0.32 0.5498 0.5951   -0.557627
 O 0.143 0.5431 0.5763   -0.560385
 O 0.9751 0.503 0.1341   -0.798539
 O 0.1288 0.4945 0.1438   -0.66984
 O 0.1691 0.8495 0.5159   -0.705531
 O 0.2978 0.9543 0.6005   -0.716513
 O 0.6461 0.7708 0.5217   -0.559338
 O 0.5079 0.636 0.4627   -0.563177
 O 0.8249 0.6511 0.9215   -0.743667
 O 0.6986 0.5343 0.8794   -0.687902
 O 0.8621 0.9975 0.5508   -0.664637
 O 0.0124 0.9816 0.6427   -0.811309
 O 0.8659 0.9546 0.9779   -0.557186
 O 0.6824 0.9418 0.8765   -0.551766
 O 0.7911 0.3819 0.9636   -0.667268
 O 0.953 0.4018 0.9867   -0.847903
 O 0.953 0.9038 0.4659   -0.855113
 O 0.7896 0.881 0.3814   -0.653948
 O 0.68 0.4502 0.4049   -0.557627
 O 0.857 0.4569 0.4237   -0.560385
 O 0.0249 0.497 0.8659   -0.798539
 O 0.8712 0.5055 0.8562   -0.66984
 O 0.8309 0.1505 0.4841   -0.705531
 O 0.7022 0.0457 0.3995   -0.716513
 O 0.3539 0.2292 0.4783   -0.559338
 O 0.4921 0.364 0.5373   -0.563177
 O 0.1751 0.3489 0.0785   -0.743667
 O 0.3014 0.4657 0.1206   -0.687902
