{'_ref': 'TBD', '_srcid': 'CAKYAQ_clean', 'submitters': [{'name': 'Dalar Nazarian Jeff Camp and David Sholl', 'email': 'dalar@gatech.edu jcamp6@gatech.edu'}], '_method': 'VASP DFT with PBE;DDEC'}
data_ErH3(C3O2)3
_symmetry_space_group_name_H-M   'P 1'
_cell_length_a   6.07200000
_cell_length_b   9.53000000
_cell_length_c   19.84400000
_cell_angle_alpha   90.00000000
_cell_angle_beta   90.00000000
_cell_angle_gamma   90.00000000
_symmetry_Int_Tables_number   1
_chemical_formula_structural   ErH3(C3O2)3
_chemical_formula_sum   'Er4 H12 C36 O24'
_cell_volume   1148.29607904
_cell_formula_units_Z   4
loop_
 _symmetry_equiv_pos_site_id
 _symmetry_equiv_pos_as_xyz
  1  'x, y, z'
loop_
 _atom_site_label
 _atom_site_fract_x
 _atom_site_fract_y
 _atom_site_fract_z
 _atom_site_charge
 Er 0.7861 0.4671 0.8137   1.559736
 Er 0.7139 0.5329 0.3137   1.559814
 Er 0.2139 0.9671 0.6863   1.559778
 Er 0.2861 0.0329 0.1863   1.559747
 H 0.82317 0.47231 0.06155   0.125742
 H 0.42051 0.61512 0.95883   0.120497
 H 0.56619 0.70484 0.06929   0.104255
 H 0.67683 0.52769 0.56155   0.125725
 H 0.07949 0.38488 0.45883   0.120358
 H 0.93381 0.29516 0.56929   0.104224
 H 0.17683 0.97231 0.43845   0.125731
 H 0.57949 0.11512 0.54117   0.12047
 H 0.43426 0.20514 0.42895   0.104802
 H 0.32317 0.02769 0.93845   0.125743
 H 0.92051 0.88488 0.04117   0.120497
 H 0.06619 0.79516 0.93071   0.104259
 C 0.2871 0.6254 0.128   -0.031605
 C 0.0814 0.5612 0.1257   -0.052378
 C 0.9926 0.5236 0.064   -0.083478
 C 0.1067 0.5472 0.004   -0.058201
 C 0.3185 0.6048 0.0068   -0.047825
 C 0.4006 0.6485 0.0684   -0.093249
 C 0.3889 0.6703 0.1944   0.686927
 C 0.9441 0.5409 0.1873   0.624082
 C 0.0024 0.5078 0.9371   0.640015
 C 0.2129 0.3746 0.628   -0.031561
 C 0.4186 0.4388 0.6257   -0.052363
 C 0.5074 0.4764 0.564   -0.083453
 C 0.3933 0.4528 0.504   -0.058183
 C 0.1815 0.3952 0.5068   -0.047428
 C 0.0994 0.3515 0.5684   -0.093267
 C 0.1111 0.3297 0.6944   0.686889
 C 0.5559 0.4591 0.6873   0.624023
 C 0.4976 0.4922 0.4371   0.64006
 C 0.7129 0.1254 0.372   -0.03272
 C 0.9186 0.0612 0.3743   -0.052271
 C 0.0074 0.0236 0.436   -0.083431
 C 0.8933 0.0472 0.496   -0.058278
 C 0.6815 0.1048 0.4932   -0.046677
 C 0.5994 0.1485 0.4316   -0.093516
 C 0.6111 0.1703 0.3056   0.686919
 C 0.0559 0.0409 0.3127   0.6238
 C 0.9976 0.0078 0.5629   0.640225
 C 0.7871 0.8746 0.872   -0.031628
 C 0.5814 0.9388 0.8743   -0.052371
 C 0.4926 0.9764 0.936   -0.083466
 C 0.6067 0.9528 0.996   -0.058248
 C 0.8185 0.8952 0.9932   -0.047812
 C 0.9006 0.8515 0.9316   -0.093246
 C 0.8889 0.8297 0.8056   0.686971
 C 0.4441 0.9591 0.8127   0.624094
 C 0.5024 0.9922 0.0629   0.640114
 O 0.4253 0.8032 0.2022   -0.586215
 O 0.4416 0.5775 0.2341   -0.579195
 O 0.8486 0.4269 0.1966   -0.486247
 O 0.9242 0.6404 0.2285   -0.60312
 O 0.8014 0.4942 0.9344   -0.650668
 O 0.1186 0.4961 0.8849   -0.589103
 O 0.0747 0.1968 0.7022   -0.586144
 O 0.0584 0.4225 0.7341   -0.579165
 O 0.6514 0.5731 0.6966   -0.48615
 O 0.5758 0.3596 0.7285   -0.603056
 O 0.6986 0.5058 0.4344   -0.650703
 O 0.3814 0.5039 0.3849   -0.589454
 O 0.5747 0.3032 0.2978   -0.586656
 O 0.5584 0.0775 0.2659   -0.57918
 O 0.1514 0.9269 0.3034   -0.486024
 O 0.0758 0.1404 0.2715   -0.603161
 O 0.1986 0.9942 0.5656   -0.650564
 O 0.8814 0.9961 0.6151   -0.589287
 O 0.9253 0.6968 0.7978   -0.586274
 O 0.9416 0.9225 0.7659   -0.579227
 O 0.3486 0.0731 0.8034   -0.486245
 O 0.4242 0.8596 0.7715   -0.603114
 O 0.3014 0.0058 0.0656   -0.650706
 O 0.6186 0.0039 0.1151   -0.589185
