{'_ref': 'TBD', '_srcid': 'CAKYAQ_clean', 'submitters': [{'name': 'Dalar Nazarian Jeff Camp and David Sholl', 'email': 'dalar@gatech.edu jcamp6@gatech.edu'}], '_method': 'VASP DFT with PBE;DDEC'}
data_YbH6(C2O)6
_symmetry_space_group_name_H-M   'P 1'
_cell_length_a   10.74279998
_cell_length_b   11.27859996
_cell_length_c   26.17200000
_cell_angle_alpha   85.06000123
_cell_angle_beta   88.10600044
_cell_angle_gamma   62.36699904
_symmetry_Int_Tables_number   1
_chemical_formula_structural   YbH6(C2O)6
_chemical_formula_sum   'Yb6 H36 C72 O36'
_cell_volume   2798.87033001
_cell_formula_units_Z   6
loop_
 _symmetry_equiv_pos_site_id
 _symmetry_equiv_pos_as_xyz
  1  'x, y, z'
loop_
 _atom_site_label
 _atom_site_fract_x
 _atom_site_fract_y
 _atom_site_fract_z
 _atom_site_charge
 Yb 0.37998 0.53581 0.56035   1.518996
 Yb 0.41142 0.11723 0.89964   1.460594
 Yb 0.3438 0.34639 0.74182   1.587755
 Yb 0.62002 0.46419 0.43965   1.518996
 Yb 0.58858 0.88277 0.10036   1.460594
 Yb 0.6562 0.65361 0.25818   1.587755
 H 0.8559 0.2681 0.6512   0.110495
 H 0.8263 0.516 0.5267   0.102309
 H 0.4602 0.1091 0.5741   0.114255
 H 0.5515 0.091 0.4252   0.100532
 H 0.434 0.6211 0.7777   0.100582
 H 0.3343 0.8591 0.6468   0.105829
 H 0.0733 0.2484 0.6705   0.108651
 H 0.0369 0.5045 0.55   0.087086
 H 0.0539 0.1566 0.0308   0.116679
 H 0.1312 0.8723 0.9359   0.106521
 H 0.5925 0.2801 0.0348   0.100598
 H 0.3573 0.5684 0.9283   0.10903
 H 0.8157 0.1643 0.9025   0.092634
 H 0.7108 0.3253 0.7592   0.103282
 H 0.0161 0.188 0.8964   0.085363
 H 0.9178 0.3379 0.7512   0.096006
 H 0.4597 0.7821 0.8185   0.113537
 H 0.3677 0.0175 0.6876   0.109752
 H 0.1441 0.7319 0.3488   0.110495
 H 0.1737 0.484 0.4733   0.102309
 H 0.5398 0.8909 0.4259   0.114254
 H 0.4485 0.909 0.5748   0.100531
 H 0.566 0.3789 0.2223   0.100582
 H 0.6657 0.1409 0.3532   0.105829
 H 0.9267 0.7516 0.3295   0.108651
 H 0.9631 0.4955 0.45   0.087085
 H 0.9461 0.8434 0.9692   0.116679
 H 0.8688 0.1277 0.0641   0.106521
 H 0.4075 0.7199 0.9652   0.100597
 H 0.6427 0.4316 0.0717   0.109029
 H 0.1843 0.8357 0.0975   0.092634
 H 0.2892 0.6747 0.2408   0.103282
 H 0.9839 0.812 0.1036   0.085363
 H 0.0822 0.6621 0.2488   0.096006
 H 0.5403 0.2179 0.1815   0.113537
 H 0.6323 0.9825 0.3124   0.109752
 C 0.6744 0.4157 0.5754   0.676021
 C 0.8173 0.3953 0.5879   -0.100946
 C 0.8928 0.3151 0.6305   -0.05931
 C 0.8735 0.4649 0.5563   -0.078647
 C 0.5117 0.2522 0.4988   0.684183
 C 0.4757 0.0654 0.5442   -0.055946
 C 0.5302 0.0548 0.4554   -0.053941
 C 0.3695 0.6175 0.6806   0.746116
 C 0.3831 0.7231 0.7083   -0.14595
 C 0.4201 0.7008 0.7595   -0.048343
 C 0.3615 0.8428 0.6811   -0.050438
 C 0.2089 0.3775 0.6275   0.736589
 C 0.0744 0.3774 0.6123   -0.132404
 C 0.0221 0.3043 0.6424   -0.04801
 C 0.000399999999999 0.4559 0.57   -0.032267
 C 0.2323 0.0366 0.9564   0.60768
 C 0.1145 0.0151 0.9804   -0.102115
 C 0.0331 0.0928 0.0184   -0.047449
 C 0.0786 0.9237 0.9621   -0.0573
 C 0.4387 0.3086 0.9534   0.613934
 C 0.4704 0.4089 0.9779   -0.103844
 C 0.5553 0.3684 0.0208   -0.049603
 C 0.415 0.5409 0.9572   -0.055943
 C 0.6108 0.224 0.8359   0.737044
 C 0.7414 0.2407 0.8315   -0.120886
 C 0.8353 0.2003 0.8718   -0.044544
 C 0.7737 0.2943 0.7867   -0.055963
 C 0.1292 0.2668 0.8172   0.725696
 C 0.9926 0.2585 0.8225   -0.12013
 C 0.9572 0.2119 0.868   -0.032838
 C 0.8976 0.3025 0.7819   -0.047917
 C 0.4398 0.018 0.7834   0.722632
 C 0.4191 0.9133 0.7569   -0.131166
 C 0.4366 0.7967 0.7838   -0.046038
 C 0.3807 0.9378 0.7056   -0.054569
 C 0.505 0.1199 0.4988   -0.109867
 C 0.3256 0.5843 0.4246   0.676021
 C 0.1827 0.6047 0.4121   -0.100946
 C 0.1072 0.6849 0.3695   -0.05931
 C 0.1265 0.5351 0.4437   -0.078647
 C 0.4883 0.7478 0.5012   0.684183
 C 0.5243 0.9346 0.4558   -0.055939
 C 0.4698 0.9452 0.5446   -0.053931
 C 0.6305 0.3825 0.3194   0.746116
 C 0.6169 0.2769 0.2917   -0.14595
 C 0.5799 0.2992 0.2405   -0.048343
 C 0.6385 0.1572 0.3189   -0.050438
 C 0.7911 0.6225 0.3725   0.736589
 C 0.9256 0.6226 0.3877   -0.132404
 C 0.9779 0.6957 0.3576   -0.04801
 C 0.9996 0.5441 0.43   -0.032267
 C 0.7677 0.9634 0.0436   0.607681
 C 0.8855 0.9849 0.0196   -0.102117
 C 0.9669 0.9072 0.9816   -0.047443
 C 0.9214 0.0763 0.0379   -0.057294
 C 0.5613 0.6914 0.0466   0.613934
 C 0.5296 0.5911 0.0221   -0.103847
 C 0.4447 0.6316 0.9792   -0.049593
 C 0.585 0.4591 0.0428   -0.055934
 C 0.3892 0.776 0.1641   0.737044
 C 0.2586 0.7593 0.1685   -0.120886
 C 0.1647 0.7997 0.1282   -0.044544
 C 0.2263 0.7057 0.2133   -0.055963
 C 0.8708 0.7332 0.1828   0.725696
 C 0.0074 0.7415 0.1775   -0.12013
 C 0.0428 0.7881 0.132   -0.032837
 C 0.1024 0.6975 0.2181   -0.047917
 C 0.5602 0.982 0.2166   0.722632
 C 0.5809 0.0867 0.2431   -0.131166
 C 0.5634 0.2033 0.2162   -0.046038
 C 0.6193 0.0622 0.2944   -0.054569
 C 0.495 0.8801 0.5012   -0.10987
 O 0.6286 0.4499 0.52973   -0.697625
 O 0.5951 0.4089 0.6106   -0.536795
 O 0.3342 0.6451 0.634   -0.591501
 O 0.2442 0.4549 0.6006   -0.651965
 O 0.4558 0.3206 0.5352   -0.536622
 O 0.5732 0.2813 0.4616   -0.58182
 O 0.3029 0.9681 0.9218   -0.515657
 O 0.2551 0.1289 0.9716   -0.505105
 O 0.3554 0.3469 0.9158   -0.511813
 O 0.4945 0.1891 0.97197   -0.493656
 O 0.6055 0.144 0.8706   -0.585407
 O 0.4647 0.9967 0.83   -0.59078
 O 0.2065 0.2344 0.8561   -0.618942
 O 0.3954 0.509 0.70621   -0.705087
 O 0.2735 0.3055 0.6657   -0.655034
 O 0.1591 0.3026 0.7744   -0.649981
 O 0.4356 0.116 0.7558   -0.604831
 O 0.5131 0.2932 0.8048   -0.661403
 O 0.3714 0.5501 0.47027   -0.697625
 O 0.4049 0.5911 0.3894   -0.536795
 O 0.6658 0.3549 0.366   -0.591501
 O 0.7558 0.5451 0.3994   -0.651965
 O 0.5442 0.6794 0.4648   -0.536622
 O 0.4268 0.7187 0.5384   -0.581821
 O 0.6971 0.0319 0.0782   -0.515657
 O 0.7449 0.8711 0.0284   -0.505105
 O 0.6446 0.6531 0.0842   -0.511813
 O 0.5055 0.8109 0.02803   -0.493656
 O 0.3945 0.856 0.1294   -0.585407
 O 0.5353 0.0033 0.17   -0.59078
 O 0.7935 0.7656 0.1439   -0.618941
 O 0.6046 0.491 0.29379   -0.705087
 O 0.7265 0.6945 0.3343   -0.655034
 O 0.8409 0.6974 0.2256   -0.649981
 O 0.5644 0.884 0.2442   -0.604831
 O 0.4869 0.7068 0.1952   -0.661403
