{'_ref': 'TBD', '_srcid': 'CAKYAQ_clean', 'submitters': [{'name': 'Dalar Nazarian Jeff Camp and David Sholl', 'email': 'dalar@gatech.edu jcamp6@gatech.edu'}], '_method': 'VASP DFT with PBE;DDEC'}
data_Cu3P2H8C14O11
_symmetry_space_group_name_H-M   'P 1'
_cell_length_a   14.65600000
_cell_length_b   14.65599972
_cell_length_c   16.90500000
_cell_angle_alpha   90.00000000
_cell_angle_beta   90.00000000
_cell_angle_gamma   120.00000062
_symmetry_Int_Tables_number   1
_chemical_formula_structural   Cu3P2H8C14O11
_chemical_formula_sum   'Cu18 P12 H48 C84 O66'
_cell_volume   3144.68181009
_cell_formula_units_Z   6
loop_
 _symmetry_equiv_pos_site_id
 _symmetry_equiv_pos_as_xyz
  1  'x, y, z'
loop_
 _atom_site_label
 _atom_site_fract_x
 _atom_site_fract_y
 _atom_site_fract_z
 _atom_site_charge
 Cu 0.11674 0.43944 0.85831   1.038848
 Cu 0.3227 0.88326 0.19164   1.038104
 Cu 0.56056 0.6773 0.52498   1.038479
 Cu 0.88326 0.56056 0.35831   1.038848
 Cu 0.6773 0.11674 0.69164   1.038104
 Cu 0.43944 0.3227 0.02498   1.038479
 Cu 0.6773 0.56056 0.47502   1.038481
 Cu 0.43944 0.11674 0.14169   1.038851
 Cu 0.88326 0.3227 0.80836   1.038107
 Cu 0.3227 0.43944 0.97502   1.038481
 Cu 0.56056 0.88326 0.64169   1.038851
 Cu 0.11674 0.6773 0.30836   1.038107
 Cu 0.0 0.16385 0.83333   1.173207
 Cu 0.16385 0.0 0.16667   1.173208
 Cu 0.83615 0.83615 0.5   1.157714
 Cu 0.0 0.83615 0.33333   1.173208
 Cu 0.83615 0.0 0.66667   1.173207
 Cu 0.16385 0.16385 0.0   1.157714
 P 0.08062 0.31562 0.00577   1.486826
 P 0.235 0.91938 0.3391   1.484912
 P 0.68438 0.765 0.67244   1.478172
 P 0.91938 0.68438 0.50577   1.486826
 P 0.765 0.08062 0.8391   1.484912
 P 0.31562 0.235 0.17244   1.478172
 P 0.765 0.68438 0.32756   1.478172
 P 0.31562 0.08062 0.99423   1.486826
 P 0.91938 0.235 0.6609   1.484912
 P 0.235 0.31562 0.82756   1.478172
 P 0.68438 0.91938 0.49423   1.486826
 P 0.08062 0.765 0.1609   1.484912
 H 0.0645 0.4423 0.1316   0.082284
 H 0.774 0.316 0.179   0.066967
 H 0.736 0.213 0.077   0.108819
 H 0.859 0.211 0.011   0.077721
 H 0.3778 0.9355 0.46493   0.083049
 H 0.542 0.226 0.51233   0.067108
 H 0.477 0.264 0.41033   0.109648
 H 0.352 0.141 0.34433   0.078969
 H 0.5577 0.6222 0.79827   0.082971
 H 0.684 0.458 0.84567   0.067205
 H 0.787 0.523 0.74367   0.109675
 H 0.789 0.648 0.67767   0.079071
 H 0.9355 0.5577 0.6316   0.082282
 H 0.226 0.684 0.679   0.066967
 H 0.264 0.787 0.577   0.108818
 H 0.141 0.789 0.511   0.07772
 H 0.6222 0.0645 0.96493   0.083048
 H 0.458 0.774 0.01233   0.067108
 H 0.523 0.736 0.91033   0.109647
 H 0.648 0.859 0.84433   0.078969
 H 0.4423 0.3778 0.29827   0.08297
 H 0.316 0.542 0.34567   0.067205
 H 0.213 0.477 0.24367   0.109674
 H 0.211 0.352 0.17767   0.079071
 H 0.6222 0.5577 0.20173   0.082972
 H 0.458 0.684 0.15433   0.067206
 H 0.523 0.787 0.25633   0.109676
 H 0.648 0.789 0.32233   0.079071
 H 0.4423 0.0645 0.8684   0.082285
 H 0.316 0.774 0.821   0.066968
 H 0.213 0.736 0.923   0.10882
 H 0.211 0.859 0.989   0.077721
 H 0.9355 0.3778 0.53507   0.08305
 H 0.226 0.542 0.48767   0.067109
 H 0.264 0.477 0.58967   0.109649
 H 0.141 0.352 0.65567   0.078969
 H 0.3778 0.4423 0.70173   0.082971
 H 0.542 0.316 0.65433   0.067206
 H 0.477 0.213 0.75633   0.109675
 H 0.352 0.211 0.82233   0.079071
 H 0.5577 0.9355 0.3684   0.082283
 H 0.684 0.226 0.321   0.066968
 H 0.787 0.264 0.423   0.108819
 H 0.789 0.141 0.489   0.07772
 H 0.0645 0.6222 0.03507   0.083049
 H 0.774 0.458 0.98767   0.067109
 H 0.736 0.523 0.08967   0.109648
 H 0.859 0.648 0.15567   0.078969
 C 0.9794 0.3222 0.0646   -0.36266
 C 0.0046 0.3971 0.1249   0.110437
 C 0.9251 0.3951 0.1709   -0.210812
 C 0.8191 0.3169 0.1573   0.061453
 C 0.7948 0.2454 0.0973   -0.129866
 C 0.8743 0.2472 0.0502   0.10074
 C 0.95 0.4776 0.2339   0.682922
 C 0.3428 0.0206 0.39793   -0.360679
 C 0.3925 0.9954 0.45823   0.112152
 C 0.47 0.0749 0.50423   -0.209882
 C 0.4978 0.1809 0.49063   0.065099
 C 0.4506 0.2052 0.43063   -0.13046
 C 0.3729 0.1257 0.38353   0.102444
 C 0.5276 0.05 0.56723   0.683034
 C 0.6778 0.6572 0.73127   -0.358311
 C 0.6029 0.6075 0.79157   0.111188
 C 0.6049 0.53 0.83757   -0.210262
 C 0.6831 0.5022 0.82397   0.064045
 C 0.7546 0.5494 0.76397   -0.129334
 C 0.7528 0.6271 0.71687   0.101637
 C 0.5224 0.4724 0.90057   0.682782
 C 0.0206 0.6778 0.5646   -0.36266
 C 0.9954 0.6029 0.6249   0.110437
 C 0.0749 0.6049 0.6709   -0.210812
 C 0.1809 0.6831 0.6573   0.061453
 C 0.2052 0.7546 0.5973   -0.129865
 C 0.1257 0.7528 0.5502   0.10074
 C 0.05 0.5224 0.7339   0.682922
 C 0.6572 0.9794 0.89793   -0.360679
 C 0.6075 0.0046 0.95823   0.112153
 C 0.53 0.9251 0.00423   -0.209882
 C 0.5022 0.8191 0.99063   0.065098
 C 0.5494 0.7948 0.93063   -0.130459
 C 0.6271 0.8743 0.88353   0.102445
 C 0.4724 0.95 0.06723   0.683034
 C 0.3222 0.3428 0.23127   -0.358311
 C 0.3971 0.3925 0.29157   0.111189
 C 0.3951 0.47 0.33757   -0.210262
 C 0.3169 0.4978 0.32397   0.064045
 C 0.2454 0.4506 0.26397   -0.129333
 C 0.2472 0.3729 0.21687   0.101637
 C 0.4776 0.5276 0.40057   0.682782
 C 0.6572 0.6778 0.26873   -0.358311
 C 0.6075 0.6029 0.20843   0.111187
 C 0.53 0.6049 0.16243   -0.210261
 C 0.5022 0.6831 0.17603   0.064042
 C 0.5494 0.7546 0.23603   -0.129333
 C 0.6271 0.7528 0.28313   0.101637
 C 0.4724 0.5224 0.09943   0.682783
 C 0.3222 0.9794 0.9354   -0.36266
 C 0.3971 0.0046 0.8751   0.110435
 C 0.3951 0.9251 0.8291   -0.210811
 C 0.3169 0.8191 0.8427   0.061451
 C 0.2454 0.7948 0.9027   -0.129866
 C 0.2472 0.8743 0.9498   0.10074
 C 0.4776 0.95 0.7661   0.682922
 C 0.0206 0.3428 0.60207   -0.360679
 C 0.9954 0.3925 0.54177   0.112151
 C 0.0749 0.47 0.49577   -0.209881
 C 0.1809 0.4978 0.50937   0.065096
 C 0.2052 0.4506 0.56937   -0.130459
 C 0.1257 0.3729 0.61647   0.102444
 C 0.05 0.5276 0.43277   0.683034
 C 0.3428 0.3222 0.76873   -0.358311
 C 0.3925 0.3971 0.70843   0.111188
 C 0.47 0.3951 0.66243   -0.210261
 C 0.4978 0.3169 0.67603   0.064042
 C 0.4506 0.2454 0.73603   -0.129332
 C 0.3729 0.2472 0.78313   0.101636
 C 0.5276 0.4776 0.59943   0.682783
 C 0.6778 0.0206 0.4354   -0.36266
 C 0.6029 0.9954 0.3751   0.110436
 C 0.6049 0.0749 0.3291   -0.210811
 C 0.6831 0.1809 0.3427   0.061451
 C 0.7546 0.2052 0.4027   -0.129865
 C 0.7528 0.1257 0.4498   0.10074
 C 0.5224 0.05 0.2661   0.682922
 C 0.9794 0.6572 0.10207   -0.360679
 C 0.0046 0.6075 0.04177   0.112152
 C 0.9251 0.53 0.99577   -0.209881
 C 0.8191 0.5022 0.00937   0.065096
 C 0.7948 0.5494 0.06937   -0.130458
 C 0.8743 0.6271 0.11647   0.102445
 C 0.95 0.4724 0.93277   0.683035
 O 0.0465 0.3018 0.9175   -0.902743
 O 0.1882 0.4146 0.019   -0.805748
 O 0.0789 0.217 0.0365   -0.763875
 O 0.0467 0.5478 0.2442   -0.587295
 O 0.872 0.4729 0.2699   -0.538021
 O 0.2553 0.9535 0.25083   -0.90038
 O 0.2264 0.8118 0.35233   -0.808117
 O 0.1381 0.9211 0.36983   -0.73883
 O 0.5011 0.9533 0.57753   -0.5867
 O 0.6009 0.128 0.60323   -0.538321
 O 0.6982 0.7447 0.58417   -0.901187
 O 0.5854 0.7736 0.68567   -0.806219
 O 0.783 0.8619 0.70317   -0.73375
 O 0.4522 0.4989 0.91087   -0.587816
 O 0.5271 0.3991 0.93657   -0.538902
 O 0.9535 0.6982 0.4175   -0.902743
 O 0.8118 0.5854 0.519   -0.805748
 O 0.9211 0.783 0.5365   -0.763875
 O 0.9533 0.4522 0.7442   -0.587295
 O 0.128 0.5271 0.7699   -0.538021
 O 0.7447 0.0465 0.75083   -0.90038
 O 0.7736 0.1882 0.85233   -0.808117
 O 0.8619 0.0789 0.86983   -0.73883
 O 0.4989 0.0467 0.07753   -0.5867
 O 0.3991 0.872 0.10323   -0.538321
 O 0.3018 0.2553 0.08417   -0.901187
 O 0.4146 0.2264 0.18567   -0.806219
 O 0.217 0.1381 0.20317   -0.73375
 O 0.5478 0.5011 0.41087   -0.587816
 O 0.4729 0.6009 0.43657   -0.538902
 O 0.7447 0.6982 0.41583   -0.901187
 O 0.7736 0.5854 0.31433   -0.806218
 O 0.8619 0.783 0.29683   -0.73375
 O 0.4989 0.4522 0.08913   -0.587816
 O 0.3991 0.5271 0.06343   -0.538902
 O 0.3018 0.0465 0.0825   -0.902743
 O 0.4146 0.1882 0.981   -0.805748
 O 0.217 0.0789 0.9635   -0.763875
 O 0.5478 0.0467 0.7558   -0.587295
 O 0.4729 0.872 0.7301   -0.538021
 O 0.9535 0.2553 0.74917   -0.900381
 O 0.8118 0.2264 0.64767   -0.808117
 O 0.9211 0.1381 0.63017   -0.73883
 O 0.9533 0.5011 0.42247   -0.5867
 O 0.128 0.6009 0.39677   -0.538321
 O 0.2553 0.3018 0.91583   -0.901187
 O 0.2264 0.4146 0.81433   -0.806219
 O 0.1381 0.217 0.79683   -0.73375
 O 0.5011 0.5478 0.58913   -0.587816
 O 0.6009 0.4729 0.56343   -0.538902
 O 0.6982 0.9535 0.5825   -0.902743
 O 0.5854 0.8118 0.481   -0.805748
 O 0.783 0.9211 0.4635   -0.763875
 O 0.4522 0.9533 0.2558   -0.587295
 O 0.5271 0.128 0.2301   -0.538021
 O 0.0465 0.7447 0.24917   -0.900381
 O 0.1882 0.7736 0.14767   -0.808117
 O 0.0789 0.8619 0.13017   -0.73883
 O 0.0467 0.4989 0.92247   -0.5867
 O 0.872 0.3991 0.89677   -0.538321
 O 0.0338 0.0676 0.91667   -0.196583
 O 0.0338 0.9662 0.25   -0.344159
 O 0.9324 0.9662 0.58333   -0.196583
 O 0.9662 0.9324 0.41667   -0.196578
 O 0.9662 0.0338 0.75   -0.34415
 O 0.0676 0.0338 0.08333   -0.196578
