{'_ref': 'TBD', '_srcid': 'CAKYAQ_clean', 'submitters': [{'name': 'Dalar Nazarian Jeff Camp and David Sholl', 'email': 'dalar@gatech.edu jcamp6@gatech.edu'}], '_method': 'VASP DFT with PBE;DDEC'}
data_ZnH7C9N3O4
_symmetry_space_group_name_H-M   'P 1'
_cell_length_a   8.62959951
_cell_length_b   9.60800000
_cell_length_c   14.49700000
_cell_angle_alpha   90.00000000
_cell_angle_beta   93.09699791
_cell_angle_gamma   90.00000000
_symmetry_Int_Tables_number   1
_chemical_formula_structural   ZnH7C9N3O4
_chemical_formula_sum   'Zn4 H28 C36 N12 O16'
_cell_volume   1200.23703844
_cell_formula_units_Z   4
loop_
 _symmetry_equiv_pos_site_id
 _symmetry_equiv_pos_as_xyz
  1  'x, y, z'
loop_
 _atom_site_label
 _atom_site_fract_x
 _atom_site_fract_y
 _atom_site_fract_z
 _atom_site_charge
 Zn 0.65674 0.50294 0.67169   1.029481
 Zn 0.84326 0.00294 0.82831   1.029481
 Zn 0.34326 0.49706 0.32831   1.029481
 Zn 0.15674 0.99706 0.17169   1.029481
 H 0.044 0.0404 0.5914   0.087714
 H 0.1617 0.9852 0.5182   0.086235
 H 0.0977 0.1845 0.4231   0.129048
 H 0.1831 0.2247 0.5201   0.098542
 H 0.7158 0.4958 0.4597   0.088985
 H 0.9344 0.2668 0.6484   0.119317
 H 0.4503 0.7734 0.4513   0.079311
 H 0.456 0.5404 0.9086   0.087714
 H 0.3383 0.4852 0.9818   0.086235
 H 0.4023 0.6845 0.0769   0.129048
 H 0.3169 0.7247 0.9799   0.098542
 H 0.7842 0.9958 0.0403   0.088985
 H 0.5656 0.7668 0.8516   0.119317
 H 0.0497 0.2734 0.0487   0.079311
 H 0.956 0.9596 0.4086   0.087714
 H 0.8383 0.0148 0.4818   0.086235
 H 0.9023 0.8155 0.5769   0.129049
 H 0.8169 0.7753 0.4799   0.098543
 H 0.2842 0.5042 0.5403   0.088985
 H 0.0656 0.7332 0.3516   0.119317
 H 0.5497 0.2266 0.5487   0.079311
 H 0.544 0.4596 0.0914   0.087714
 H 0.6617 0.5148 0.0182   0.086235
 H 0.5977 0.3155 0.9231   0.129048
 H 0.6831 0.2753 0.0201   0.098543
 H 0.2158 0.0042 0.9597   0.088985
 H 0.4344 0.2332 0.1484   0.119317
 H 0.9503 0.7266 0.9513   0.079311
 C 0.0641 0.0376 0.5248   -0.153588
 C 0.0862 0.1862 0.4907   -0.066204
 C 0.7842 0.4294 0.4885   0.271535
 C 0.9001 0.3079 0.5913   0.194046
 C 0.4695 0.8662 0.4715   -0.070572
 C 0.5262 0.8891 0.5611   -0.074503
 C 0.56 0.0253 0.5897   -0.067681
 C 0.5424 0.7676 0.6266   0.67273
 C 0.6383 0.056 0.6831   0.660044
 C 0.4359 0.5376 0.9752   -0.153588
 C 0.4138 0.6862 0.0093   -0.066204
 C 0.7158 0.9294 0.0115   0.271535
 C 0.5999 0.8079 0.9087   0.194046
 C 0.0305 0.3662 0.0285   -0.070572
 C 0.9738 0.3891 0.9389   -0.074503
 C 0.94 0.5253 0.9103   -0.067681
 C 0.9576 0.2676 0.8734   0.67273
 C 0.8617 0.556 0.8169   0.660045
 C 0.9359 0.9624 0.4752   -0.153588
 C 0.9138 0.8138 0.5093   -0.066204
 C 0.2158 0.5706 0.5115   0.271535
 C 0.0999 0.6921 0.4087   0.194046
 C 0.5305 0.1338 0.5285   -0.070571
 C 0.4738 0.1109 0.4389   -0.074503
 C 0.44 0.9747 0.4103   -0.06768
 C 0.4576 0.2324 0.3734   0.67273
 C 0.3617 0.944 0.3169   0.660044
 C 0.5641 0.4624 0.0248   -0.153588
 C 0.5862 0.3138 0.9907   -0.066204
 C 0.2842 0.0706 0.9885   0.271535
 C 0.4001 0.1921 0.0913   0.194046
 C 0.9695 0.6338 0.9715   -0.070571
 C 0.0262 0.6109 0.0611   -0.074503
 C 0.06 0.4747 0.0897   -0.06768
 C 0.0424 0.7324 0.1266   0.67273
 C 0.1383 0.444 0.1831   0.660045
 N 0.9552 0.2786 0.5111   0.159289
 N 0.8806 0.3556 0.4429   -0.328234
 N 0.7894 0.4037 0.581   -0.478797
 N 0.5448 0.7786 0.9889   0.159289
 N 0.6194 0.8556 0.0571   -0.328234
 N 0.7106 0.9037 0.919   -0.478798
 N 0.0448 0.7214 0.4889   0.159289
 N 0.1194 0.6444 0.5571   -0.328234
 N 0.2106 0.5963 0.419   -0.478797
 N 0.4552 0.2214 0.0111   0.159289
 N 0.3806 0.1444 0.9429   -0.328234
 N 0.2894 0.0963 0.081   -0.478797
 O 0.6058 0.6608 0.5929   -0.646311
 O 0.493 0.7752 0.7046   -0.579001
 O 0.7581 0.9824 0.7032   -0.619577
 O 0.591 0.1493 0.7333   -0.591812
 O 0.8942 0.1608 0.9071   -0.646311
 O 0.007 0.2752 0.7954   -0.579001
 O 0.7419 0.4824 0.7968   -0.619577
 O 0.909 0.6493 0.7667   -0.591813
 O 0.3942 0.3392 0.4071   -0.646311
 O 0.507 0.2248 0.2954   -0.579001
 O 0.2419 0.0176 0.2968   -0.619577
 O 0.409 0.8507 0.2667   -0.591812
 O 0.1058 0.8392 0.0929   -0.646311
 O 0.993 0.7248 0.2046   -0.579001
 O 0.2581 0.5176 0.2032   -0.619577
 O 0.091 0.3507 0.2333   -0.591813
