{'_ref': 'TBD', '_srcid': 'CAKYAQ_clean', 'submitters': [{'name': 'Dalar Nazarian Jeff Camp and David Sholl', 'email': 'dalar@gatech.edu jcamp6@gatech.edu'}], '_method': 'VASP DFT with PBE;DDEC'}
data_MnH8(C7O2)2
_symmetry_space_group_name_H-M   'P 1'
_cell_length_a   13.81899972
_cell_length_b   15.38200011
_cell_length_c   24.38300000
_cell_angle_alpha   100.40999989
_cell_angle_beta   95.25000066
_cell_angle_gamma   101.09000164
_symmetry_Int_Tables_number   1
_chemical_formula_structural   MnH8(C7O2)2
_chemical_formula_sum   'Mn8 H64 C112 O32'
_cell_volume   4959.45506553
_cell_formula_units_Z   8
loop_
 _symmetry_equiv_pos_site_id
 _symmetry_equiv_pos_as_xyz
  1  'x, y, z'
loop_
 _atom_site_label
 _atom_site_fract_x
 _atom_site_fract_y
 _atom_site_fract_z
 _atom_site_charge
 Mn 0.17459 0.64362 0.32342   1.120126
 Mn 0.36785 0.55619 0.27385   1.163521
 Mn 0.60873 0.65404 0.32475   1.092861
 Mn 0.81866 0.69843 0.26261   1.219374
 Mn 0.82541 0.35638 0.67658   1.120126
 Mn 0.63215 0.44381 0.72615   1.163521
 Mn 0.39127 0.34596 0.67525   1.092861
 Mn 0.18134 0.30157 0.73739   1.219374
 H 0.2876 0.3525 0.312   0.093938
 H 0.2607 0.1991 0.3098   0.099984
 H 0.9804 0.1958 0.334   0.108015
 H 0.0063 0.3477 0.3342   0.096262
 H 0.2388 0.0776 0.351   0.105975
 H 0.2114 0.9244 0.3465   0.084961
 H 0.9327 0.8968 0.2842   0.069036
 H 0.9597 0.0496 0.2867   0.09652
 H 0.2187 0.4726 0.1011   0.100163
 H 0.1364 0.445 0.0115   0.098083
 H 0.9342 0.5761 0.0691   0.096002
 H 0.0211 0.6116 0.1563   0.084416
 H 0.5494 0.7629 0.4427   0.112405
 H 0.5914 0.8973 0.5077   0.106563
 H 0.3686 0.9833 0.435   0.098731
 H 0.3265 0.8503 0.3705   0.087603
 H 0.6857 0.5882 0.1354   0.064542
 H 0.6567 0.5328 0.0402   0.09968
 H 0.37 0.5227 0.0443   0.093906
 H 0.3982 0.5691 0.1391   0.0894
 H 0.6935 0.4074 0.3142   0.100606
 H 0.7408 0.2725 0.318   0.10984
 H 0.4592 0.1383 0.2648   0.109869
 H 0.4139 0.2735 0.2588   0.102149
 H 0.7535 0.1164 0.2597   0.108295
 H 0.7876 0.9768 0.2634   0.095808
 H 0.5615 0.9265 0.3506   0.075901
 H 0.5196 0.0588 0.3405   0.100475
 H 0.7634 0.5966 0.4842   0.101958
 H 0.8671 0.5334 0.538   0.104494
 H 0.0377 0.5183 0.4163   0.080902
 H 0.9351 0.5813 0.3643   0.085569
 H 0.7124 0.6475 0.688   0.093938
 H 0.7393 0.8009 0.6902   0.099983
 H 0.0196 0.8042 0.666   0.108015
 H 0.9937 0.6523 0.6658   0.096262
 H 0.7612 0.9224 0.649   0.105974
 H 0.7886 0.0756 0.6535   0.084961
 H 0.0673 0.1032 0.7158   0.069036
 H 0.0403 0.9504 0.7133   0.096521
 H 0.7813 0.5274 0.8989   0.100163
 H 0.8636 0.555 0.9885   0.098078
 H 0.0658 0.4239 0.9309   0.095998
 H 0.9789 0.3884 0.8437   0.084416
 H 0.4506 0.2371 0.5573   0.112404
 H 0.4086 0.1027 0.4923   0.10656
 H 0.6314 0.0167 0.565   0.09873
 H 0.6735 0.1497 0.6295   0.087603
 H 0.3143 0.4118 0.8646   0.064542
 H 0.3433 0.4672 0.9598   0.099679
 H 0.63 0.4773 0.9557   0.093905
 H 0.6018 0.4309 0.8609   0.0894
 H 0.3065 0.5926 0.6858   0.100606
 H 0.2592 0.7275 0.682   0.109841
 H 0.5408 0.8617 0.7352   0.109869
 H 0.5861 0.7265 0.7412   0.102149
 H 0.2465 0.8836 0.7403   0.108295
 H 0.2124 0.0232 0.7366   0.095808
 H 0.4385 0.0735 0.6494   0.075901
 H 0.4804 0.9412 0.6595   0.100475
 H 0.2366 0.4034 0.5158   0.101957
 H 0.1329 0.4666 0.462   0.104495
 H 0.9623 0.4817 0.5837   0.080902
 H 0.0649 0.4187 0.6357   0.085569
 C 0.1495 0.3669 0.32263   -0.158704
 C 0.2247 0.3213 0.3159   -0.00284
 C 0.2085 0.2287 0.3149   -0.145217
 C 0.1185 0.1806 0.3211   0.059125
 C 0.0427 0.2267 0.3289   -0.147828
 C 0.0586 0.3182 0.3293   -0.023615
 C 0.1011 0.0811 0.3196   0.067604
 C 0.176 0.0419 0.3372   -0.149821
 C 0.1591 0.9493 0.3344   -0.011324
 C 0.0688 0.8934 0.31481   -0.186108
 C 0.9956 0.9325 0.2977   0.000196
 C 0.0119 0.0253 0.2996   -0.140916
 C 0.1666 0.4659 0.32284   0.699552
 C 0.0529 0.7925 0.31271   0.781596
 C 0.1308 0.5489 0.13838   -0.147089
 C 0.1627 0.4964 0.0945   -0.029775
 C 0.1122 0.4788 0.0407   -0.137804
 C 0.027 0.5099 0.0289   0.047764
 C 0.9937 0.5573 0.0746   -0.136788
 C 0.0452 0.5774 0.1272   -0.025194
 C 0.186 0.5688 0.19684   0.715455
 C 0.4345 0.7932 0.39947   -0.174805
 C 0.5129 0.8074 0.44073   0.001909
 C 0.5379 0.8885 0.47981   -0.129284
 C 0.4861 0.9564 0.47864   0.049241
 C 0.4061 0.9394 0.4369   -0.125238
 C 0.3807 0.8597 0.39808   -0.017694
 C 0.4083 0.7085 0.3552   0.687954
 C 0.5452 0.5851 0.14765   -0.166401
 C 0.6207 0.5736 0.11723   -0.018818
 C 0.6032 0.5404 0.05967   -0.135669
 C 0.5099 0.5185 0.0309   0.054069
 C 0.4347 0.5335 0.0624   -0.128192
 C 0.4517 0.5634 0.1193   5.8e-05
 C 0.5638 0.6188 0.20997   0.745261
 C 0.5487 0.3546 0.2889   -0.155061
 C 0.6461 0.3535 0.3049   -0.021225
 C 0.6743 0.2724 0.3075   -0.151056
 C 0.6048 0.1911 0.2946   0.054899
 C 0.5064 0.1923 0.2754   -0.155059
 C 0.4791 0.2733 0.2722   -0.034731
 C 0.6338 0.1043 0.3004   0.067349
 C 0.7131 0.0775 0.2774   -0.157244
 C 0.7343 0.9939 0.2799   -0.026948
 C 0.6766 0.9356 0.3069   -0.165209
 C 0.5991 0.9635 0.3307   -0.00355
 C 0.5757 0.044 0.3261   -0.146798
 C 0.5171 0.4433 0.2888   0.706874
 C 0.6945 0.8427 0.30873   0.728374
 C 0.8392 0.5975 0.41961   -0.148024
 C 0.82 0.5818 0.4703   -0.024756
 C 0.8826 0.5436 0.5031   -0.140042
 C 0.9672 0.5211 0.48359   0.054977
 C 0.9829 0.535 0.4313   -0.131363
 C 0.9209 0.5726 0.3997   -0.025975
 C 0.7689 0.6357 0.38517   0.70597
 C 0.8505 0.6331 0.67737   -0.158704
 C 0.7753 0.6787 0.6841   -0.00284
 C 0.7915 0.7713 0.6851   -0.145217
 C 0.8815 0.8194 0.6789   0.059125
 C 0.9573 0.7733 0.6711   -0.14783
 C 0.9414 0.6818 0.6707   -0.023614
 C 0.8989 0.9189 0.6804   0.067603
 C 0.824 0.9581 0.6628   -0.149822
 C 0.8409 0.0507 0.6656   -0.011326
 C 0.9312 0.1066 0.68519   -0.186108
 C 0.0044 0.0675 0.7023   0.000195
 C 0.9881 0.9747 0.7004   -0.140917
 C 0.8334 0.5341 0.67716   0.699552
 C 0.9471 0.2075 0.68729   0.781596
 C 0.8692 0.4511 0.86162   -0.147089
 C 0.8373 0.5036 0.9055   -0.029775
 C 0.8878 0.5212 0.9593   -0.137804
 C 0.973 0.4901 0.9711   0.047752
 C 0.0063 0.4427 0.9254   -0.136787
 C 0.9548 0.4226 0.8728   -0.025194
 C 0.814 0.4312 0.80316   0.715455
 C 0.5655 0.2068 0.60053   -0.174805
 C 0.4871 0.1926 0.55927   0.001906
 C 0.4621 0.1115 0.52019   -0.129285
 C 0.5139 0.0436 0.52136   0.049246
 C 0.5939 0.0606 0.5631   -0.125243
 C 0.6193 0.1403 0.60192   -0.017693
 C 0.5917 0.2915 0.6448   0.687954
 C 0.4548 0.4149 0.85235   -0.166401
 C 0.3793 0.4264 0.88277   -0.018817
 C 0.3968 0.4596 0.94033   -0.135672
 C 0.4901 0.4815 0.9691   0.054063
 C 0.5653 0.4665 0.9376   -0.128194
 C 0.5483 0.4366 0.8807   5.8e-05
 C 0.4362 0.3812 0.79003   0.745261
 C 0.4513 0.6454 0.7111   -0.155061
 C 0.3539 0.6465 0.6951   -0.021225
 C 0.3257 0.7276 0.6925   -0.151058
 C 0.3952 0.8089 0.7054   0.054899
 C 0.4936 0.8077 0.7246   -0.15506
 C 0.5209 0.7267 0.7278   -0.034731
 C 0.3662 0.8957 0.6996   0.067349
 C 0.2869 0.9225 0.7226   -0.157244
 C 0.2657 0.0061 0.7201   -0.026948
 C 0.3234 0.0644 0.6931   -0.16521
 C 0.4009 0.0365 0.6693   -0.003551
 C 0.4243 0.956 0.6739   -0.146801
 C 0.4829 0.5567 0.7112   0.706874
 C 0.3055 0.1573 0.69127   0.728374
 C 0.1608 0.4025 0.58039   -0.148025
 C 0.18 0.4182 0.5297   -0.024758
 C 0.1174 0.4564 0.4969   -0.140042
 C 0.0328 0.4789 0.51641   0.054974
 C 0.0171 0.465 0.5687   -0.131362
 C 0.0791 0.4274 0.6003   -0.025975
 C 0.2311 0.3643 0.61483   0.70597
 O 0.2544 0.50861 0.32274   -0.669118
 O 0.0955 0.5048 0.32353   -0.586242
 O 0.1273 0.76408 0.32951   -0.629375
 O 0.9709 0.74328 0.2946   -0.666378
 O 0.2636 0.5381 0.20321   -0.619271
 O 0.1491 0.61253 0.23492   -0.61485
 O 0.33354 0.69475 0.31831   -0.629102
 O 0.46247 0.6496 0.35416   -0.606257
 O 0.49077 0.62568 0.23656   -0.628709
 O 0.65084 0.63914 0.23431   -0.683513
 O 0.581 0.51266 0.31049   -0.607952
 O 0.4298 0.44139 0.26887   -0.621055
 O 0.6321 0.7919 0.32856   -0.588315
 O 0.77024 0.82207 0.28805   -0.660919
 O 0.6925 0.654 0.40467   -0.562511
 O 0.7853 0.643 0.33548   -0.686398
 O 0.7456 0.49139 0.67726   -0.669118
 O 0.9045 0.4952 0.67647   -0.586242
 O 0.8727 0.23592 0.67049   -0.629375
 O 0.0291 0.25672 0.7054   -0.666378
 O 0.7364 0.4619 0.79679   -0.619271
 O 0.8509 0.38747 0.76508   -0.61485
 O 0.66646 0.30525 0.68169   -0.629102
 O 0.53753 0.3504 0.64584   -0.606257
 O 0.50923 0.37432 0.76344   -0.628709
 O 0.34916 0.36086 0.76569   -0.683513
 O 0.419 0.48734 0.68951   -0.607952
 O 0.5702 0.55861 0.73113   -0.621055
 O 0.3679 0.2081 0.67144   -0.588315
 O 0.22976 0.17793 0.71195   -0.660919
 O 0.3075 0.346 0.59533   -0.562511
 O 0.2147 0.357 0.66452   -0.686397
