{'_ref': 'TBD', '_srcid': 'CAKYAQ_clean', 'submitters': [{'name': 'Dalar Nazarian Jeff Camp and David Sholl', 'email': 'dalar@gatech.edu jcamp6@gatech.edu'}], '_method': 'VASP DFT with PBE;DDEC'}
data_CdPH20C16N7(ClO)2
_symmetry_space_group_name_H-M   'P 1'
_cell_length_a   13.95700000
_cell_length_b   15.82700016
_cell_length_c   25.70400000
_cell_angle_alpha   90.00000000
_cell_angle_beta   90.00000000
_cell_angle_gamma   93.36199858
_symmetry_Int_Tables_number   1
_chemical_formula_structural   CdPH20C16N7(ClO)2
_chemical_formula_sum   'Cd8 P8 H160 C128 N56 Cl16 O16'
_cell_volume   5668.17576098
_cell_formula_units_Z   8
loop_
 _symmetry_equiv_pos_site_id
 _symmetry_equiv_pos_as_xyz
  1  'x, y, z'
loop_
 _atom_site_label
 _atom_site_fract_x
 _atom_site_fract_y
 _atom_site_fract_z
 _atom_site_charge
 Cd 0.87279 0.99578 0.0346   0.821728
 Cd 0.62466 0.99405 0.9686   0.820165
 Cd 0.12721 0.50422 0.5346   0.821728
 Cd 0.37534 0.50595 0.4686   0.820165
 Cd 0.12721 0.00422 0.9654   0.821728
 Cd 0.37534 0.00595 0.0314   0.820165
 Cd 0.87279 0.49578 0.4654   0.821728
 Cd 0.62466 0.49405 0.5314   0.820165
 P 0.09078 0.30356 0.24069   1.491164
 P 0.66513 0.7546 0.26432   1.460987
 P 0.90922 0.19644 0.74069   1.491164
 P 0.33487 0.7454 0.76432   1.460987
 P 0.90922 0.69644 0.75931   1.491164
 P 0.33487 0.2454 0.73568   1.460987
 P 0.09078 0.80356 0.25931   1.491164
 P 0.66513 0.2546 0.23568   1.460987
 H 0.3647 0.9024 0.2187   0.071303
 H 0.393 0.8147 0.2402   0.095146
 H 0.4525 0.8585 0.195   0.094133
 H 0.408 0.0101 0.2687   0.093821
 H 0.5181 0.0235 0.2803   0.091921
 H 0.4497 0.9784 0.3214   0.079396
 H 0.6879 0.8951 0.0801   0.049383
 H 0.6034 0.5081 0.3078   0.154777
 H 0.2606 0.5207 0.36   0.063036
 H 0.2866 0.3179 0.4384   0.07254
 H 0.8698 0.2113 0.1938   0.152261
 H 0.5468 0.7437 0.3526   0.152006
 H 0.1963 0.2418 0.3809   0.154556
 H 0.8919 0.8044 0.2033   0.155645
 H 0.504 0.4568 0.3709   0.062621
 H 0.1314 0.1346 0.1672   0.164931
 H 0.0698 0.0599 0.0954   0.053019
 H 0.8144 0.1364 0.1232   0.069979
 H 0.1659 0.4493 0.2987   0.155408
 H 0.6337 0.7899 0.1398   0.168268
 H 0.9397 0.8974 0.1377   0.066507
 H 0.4494 0.6819 0.4148   0.06736
 H 0.3659 0.3312 0.1051   0.096825
 H 0.2817 0.2671 0.122   0.101454
 H 0.3512 0.3084 0.164   0.098787
 H 0.3215 0.4475 0.0787   0.092839
 H 0.2753 0.5082 0.1185   0.094417
 H 0.2101 0.4556 0.0791   0.092263
 H 0.8722 0.5567 0.2226   0.099874
 H 0.9205 0.5066 0.2671   0.090954
 H 0.8617 0.4575 0.2235   0.090122
 H 0.9514 0.6092 0.1659   0.09843
 H 0.9974 0.5464 0.1273   0.08345
 H 0.0626 0.5999 0.1663   0.101537
 H 0.7585 0.0178 0.4122   0.094416
 H 0.6518 0.986 0.4016   0.098748
 H 0.7101 0.0375 0.3588   0.101678
 H 0.8617 0.9214 0.4098   0.09689
 H 0.8778 0.8783 0.3558   0.098172
 H 0.8186 0.8293 0.3993   0.105844
 H 0.6353 0.5976 0.7187   0.071303
 H 0.607 0.6853 0.7402   0.095146
 H 0.5475 0.6415 0.695   0.094133
 H 0.592 0.4899 0.7687   0.093821
 H 0.4819 0.4765 0.7803   0.091921
 H 0.5503 0.5216 0.8214   0.079396
 H 0.3121 0.6049 0.5801   0.049383
 H 0.3966 0.9919 0.8078   0.154777
 H 0.7394 0.9793 0.86   0.063036
 H 0.7134 0.1821 0.9384   0.07254
 H 0.1302 0.2887 0.6938   0.152261
 H 0.4532 0.7563 0.8526   0.152006
 H 0.8037 0.2582 0.8809   0.154556
 H 0.1081 0.6956 0.7033   0.155645
 H 0.496 0.0432 0.8709   0.062621
 H 0.8686 0.3654 0.6672   0.164931
 H 0.9302 0.4401 0.5954   0.053019
 H 0.1856 0.3636 0.6232   0.069979
 H 0.8341 0.0507 0.7987   0.155408
 H 0.3663 0.7101 0.6398   0.168268
 H 0.0603 0.6026 0.6377   0.066507
 H 0.5506 0.8181 0.9148   0.06736
 H 0.6341 0.1688 0.6051   0.096825
 H 0.7183 0.2329 0.622   0.101454
 H 0.6488 0.1916 0.664   0.098787
 H 0.6785 0.0525 0.5787   0.092838
 H 0.7247 0.9918 0.6185   0.094416
 H 0.7899 0.0444 0.5791   0.092263
 H 0.1278 0.9433 0.7226   0.099874
 H 0.0795 0.9934 0.7671   0.090954
 H 0.1383 0.0425 0.7235   0.090122
 H 0.0486 0.8908 0.6659   0.09843
 H 0.0026 0.9536 0.6273   0.08345
 H 0.9374 0.9001 0.6663   0.101537
 H 0.2415 0.4822 0.9122   0.094416
 H 0.3482 0.514 0.9016   0.098747
 H 0.2899 0.4625 0.8588   0.101678
 H 0.1383 0.5786 0.9098   0.096889
 H 0.1222 0.6217 0.8558   0.098172
 H 0.1814 0.6707 0.8993   0.105844
 H 0.6353 0.0976 0.7813   0.071303
 H 0.607 0.1853 0.7598   0.095148
 H 0.5475 0.1415 0.805   0.094133
 H 0.592 0.9899 0.7313   0.093823
 H 0.4819 0.9765 0.7197   0.091921
 H 0.5503 0.0216 0.6786   0.079396
 H 0.3121 0.1049 0.9199   0.049383
 H 0.3966 0.4919 0.6922   0.154777
 H 0.7394 0.4793 0.64   0.063036
 H 0.7134 0.6821 0.5616   0.07254
 H 0.1302 0.7887 0.8062   0.152261
 H 0.4532 0.2563 0.6474   0.152006
 H 0.8037 0.7582 0.6191   0.154557
 H 0.1081 0.1956 0.7967   0.155645
 H 0.496 0.5432 0.6291   0.062621
 H 0.8686 0.8654 0.8328   0.164931
 H 0.9302 0.9401 0.9046   0.053019
 H 0.1856 0.8636 0.8768   0.069979
 H 0.8341 0.5507 0.7013   0.155409
 H 0.3663 0.2101 0.8602   0.168268
 H 0.0603 0.1026 0.8623   0.066507
 H 0.5506 0.3181 0.5852   0.067359
 H 0.6341 0.6688 0.8949   0.096824
 H 0.7183 0.7329 0.878   0.101454
 H 0.6488 0.6916 0.836   0.098788
 H 0.6785 0.5525 0.9213   0.092838
 H 0.7247 0.4918 0.8815   0.094418
 H 0.7899 0.5444 0.9209   0.092263
 H 0.1278 0.4433 0.7774   0.099873
 H 0.0795 0.4934 0.7329   0.090954
 H 0.1383 0.5425 0.7765   0.090122
 H 0.0486 0.3908 0.8341   0.09843
 H 0.0026 0.4536 0.8727   0.08345
 H 0.9374 0.4001 0.8337   0.101538
 H 0.2415 0.9822 0.5878   0.094416
 H 0.3482 0.014 0.5984   0.098747
 H 0.2899 0.9625 0.6412   0.101678
 H 0.1383 0.0786 0.5902   0.096889
 H 0.1222 0.1217 0.6442   0.098172
 H 0.1814 0.1707 0.6007   0.105844
 H 0.3647 0.4024 0.2813   0.071303
 H 0.393 0.3147 0.2598   0.095148
 H 0.4525 0.3585 0.305   0.094133
 H 0.408 0.5101 0.2313   0.093823
 H 0.5181 0.5235 0.2197   0.091921
 H 0.4497 0.4784 0.1786   0.079396
 H 0.6879 0.3951 0.4199   0.049383
 H 0.6034 0.0081 0.1922   0.154777
 H 0.2606 0.0207 0.14   0.063036
 H 0.2866 0.8179 0.0616   0.07254
 H 0.8698 0.7113 0.3062   0.152261
 H 0.5468 0.2437 0.1474   0.152006
 H 0.1963 0.7418 0.1191   0.154557
 H 0.8919 0.3044 0.2967   0.155645
 H 0.504 0.9568 0.1291   0.062621
 H 0.1314 0.6346 0.3328   0.164931
 H 0.0698 0.5599 0.4046   0.053019
 H 0.8144 0.6364 0.3768   0.069979
 H 0.1659 0.9493 0.2013   0.155409
 H 0.6337 0.2899 0.3602   0.168268
 H 0.9397 0.3974 0.3623   0.066507
 H 0.4494 0.1819 0.0852   0.067359
 H 0.3659 0.8312 0.3949   0.096824
 H 0.2817 0.7671 0.378   0.101454
 H 0.3512 0.8084 0.336   0.098788
 H 0.3215 0.9475 0.4213   0.092836
 H 0.2753 0.0082 0.3815   0.094418
 H 0.2101 0.9556 0.4209   0.092263
 H 0.8722 0.0567 0.2774   0.099873
 H 0.9205 0.0066 0.2329   0.090954
 H 0.8617 0.9575 0.2765   0.090122
 H 0.9514 0.1092 0.3341   0.09843
 H 0.9974 0.0464 0.3727   0.08345
 H 0.0626 0.0999 0.3337   0.101538
 H 0.7585 0.5178 0.0878   0.094416
 H 0.6518 0.486 0.0984   0.098745
 H 0.7101 0.5375 0.1412   0.101678
 H 0.8617 0.4214 0.0902   0.096889
 H 0.8778 0.3783 0.1442   0.098172
 H 0.8186 0.3293 0.1007   0.105844
 C 0.4173 0.868 0.2263   -0.168667
 C 0.4621 0.9861 0.2849   -0.17668
 C 0.731 0.8742 0.1038   0.23721
 C 0.1738 0.3359 0.333   0.408539
 C 0.5717 0.5449 0.3291   -0.290133
 C 0.0038 0.1779 0.1878   0.370237
 C 0.248 0.4627 0.364   0.223094
 C 0.2632 0.3451 0.4094   0.218192
 C 0.9113 0.1797 0.1745   -0.298143
 C 0.7555 0.7891 0.1775   0.365855
 C 0.5391 0.6851 0.3552   -0.326125
 C 0.2092 0.2993 0.3752   -0.288907
 C 0.8489 0.8201 0.1779   -0.283343
 C 0.5123 0.5151 0.3665   0.20804
 C 0.0666 0.1344 0.1588   -0.294014
 C 0.0285 0.0896 0.1159   0.217344
 C 0.1851 0.3796 0.172   0.658567
 C 0.0482 0.4404 0.202   0.635366
 C 0.5856 0.6339 0.3224   0.382609
 C 0.8787 0.1346 0.1323   0.20603
 C 0.1911 0.4208 0.3267   -0.334077
 C 0.6966 0.8127 0.1412   -0.303776
 C 0.8762 0.8761 0.1383   0.196192
 C 0.4804 0.647 0.392   0.23691
 C 0.3191 0.3176 0.1317   -0.171336
 C 0.2667 0.4553 0.1004   -0.151723
 C 0.9038 0.5062 0.2309   -0.158981
 C 0.0011 0.5704 0.1616   -0.164317
 C 0.6904 0.8811 0.3251   0.588721
 C 0.5612 0.87 0.2757   0.588762
 C 0.714 0.9965 0.3862   -0.165187
 C 0.8334 0.8838 0.384   -0.144986
 C 0.5827 0.632 0.7263   -0.168667
 C 0.5379 0.5139 0.7849   -0.17668
 C 0.269 0.6258 0.6038   0.23721
 C 0.8262 0.1641 0.833   0.408539
 C 0.4283 0.9551 0.8291   -0.290133
 C 0.9962 0.3221 0.6878   0.370237
 C 0.752 0.0373 0.864   0.223094
 C 0.7368 0.1549 0.9094   0.218192
 C 0.0887 0.3203 0.6745   -0.298143
 C 0.2445 0.7109 0.6775   0.365855
 C 0.4609 0.8149 0.8552   -0.326125
 C 0.7908 0.2007 0.8752   -0.288907
 C 0.1511 0.6799 0.6779   -0.283343
 C 0.4877 0.9849 0.8665   0.20804
 C 0.9334 0.3656 0.6588   -0.294014
 C 0.9715 0.4104 0.6159   0.217344
 C 0.8149 0.1204 0.672   0.658567
 C 0.9518 0.0596 0.702   0.635366
 C 0.4144 0.8661 0.8224   0.382609
 C 0.1213 0.3654 0.6323   0.20603
 C 0.8089 0.0792 0.8267   -0.334077
 C 0.3034 0.6873 0.6412   -0.303776
 C 0.1238 0.6239 0.6383   0.196192
 C 0.5196 0.853 0.892   0.23691
 C 0.6809 0.1824 0.6317   -0.171336
 C 0.7333 0.0447 0.6004   -0.151722
 C 0.0962 0.9938 0.7309   -0.158981
 C 0.9989 0.9296 0.6616   -0.164317
 C 0.3096 0.6189 0.8251   0.588721
 C 0.4388 0.63 0.7757   0.588762
 C 0.286 0.5035 0.8862   -0.165186
 C 0.1666 0.6162 0.884   -0.144986
 C 0.5827 0.132 0.7737   -0.168667
 C 0.5379 0.0139 0.7151   -0.176681
 C 0.269 0.1258 0.8962   0.23721
 C 0.8262 0.6641 0.667   0.408539
 C 0.4283 0.4551 0.6709   -0.290133
 C 0.9962 0.8221 0.8122   0.370237
 C 0.752 0.5373 0.636   0.223094
 C 0.7368 0.6549 0.5906   0.218192
 C 0.0887 0.8203 0.8255   -0.298143
 C 0.2445 0.2109 0.8225   0.365855
 C 0.4609 0.3149 0.6448   -0.326125
 C 0.7908 0.7007 0.6248   -0.288907
 C 0.1511 0.1799 0.8221   -0.283343
 C 0.4877 0.4849 0.6335   0.20804
 C 0.9334 0.8656 0.8412   -0.294014
 C 0.9715 0.9104 0.8841   0.217344
 C 0.8149 0.6204 0.828   0.658567
 C 0.9518 0.5596 0.798   0.635366
 C 0.4144 0.3661 0.6776   0.382609
 C 0.1213 0.8654 0.8677   0.20603
 C 0.8089 0.5792 0.6733   -0.334077
 C 0.3034 0.1873 0.8588   -0.303776
 C 0.1238 0.1239 0.8617   0.196192
 C 0.5196 0.353 0.608   0.23691
 C 0.6809 0.6824 0.8683   -0.171336
 C 0.7333 0.5447 0.8996   -0.151723
 C 0.0962 0.4938 0.7691   -0.158981
 C 0.9989 0.4296 0.8384   -0.164318
 C 0.3096 0.1189 0.6749   0.588721
 C 0.4388 0.13 0.7243   0.588762
 C 0.286 0.0035 0.6138   -0.165186
 C 0.1666 0.1162 0.616   -0.144986
 C 0.4173 0.368 0.2737   -0.168667
 C 0.4621 0.4861 0.2151   -0.176681
 C 0.731 0.3742 0.3962   0.23721
 C 0.1738 0.8359 0.167   0.408539
 C 0.5717 0.0449 0.1709   -0.290133
 C 0.0038 0.6779 0.3122   0.370237
 C 0.248 0.9627 0.136   0.223094
 C 0.2632 0.8451 0.0906   0.218192
 C 0.9113 0.6797 0.3255   -0.298143
 C 0.7555 0.2891 0.3225   0.365855
 C 0.5391 0.1851 0.1448   -0.326125
 C 0.2092 0.7993 0.1248   -0.288907
 C 0.8489 0.3201 0.3221   -0.283343
 C 0.5123 0.0151 0.1335   0.20804
 C 0.0666 0.6344 0.3412   -0.294014
 C 0.0285 0.5896 0.3841   0.217344
 C 0.1851 0.8796 0.328   0.658567
 C 0.0482 0.9404 0.298   0.635366
 C 0.5856 0.1339 0.1776   0.382609
 C 0.8787 0.6346 0.3677   0.20603
 C 0.1911 0.9208 0.1733   -0.334077
 C 0.6966 0.3127 0.3588   -0.303776
 C 0.8762 0.3761 0.3617   0.196192
 C 0.4804 0.147 0.108   0.23691
 C 0.3191 0.8176 0.3683   -0.171336
 C 0.2667 0.9553 0.3996   -0.151722
 C 0.9038 0.0062 0.2691   -0.158981
 C 0.0011 0.0704 0.3384   -0.164318
 C 0.6904 0.3811 0.1749   0.588721
 C 0.5612 0.37 0.2243   0.588762
 C 0.714 0.4965 0.1138   -0.165185
 C 0.8334 0.3838 0.116   -0.144986
 N 0.9355 0.0876 0.1031   -0.349523
 N 0.8189 0.9011 0.1018   -0.328201
 N 0.4645 0.5649 0.3977   -0.362437
 N 0.2847 0.4266 0.4038   -0.353957
 N 0.2563 0.3872 0.1374   -0.094725
 N 0.989 0.5028 0.2003   -0.091648
 N 0.747 0.9174 0.3646   -0.11361
 N 0.4772 0.9088 0.2623   -0.075819
 N 0.0218 0.3788 0.237   -0.894752
 N 0.1803 0.312 0.2042   -0.903503
 N 0.1263 0.4435 0.1715   -0.747147
 N 0.7271 0.8075 0.3051   -0.88441
 N 0.5673 0.7984 0.2489   -0.854608
 N 0.6065 0.9137 0.3103   -0.655094
 N 0.0645 0.4124 0.6031   -0.349523
 N 0.1811 0.5989 0.6018   -0.328201
 N 0.5355 0.9351 0.8977   -0.362437
 N 0.7153 0.0734 0.9038   -0.353957
 N 0.7437 0.1128 0.6374   -0.094726
 N 0.011 0.9972 0.7003   -0.091648
 N 0.253 0.5826 0.8646   -0.113611
 N 0.5228 0.5912 0.7623   -0.075819
 N 0.9782 0.1212 0.737   -0.894752
 N 0.8197 0.188 0.7042   -0.903503
 N 0.8737 0.0565 0.6715   -0.747148
 N 0.2729 0.6925 0.8051   -0.88441
 N 0.4327 0.7016 0.7489   -0.854608
 N 0.3935 0.5863 0.8103   -0.655094
 N 0.0645 0.9124 0.8969   -0.349523
 N 0.1811 0.0989 0.8982   -0.328201
 N 0.5355 0.4351 0.6023   -0.362437
 N 0.7153 0.5734 0.5962   -0.353957
 N 0.7437 0.6128 0.8626   -0.094725
 N 0.011 0.4972 0.7997   -0.091648
 N 0.253 0.0826 0.6354   -0.113611
 N 0.5228 0.0912 0.7377   -0.075819
 N 0.9782 0.6212 0.763   -0.894752
 N 0.8197 0.688 0.7958   -0.903503
 N 0.8737 0.5565 0.8285   -0.747148
 N 0.2729 0.1925 0.6949   -0.88441
 N 0.4327 0.2016 0.7511   -0.854608
 N 0.3935 0.0863 0.6897   -0.655094
 N 0.9355 0.5876 0.3969   -0.349523
 N 0.8189 0.4011 0.3982   -0.328201
 N 0.4645 0.0649 0.1023   -0.362437
 N 0.2847 0.9266 0.0962   -0.353957
 N 0.2563 0.8872 0.3626   -0.094726
 N 0.989 0.0028 0.2997   -0.091648
 N 0.747 0.4174 0.1354   -0.113611
 N 0.4772 0.4088 0.2377   -0.075819
 N 0.0218 0.8788 0.263   -0.894752
 N 0.1803 0.812 0.2958   -0.903503
 N 0.1263 0.9435 0.3285   -0.747148
 N 0.7271 0.3075 0.1949   -0.88441
 N 0.5673 0.2984 0.2511   -0.854608
 N 0.6065 0.4137 0.1897   -0.655094
 Cl 0.7166 0.07894 0.04026   -0.516363
 Cl 0.76827 0.89433 0.96923   -0.542983
 Cl 0.96497 0.08706 0.96512   -0.537484
 Cl 0.51158 0.89367 0.02768   -0.54729
 Cl 0.2834 0.42106 0.54026   -0.516363
 Cl 0.23173 0.60567 0.46923   -0.542983
 Cl 0.03503 0.41294 0.46512   -0.537484
 Cl 0.48842 0.60633 0.52768   -0.54729
 Cl 0.2834 0.92106 0.95974   -0.516363
 Cl 0.23173 0.10567 0.03077   -0.542983
 Cl 0.03503 0.91294 0.03488   -0.537483
 Cl 0.48842 0.10633 0.97232   -0.54729
 Cl 0.7166 0.57894 0.45974   -0.516363
 Cl 0.76827 0.39433 0.53077   -0.542983
 Cl 0.96497 0.58706 0.53488   -0.537483
 Cl 0.51158 0.39367 0.47232   -0.54729
 O 0.0357 0.2122 0.2357   -0.45716
 O 0.1189 0.2839 0.2998   -0.450759
 O 0.646 0.6586 0.282   -0.426575
 O 0.7239 0.7295 0.2158   -0.451991
 O 0.9643 0.2878 0.7357   -0.45716
 O 0.8811 0.2161 0.7998   -0.450759
 O 0.354 0.8414 0.782   -0.426575
 O 0.2761 0.7705 0.7158   -0.451991
 O 0.9643 0.7878 0.7643   -0.45716
 O 0.8811 0.7161 0.7002   -0.450759
 O 0.354 0.3414 0.718   -0.426575
 O 0.2761 0.2705 0.7842   -0.451991
 O 0.0357 0.7122 0.2643   -0.45716
 O 0.1189 0.7839 0.2002   -0.450759
 O 0.646 0.1586 0.218   -0.426575
 O 0.7239 0.2295 0.2842   -0.451991
