{'_ref': 'TBD', '_srcid': 'CAKYAQ_clean', 'submitters': [{'name': 'Dalar Nazarian Jeff Camp and David Sholl', 'email': 'dalar@gatech.edu jcamp6@gatech.edu'}], '_method': 'VASP DFT with PBE;DDEC'}
data_Cd3P2H40C32N14(Cl3O2)2
_symmetry_space_group_name_H-M   'P 1'
_cell_length_a   14.19600041
_cell_length_b   15.36700039
_cell_length_c   16.61500000
_cell_angle_alpha   76.16700154
_cell_angle_beta   87.91899865
_cell_angle_gamma   64.59499971
_symmetry_Int_Tables_number   1
_chemical_formula_structural   Cd3P2H40C32N14(Cl3O2)2
_chemical_formula_sum   'Cd6 P4 H80 C64 N28 Cl12 O8'
_cell_volume   3170.0151175
_cell_formula_units_Z   2
loop_
 _symmetry_equiv_pos_site_id
 _symmetry_equiv_pos_as_xyz
  1  'x, y, z'
loop_
 _atom_site_label
 _atom_site_fract_x
 _atom_site_fract_y
 _atom_site_fract_z
 _atom_site_charge
 Cd 0.49966 0.44044 0.32159   0.824806
 Cd 0.65446 0.43714 0.50947   0.853195
 Cd 0.45686 0.56866 0.08798   0.815039
 Cd 0.50034 0.55956 0.67841   0.824806
 Cd 0.34554 0.56286 0.49053   0.853195
 Cd 0.54314 0.43134 0.91202   0.815039
 P 0.447 0.02648 0.19921   1.470884
 P 0.0143 0.99549 0.82897   1.4704
 P 0.553 0.97352 0.80079   1.470884
 P 0.9857 0.00451 0.17103   1.4704
 H 0.1539 0.1695 0.1663   0.124132
 H 0.0551 0.1798 0.2159   0.091131
 H 0.1093 0.2491 0.2186   0.08923
 H 0.1555 0.1327 0.4067   0.088805
 H 0.0725 0.111 0.3661   0.098264
 H 0.1809 0.0237 0.404   0.099188
 H 0.4921 0.7987 0.5292   0.097768
 H 0.4549 0.9113 0.5267   0.088108
 H 0.3843 0.8783 0.4829   0.095166
 H 0.6537 0.8301 0.4662   0.085625
 H 0.6346 0.7479 0.4387   0.092726
 H 0.6484 0.8319 0.3717   0.117085
 H 0.4739 0.8243 0.2439   0.159742
 H 0.4743 0.6812 0.2238   0.053683
 H 0.4549 0.7772 0.9849   0.068485
 H 0.4579 0.922 0.9959   0.151721
 H 0.3357 0.2486 0.1994   0.170162
 H 0.3467 0.3632 0.2624   0.077426
 H 0.6498 0.2388 0.269   0.073782
 H 0.6493 0.1221 0.2061   0.155018
 H 0.6691 0.2307 0.6001   0.069469
 H 0.7495 0.0928 0.7075   0.143889
 H 0.925 0.2152 0.7686   0.168791
 H 0.8415 0.3471 0.6557   0.079211
 H 0.158 0.7561 0.8394   0.166317
 H 0.084 0.8725 0.0378   0.154951
 H 0.0911 0.9889 0.5588   0.077804
 H 0.2022 0.8988 0.5751   0.089322
 H 0.1158 0.8994 0.6367   0.112981
 H 0.2857 0.0394 0.6571   0.108284
 H 0.3011 0.9865 0.5846   0.089275
 H 0.2119 0.0941 0.5752   0.080974
 H 0.1182 0.0847 0.9813   0.116109
 H 0.2146 0.106 0.9934   0.094065
 H 0.1085 0.1931 0.9506   0.086017
 H 0.2235 0.2119 0.8076   0.090522
 H 0.3106 0.1371 0.8779   0.090866
 H 0.2978 0.1053 0.7976   0.108217
 H 0.241 0.7508 0.1049   0.062236
 H 0.3157 0.6398 0.9118   0.056936
 H 0.8461 0.8305 0.8337   0.124132
 H 0.9449 0.8202 0.7841   0.091131
 H 0.8907 0.7509 0.7814   0.089229
 H 0.8445 0.8673 0.5933   0.088805
 H 0.9275 0.889 0.6339   0.098264
 H 0.8191 0.9763 0.596   0.099188
 H 0.5079 0.2013 0.4708   0.097768
 H 0.5451 0.0887 0.4733   0.088108
 H 0.6157 0.1217 0.5171   0.095166
 H 0.3463 0.1699 0.5338   0.085625
 H 0.3654 0.2521 0.5613   0.092726
 H 0.3516 0.1681 0.6283   0.117085
 H 0.5261 0.1757 0.7561   0.159742
 H 0.5257 0.3188 0.7762   0.053683
 H 0.5451 0.2228 0.0151   0.068485
 H 0.5421 0.078 0.0041   0.15172
 H 0.6643 0.7514 0.8006   0.170162
 H 0.6533 0.6368 0.7376   0.077427
 H 0.3502 0.7612 0.731   0.073782
 H 0.3507 0.8779 0.7939   0.155018
 H 0.3309 0.7693 0.3999   0.069468
 H 0.2505 0.9072 0.2925   0.143889
 H 0.075 0.7848 0.2314   0.16879
 H 0.1585 0.6529 0.3443   0.079212
 H 0.842 0.2439 0.1606   0.166317
 H 0.916 0.1275 0.9622   0.15495
 H 0.9089 0.0111 0.4412   0.077804
 H 0.7978 0.1012 0.4249   0.089322
 H 0.8842 0.1006 0.3633   0.112981
 H 0.7143 0.9606 0.3429   0.108284
 H 0.6989 0.0135 0.4154   0.089275
 H 0.7881 0.9059 0.4248   0.080975
 H 0.8818 0.9153 0.0187   0.116109
 H 0.7854 0.894 0.0066   0.094065
 H 0.8915 0.8069 0.0494   0.086017
 H 0.7765 0.7881 0.1924   0.090523
 H 0.6894 0.8629 0.1221   0.090866
 H 0.7022 0.8947 0.2024   0.108217
 H 0.759 0.2492 0.8951   0.062236
 H 0.6843 0.3602 0.0882   0.056936
 C 0.2935 0.0581 0.2835   0.64496
 C 0.4552 0.9473 0.3483   0.643299
 C 0.1209 0.1836 0.2161   -0.138064
 C 0.1458 0.0924 0.3747   -0.143123
 C 0.455 0.8656 0.4961   -0.156014
 C 0.6209 0.8168 0.4241   -0.148998
 C 0.4663 0.8892 0.1212   0.373265
 C 0.4707 0.8162 0.1905   -0.320247
 C 0.4701 0.731 0.1774   0.226275
 C 0.4593 0.7868 0.0376   0.204978
 C 0.4607 0.8742 0.0434   -0.295376
 C 0.4915 0.1732 0.198   0.359449
 C 0.4001 0.2453 0.2134   -0.285341
 C 0.408 0.3134 0.251   0.216623
 C 0.5861 0.2406 0.2549   0.20179
 C 0.5869 0.1704 0.2178   -0.275091
 C 0.7224 0.227 0.6336   0.222461
 C 0.7695 0.1444 0.6985   -0.276523
 C 0.8459 0.1391 0.7496   0.37887
 C 0.8739 0.2158 0.7347   -0.297017
 C 0.8228 0.2947 0.6669   0.217576
 C 0.1078 0.8275 0.9316   0.345763
 C 0.1748 0.757 0.8927   -0.291413
 C 0.1303 0.8261 0.0112   -0.275472
 C 0.1366 0.0069 0.7213   0.646328
 C 0.1408 0.0664 0.8356   0.639364
 C 0.144 0.9399 0.6009   -0.146759
 C 0.2505 0.0308 0.6134   -0.168085
 C 0.1544 0.1239 0.9574   -0.15056
 C 0.2612 0.1432 0.8365   -0.156433
 C 0.2247 0.7531 0.0505   0.200363
 C 0.2685 0.6874 0.937   0.221949
 C 0.7065 0.9419 0.7165   0.64496
 C 0.5448 0.0527 0.6517   0.643299
 C 0.8791 0.8164 0.7839   -0.138064
 C 0.8542 0.9076 0.6253   -0.143123
 C 0.545 0.1344 0.5039   -0.156014
 C 0.3791 0.1832 0.5759   -0.148998
 C 0.5337 0.1108 0.8788   0.373265
 C 0.5293 0.1838 0.8095   -0.320247
 C 0.5299 0.269 0.8226   0.226275
 C 0.5407 0.2132 0.9624   0.204978
 C 0.5393 0.1258 0.9566   -0.295376
 C 0.5085 0.8268 0.802   0.359449
 C 0.5999 0.7547 0.7866   -0.285341
 C 0.592 0.6866 0.749   0.216623
 C 0.4139 0.7594 0.7451   0.20179
 C 0.4131 0.8296 0.7822   -0.275091
 C 0.2776 0.773 0.3664   0.222461
 C 0.2305 0.8556 0.3015   -0.276523
 C 0.1541 0.8609 0.2504   0.37887
 C 0.1261 0.7842 0.2653   -0.297017
 C 0.1772 0.7053 0.3331   0.217576
 C 0.8922 0.1725 0.0684   0.345763
 C 0.8252 0.243 0.1073   -0.291413
 C 0.8697 0.1739 0.9888   -0.275472
 C 0.8634 0.9931 0.2787   0.646328
 C 0.8592 0.9336 0.1644   0.639364
 C 0.856 0.0601 0.3991   -0.146759
 C 0.7495 0.9692 0.3866   -0.168085
 C 0.8456 0.8761 0.0426   -0.15056
 C 0.7388 0.8568 0.1635   -0.156433
 C 0.7753 0.2469 0.9495   0.200363
 C 0.7315 0.3126 0.063   0.221949
 N 0.5135 0.955 0.2838   -0.889361
 N 0.3529 0.9963 0.3523   -0.72756
 N 0.326 0.0782 0.2063   -0.904285
 N 0.5076 0.8787 0.4177   -0.125265
 N 0.1911 0.108 0.2914   -0.153197
 N 0.464 0.7154 0.1031   -0.34666
 N 0.499 0.3115 0.2718   -0.351392
 N 0.7489 0.3 0.6169   -0.367307
 N 0.0628 0.9742 0.7447   -0.915135
 N 0.1753 0.0505 0.7618   -0.718634
 N 0.066 0.0451 0.8753   -0.892514
 N 0.1784 0.9889 0.6492   -0.11738
 N 0.1874 0.1056 0.8767   -0.126849
 N 0.2939 0.6857 0.0144   -0.344548
 N 0.4865 0.045 0.7162   -0.889361
 N 0.6471 0.0037 0.6477   -0.72756
 N 0.674 0.9218 0.7937   -0.904285
 N 0.4924 0.1213 0.5823   -0.125265
 N 0.8089 0.892 0.7086   -0.153196
 N 0.536 0.2846 0.8969   -0.34666
 N 0.501 0.6885 0.7282   -0.351392
 N 0.2511 0.7 0.3831   -0.367307
 N 0.9372 0.0258 0.2553   -0.915135
 N 0.8247 0.9495 0.2382   -0.718634
 N 0.934 0.9549 0.1247   -0.892514
 N 0.8216 0.0111 0.3508   -0.11738
 N 0.8126 0.8944 0.1233   -0.126849
 N 0.7061 0.3143 0.9856   -0.344548
 Cl 0.66254 0.3154 0.42252   -0.503282
 Cl 0.50947 0.57236 0.39623   -0.465435
 Cl 0.61718 0.46933 0.20113   -0.537211
 Cl 0.34519 0.56878 0.21661   -0.522107
 Cl 0.35394 0.42842 0.42229   -0.507916
 Cl 0.55681 0.57851 0.95306   -0.525108
 Cl 0.33746 0.6846 0.57748   -0.503282
 Cl 0.49053 0.42764 0.60377   -0.465435
 Cl 0.38282 0.53067 0.79887   -0.537211
 Cl 0.65481 0.43122 0.78339   -0.522107
 Cl 0.64606 0.57158 0.57771   -0.507917
 Cl 0.44319 0.42149 0.04694   -0.525108
 O 0.475 0.975 0.1232   -0.432946
 O 0.4921 0.1041 0.1563   -0.431892
 O 0.8899 0.0561 0.8162   -0.430232
 O 0.0112 0.9 0.8903   -0.440387
 O 0.525 0.025 0.8768   -0.432946
 O 0.5079 0.8959 0.8437   -0.431892
 O 0.1101 0.9439 0.1838   -0.430232
 O 0.9888 0.1 0.1097   -0.440387
