{'_ref': 'TBD', '_srcid': 'CAKYAQ_clean', 'submitters': [{'name': 'Dalar Nazarian Jeff Camp and David Sholl', 'email': 'dalar@gatech.edu jcamp6@gatech.edu'}], '_method': 'VASP DFT with PBE;DDEC'}
data_CuH6C11(NO)4
_symmetry_space_group_name_H-M   'P 1'
_cell_length_a   4.70830000
_cell_length_b   10.98000013
_cell_length_c   31.01100000
_cell_angle_alpha   90.00000000
_cell_angle_beta   90.00000000
_cell_angle_gamma   96.14500000
_symmetry_Int_Tables_number   1
_chemical_formula_structural   CuH6C11(NO)4
_chemical_formula_sum   'Cu4 H24 C44 N16 O16'
_cell_volume   1593.96825491
_cell_formula_units_Z   4
loop_
 _symmetry_equiv_pos_site_id
 _symmetry_equiv_pos_as_xyz
  1  'x, y, z'
loop_
 _atom_site_label
 _atom_site_fract_x
 _atom_site_fract_y
 _atom_site_fract_z
 _atom_site_charge
 Cu 0.51873 0.39726 0.80617   1.009842
 Cu 0.48127 0.10274 0.30617   1.009842
 Cu 0.48127 0.60274 0.19383   1.009842
 Cu 0.51873 0.89726 0.69383   1.009842
 H 0.63 0.461 0.708   0.121645
 H 0.45 0.364 0.646   0.092101
 H 0.77 0.297 0.8694   0.091251
 H 0.4558 0.6107 0.878   0.068992
 H 0.6562 0.6366 0.9466   0.137032
 H 0.9586 0.3207 0.9376   0.143644
 H 0.37 0.039 0.208   0.121645
 H 0.55 0.136 0.146   0.0921
 H 0.23 0.203 0.3694   0.091251
 H 0.5442 0.8893 0.378   0.068992
 H 0.3438 0.8634 0.4466   0.137032
 H 0.0414 0.1793 0.4376   0.143643
 H 0.37 0.539 0.292   0.121645
 H 0.55 0.636 0.354   0.092094
 H 0.23 0.703 0.1306   0.091252
 H 0.5442 0.3893 0.122   0.068993
 H 0.3438 0.3634 0.0534   0.13702
 H 0.0414 0.6793 0.0624   0.14363
 H 0.63 0.961 0.792   0.121645
 H 0.45 0.864 0.854   0.092094
 H 0.77 0.797 0.6306   0.091252
 H 0.4558 0.1107 0.622   0.068993
 H 0.6562 0.1366 0.5534   0.13702
 H 0.9586 0.8207 0.5624   0.143629
 C 0.2165 0.177 0.7947   0.562012
 C 0.2674 0.2294 0.7493   0.035997
 C 0.5095 0.3867 0.7098   0.106457
 C 0.3975 0.3286 0.6733   0.131126
 C 0.1552 0.1753 0.7121   0.156891
 C 0.9683 0.0572 0.7084   0.607918
 C 0.74634 0.36942 0.88553   0.155624
 C 0.56497 0.55038 0.88955   0.231263
 C 0.67621 0.56402 0.9307   -0.274521
 C 0.85281 0.38183 0.92582   -0.230439
 C 0.81099 0.47591 0.94812   0.254864
 C 0.7835 0.323 0.2947   0.562012
 C 0.7326 0.2706 0.2493   0.035997
 C 0.4905 0.1133 0.2098   0.106457
 C 0.6025 0.1714 0.1733   0.131126
 C 0.8448 0.3247 0.2121   0.156891
 C 0.0317 0.4428 0.2084   0.607918
 C 0.25366 0.13058 0.38553   0.155624
 C 0.43503 0.94962 0.38955   0.231263
 C 0.32379 0.93598 0.4307   -0.274521
 C 0.14719 0.11817 0.42582   -0.230439
 C 0.18901 0.02409 0.44812   0.254864
 C 0.7835 0.823 0.2053   0.562012
 C 0.7326 0.7706 0.2507   0.035996
 C 0.4905 0.6133 0.2902   0.106456
 C 0.6025 0.6714 0.3267   0.131128
 C 0.8448 0.8247 0.2879   0.156891
 C 0.0317 0.9428 0.2916   0.607918
 C 0.25366 0.63058 0.11447   0.155623
 C 0.43503 0.44962 0.11045   0.231261
 C 0.32379 0.43598 0.0693   -0.274513
 C 0.14719 0.61817 0.07418   -0.230434
 C 0.18901 0.52409 0.05188   0.254854
 C 0.2165 0.677 0.7053   0.562012
 C 0.2674 0.7294 0.7507   0.035996
 C 0.5095 0.8867 0.7902   0.106456
 C 0.3975 0.8286 0.8267   0.131128
 C 0.1552 0.6753 0.7879   0.156891
 C 0.9683 0.5572 0.7916   0.607918
 C 0.74634 0.86942 0.61447   0.155623
 C 0.56497 0.05038 0.61045   0.231261
 C 0.67621 0.06402 0.5693   -0.274513
 C 0.85281 0.88183 0.57418   -0.230434
 C 0.81099 0.97591 0.55188   0.254854
 N 0.4395 0.334 0.7481   -0.22904
 N 0.2233 0.2264 0.6743   -0.363268
 N 0.60688 0.4606 0.86788   -0.303044
 N 0.87775 0.47905 0.99583   -0.117779
 N 0.5605 0.166 0.2481   -0.22904
 N 0.7767 0.2736 0.1743   -0.363268
 N 0.39312 0.0394 0.36788   -0.303044
 N 0.12225 0.02095 0.49583   -0.117779
 N 0.5605 0.666 0.2519   -0.229039
 N 0.7767 0.7736 0.3257   -0.363268
 N 0.39312 0.5394 0.13212   -0.303044
 N 0.12225 0.52095 0.00417   -0.117683
 N 0.4395 0.834 0.7519   -0.229039
 N 0.2233 0.7264 0.8257   -0.363268
 N 0.60688 0.9606 0.63212   -0.303044
 N 0.87775 0.97905 0.50417   -0.117683
 O 0.3134 0.24805 0.82424   -0.578922
 O 0.04382 0.06731 0.79999   -0.594318
 O 0.68242 0.01007 0.70859   -0.664483
 O 0.12691 0.97811 0.70316   -0.550876
 O 0.6866 0.25195 0.32424   -0.578922
 O 0.95618 0.43269 0.29999   -0.594318
 O 0.31758 0.48993 0.20859   -0.664483
 O 0.87309 0.52189 0.20316   -0.550876
 O 0.6866 0.75195 0.17576   -0.578922
 O 0.95618 0.93269 0.20001   -0.594318
 O 0.31758 0.98993 0.29141   -0.664483
 O 0.87309 0.02189 0.29684   -0.550876
 O 0.3134 0.74805 0.67576   -0.578922
 O 0.04382 0.56731 0.70001   -0.594318
 O 0.68242 0.51007 0.79141   -0.664483
 O 0.12691 0.47811 0.79684   -0.550876
