{'_ref': 'TBD', '_srcid': 'CAKYAQ_clean', 'submitters': [{'name': 'Dalar Nazarian Jeff Camp and David Sholl', 'email': 'dalar@gatech.edu jcamp6@gatech.edu'}], '_method': 'VASP DFT with PBE;DDEC'}
data_CuH6C13N3O4
_symmetry_space_group_name_H-M   'P 1'
_cell_length_a   4.71300000
_cell_length_b   11.10100018
_cell_length_c   26.79700000
_cell_angle_alpha   90.00000000
_cell_angle_beta   90.00000000
_cell_angle_gamma   96.52000057
_symmetry_Int_Tables_number   1
_chemical_formula_structural   CuH6C13N3O4
_chemical_formula_sum   'Cu4 H24 C52 N12 O16'
_cell_volume   1392.92491601
_cell_formula_units_Z   4
loop_
 _symmetry_equiv_pos_site_id
 _symmetry_equiv_pos_as_xyz
  1  'x, y, z'
loop_
 _atom_site_label
 _atom_site_fract_x
 _atom_site_fract_y
 _atom_site_fract_z
 _atom_site_charge
 Cu 0.388 0.12 0.8194   0.917454
 Cu 0.612 0.38 0.3194   0.917454
 Cu 0.612 0.88 0.1806   0.917455
 Cu 0.388 0.62 0.6806   0.917455
 H 0.214 0.0363 0.7087   0.12492
 H 0.3759 0.1353 0.6374   0.076606
 H 0.0799 0.2093 0.8952   0.094
 H 0.4086 0.8981 0.8917   0.068976
 H 0.3928 0.7616 0.9621   0.138892
 H 0.8647 0.2769 0.9645   0.109104
 H 0.786 0.4637 0.2087   0.12492
 H 0.6241 0.3647 0.1374   0.076606
 H 0.9201 0.2907 0.3952   0.094
 H 0.5914 0.6019 0.3917   0.068976
 H 0.6072 0.7384 0.4621   0.138892
 H 0.1353 0.2231 0.4645   0.109104
 H 0.786 0.9637 0.2913   0.12492
 H 0.6241 0.8647 0.3626   0.076601
 H 0.9201 0.7907 0.1048   0.093998
 H 0.5914 0.1019 0.1083   0.068975
 H 0.6072 0.2384 0.0379   0.13888
 H 0.1353 0.7231 0.0355   0.109089
 H 0.214 0.5363 0.7913   0.12492
 H 0.3759 0.6353 0.8626   0.076601
 H 0.0799 0.7093 0.6048   0.093998
 H 0.4086 0.3981 0.6083   0.068975
 H 0.3928 0.2616 0.5379   0.13888
 H 0.8647 0.7769 0.5355   0.109089
 C 0.6509 0.3208 0.8025   0.636034
 C 0.5863 0.2687 0.7524   0.003638
 C 0.3346 0.1109 0.71   0.111607
 C 0.4334 0.1697 0.6688   0.125325
 C 0.6852 0.3235 0.7104   0.141066
 C 0.8684 0.4423 0.705   0.669454
 C 0.113 0.1361 0.9114   0.106989
 C 0.3059 0.9533 0.9094   0.120002
 C 0.2145 0.9249 0.9558   -0.002371
 C 0.0139 0.1149 0.9579   -0.019227
 C 0.0631 0.0078 0.9812   0.034466
 C 0.2729 0.8156 0.9764   -0.108367
 C 0.8663 0.2009 0.9807   -0.082964
 C 0.3491 0.1792 0.3025   0.636034
 C 0.4137 0.2313 0.2524   0.003638
 C 0.6654 0.3891 0.21   0.111607
 C 0.5666 0.3303 0.1688   0.125325
 C 0.3148 0.1765 0.2104   0.141066
 C 0.1316 0.0577 0.205   0.669454
 C 0.887 0.3639 0.4114   0.106989
 C 0.6941 0.5467 0.4094   0.120002
 C 0.7855 0.5751 0.4558   -0.002371
 C 0.9861 0.3851 0.4579   -0.019227
 C 0.9369 0.4922 0.4812   0.034466
 C 0.7271 0.6844 0.4764   -0.108367
 C 0.1337 0.2991 0.4807   -0.082964
 C 0.3491 0.6792 0.1975   0.636034
 C 0.4137 0.7313 0.2476   0.003638
 C 0.6654 0.8891 0.29   0.111606
 C 0.5666 0.8303 0.3312   0.125326
 C 0.3148 0.6765 0.2896   0.141066
 C 0.1316 0.5577 0.295   0.669454
 C 0.887 0.8639 0.0886   0.106996
 C 0.6941 0.0467 0.0906   0.12001
 C 0.7855 0.0751 0.0442   -0.002403
 C 0.9861 0.8851 0.0421   -0.01926
 C 0.9369 0.9922 0.0188   0.034622
 C 0.7271 0.1844 0.0236   -0.108305
 C 0.1337 0.7991 0.0193   -0.082902
 C 0.6509 0.8208 0.6975   0.636034
 C 0.5863 0.7687 0.7476   0.003638
 C 0.3346 0.6109 0.79   0.111606
 C 0.4334 0.6697 0.8312   0.125326
 C 0.6852 0.8235 0.7896   0.141066
 C 0.8684 0.9423 0.795   0.669454
 C 0.113 0.6361 0.5886   0.106996
 C 0.3059 0.4533 0.5906   0.12001
 C 0.2145 0.4249 0.5442   -0.002403
 C 0.0139 0.6149 0.5421   -0.01926
 C 0.0631 0.5078 0.5188   0.034622
 C 0.2729 0.3156 0.5236   -0.108305
 C 0.8663 0.7009 0.5193   -0.082902
 N 0.416 0.1635 0.7522   -0.182609
 N 0.6058 0.2725 0.6688   -0.368183
 N 0.2567 0.057 0.8874   -0.308143
 N 0.584 0.3365 0.2522   -0.182609
 N 0.3942 0.2275 0.1688   -0.368183
 N 0.7433 0.443 0.3874   -0.308143
 N 0.584 0.8365 0.2478   -0.182609
 N 0.3942 0.7275 0.3312   -0.368184
 N 0.7433 0.943 0.1126   -0.308145
 N 0.416 0.6635 0.7478   -0.182609
 N 0.6058 0.7725 0.8312   -0.368184
 N 0.2567 0.557 0.6126   -0.308145
 O 0.533 0.2583 0.8352   -0.603041
 O 0.789 0.4204 0.8066   -0.565392
 O 0.119 0.488 0.712   -0.624355
 O 0.755 0.5341 0.6943   -0.613977
 O 0.467 0.2417 0.3352   -0.603041
 O 0.211 0.0796 0.3066   -0.565392
 O 0.881 0.012 0.212   -0.624355
 O 0.245 0.9659 0.1943   -0.613977
 O 0.467 0.7417 0.1648   -0.603042
 O 0.211 0.5796 0.1934   -0.565392
 O 0.881 0.512 0.288   -0.624355
 O 0.245 0.4659 0.3057   -0.613977
 O 0.533 0.7583 0.6648   -0.603042
 O 0.789 0.9204 0.6934   -0.565392
 O 0.119 0.988 0.788   -0.624355
 O 0.755 0.0341 0.8057   -0.613977
