{'_ref': 'TBD', '_srcid': 'CAKYAQ_clean', 'submitters': [{'name': 'Dalar Nazarian Jeff Camp and David Sholl', 'email': 'dalar@gatech.edu jcamp6@gatech.edu'}], '_method': 'VASP DFT with PBE;DDEC'}
data_Zn4H6C15O13
_symmetry_space_group_name_H-M   'P 1'
_cell_length_a   18.10099958
_cell_length_b   18.10100021
_cell_length_c   18.10100000
_cell_angle_alpha   60.00360051
_cell_angle_beta   60.00359936
_cell_angle_gamma   60.00009935
_symmetry_Int_Tables_number   1
_chemical_formula_structural   Zn4H6C15O13
_chemical_formula_sum   'Zn8 H12 C30 O26'
_cell_volume   4193.88635224
_cell_formula_units_Z   2
loop_
 _symmetry_equiv_pos_site_id
 _symmetry_equiv_pos_as_xyz
  1  'x, y, z'
loop_
 _atom_site_label
 _atom_site_fract_x
 _atom_site_fract_y
 _atom_site_fract_z
 _atom_site_charge
 Zn 0.11865 0.29385 0.2938   1.007537
 Zn 0.70615 0.88135 0.7062   1.007537
 Zn 0.88135 0.70615 0.7062   1.007537
 Zn 0.29385 0.11865 0.2938   1.007537
 Zn 0.29392 0.29392 0.11841   1.019654
 Zn 0.29367 0.29367 0.29393   1.023187
 Zn 0.70608 0.70608 0.88159   1.019654
 Zn 0.70633 0.70633 0.70607   1.023187
 H 0.1548 0.452 0.9336   0.103786
 H 0.9328 0.4504 0.1562   0.108984
 H 0.9308 0.1562 0.4495   0.109756
 H 0.548 0.8452 0.0664   0.103786
 H 0.5496 0.0672 0.8438   0.108984
 H 0.8438 0.0692 0.5505   0.109747
 H 0.8452 0.548 0.0664   0.103779
 H 0.0672 0.5496 0.8438   0.108978
 H 0.0692 0.8438 0.5505   0.109756
 H 0.452 0.1548 0.9336   0.103779
 H 0.4504 0.9328 0.1562   0.108978
 H 0.1562 0.9308 0.4495   0.109747
 C 0.1216 0.3828 0.1139   0.632462
 C 0.0517 0.4479 0.0541   -0.137616
 C 0.0908 0.4736 0.9602   -0.072173
 C 0.9601 0.4721 0.0924   -0.04201
 C 0.118 0.3822 0.382   0.372729
 C 0.9571 0.0925 0.4734   -0.049065
 C 0.6172 0.8784 0.8861   0.632462
 C 0.5521 0.9483 0.9459   -0.137616
 C 0.5264 0.9092 0.0398   -0.072173
 C 0.5279 0.0399 0.9076   -0.04201
 C 0.6178 0.882 0.618   0.372729
 C 0.9075 0.0429 0.5266   -0.048977
 C 0.8784 0.6172 0.8861   0.632465
 C 0.9483 0.5521 0.9459   -0.137638
 C 0.9092 0.5264 0.0398   -0.072117
 C 0.0399 0.5279 0.9076   -0.041954
 C 0.882 0.6178 0.618   0.37273
 C 0.0429 0.9075 0.5266   -0.049065
 C 0.3828 0.1216 0.1139   0.632465
 C 0.4479 0.0517 0.0541   -0.137638
 C 0.4736 0.0908 0.9602   -0.072117
 C 0.4721 0.9601 0.0924   -0.041954
 C 0.3822 0.118 0.382   0.37273
 C 0.0925 0.9571 0.4734   -0.048977
 C 0.3831 0.3831 0.114   0.385716
 C 0.1169 0.1169 0.3811   0.605536
 C 0.0515 0.0515 0.4505   -0.141307
 C 0.6169 0.6169 0.886   0.385716
 C 0.8831 0.8831 0.6189   0.605536
 C 0.9485 0.9485 0.5495   -0.141307
 O 0.1998 0.3664 0.0697   -0.494055
 O 0.0694 0.3672 0.1973   -0.553136
 O 0.1996 0.3666 0.3656   -0.434105
 O 0.068 0.3668 0.3657   -0.433766
 O 0.0683 0.1991 0.3673   -0.52158
 O 0.6336 0.8002 0.9303   -0.494055
 O 0.6328 0.9306 0.8027   -0.553136
 O 0.6334 0.8004 0.6344   -0.434105
 O 0.6332 0.932 0.6343   -0.433766
 O 0.8009 0.9317 0.6327   -0.521582
 O 0.8002 0.6336 0.9303   -0.494056
 O 0.9306 0.6328 0.8027   -0.553137
 O 0.8004 0.6334 0.6344   -0.434105
 O 0.932 0.6332 0.6343   -0.433766
 O 0.9317 0.8009 0.6327   -0.52158
 O 0.3664 0.1998 0.0697   -0.494056
 O 0.3672 0.0694 0.1973   -0.553137
 O 0.3666 0.1996 0.3656   -0.434105
 O 0.3668 0.068 0.3657   -0.433766
 O 0.1991 0.0683 0.3673   -0.521582
 O 0.2487 0.2487 0.2512   -1.199744
 O 0.3663 0.3663 0.0682   -0.41082
 O 0.3662 0.3662 0.1991   -0.477873
 O 0.7513 0.7513 0.7488   -1.199744
 O 0.6337 0.6337 0.9318   -0.41082
 O 0.6338 0.6338 0.8009   -0.477873
