{'_ref': 'TBD', '_srcid': 'CAKYAQ_clean', 'submitters': [{'name': 'Dalar Nazarian Jeff Camp and David Sholl', 'email': 'dalar@gatech.edu jcamp6@gatech.edu'}], '_method': 'VASP DFT with PBE;DDEC'}
data_Cd3H8C4(Cl3O)2
_symmetry_space_group_name_H-M   'P 1'
_cell_length_a   10.27400041
_cell_length_b   10.27400018
_cell_length_c   11.59430000
_cell_angle_alpha   80.55460017
_cell_angle_beta   80.55460038
_cell_angle_gamma   85.03810036
_symmetry_Int_Tables_number   1
_chemical_formula_structural   Cd3H8C4(Cl3O)2
_chemical_formula_sum   'Cd6 H16 C8 Cl12 O4'
_cell_volume   1188.6446998
_cell_formula_units_Z   2
loop_
 _symmetry_equiv_pos_site_id
 _symmetry_equiv_pos_as_xyz
  1  'x, y, z'
loop_
 _atom_site_label
 _atom_site_fract_x
 _atom_site_fract_y
 _atom_site_fract_z
 _atom_site_charge
 Cd 0.85937 0.47968 0.42132   0.881248
 Cd 0.52032 0.14063 0.07868   0.881245
 Cd 0.14063 0.52032 0.57868   0.88125
 Cd 0.47968 0.85937 0.92132   0.881247
 Cd 0.77411 0.22589 0.25   0.880582
 Cd 0.22589 0.77411 0.75   0.880581
 H 0.5855 0.6521 0.3449   0.087141
 H 0.5017 0.6835 0.4642   0.073943
 H 0.471 0.466 0.3543   0.051873
 H 0.3699 0.5891 0.3613   0.085511
 H 0.3479 0.4145 0.1551   0.087138
 H 0.3165 0.4983 0.0358   0.073943
 H 0.534 0.529 0.1457   0.051866
 H 0.4109 0.6301 0.1387   0.085498
 H 0.4145 0.3479 0.6551   0.087141
 H 0.4983 0.3165 0.5358   0.073942
 H 0.529 0.534 0.6457   0.051871
 H 0.6301 0.4109 0.6387   0.085511
 H 0.6521 0.5855 0.8449   0.087139
 H 0.6835 0.5017 0.9642   0.073942
 H 0.466 0.471 0.8543   0.051865
 H 0.5891 0.3699 0.8613   0.085498
 C 0.5401 0.6127 0.421   0.058836
 C 0.4333 0.5325 0.4028   0.061485
 C 0.3873 0.4599 0.079   0.058836
 C 0.4675 0.5667 0.0972   0.06149
 C 0.4599 0.3873 0.579   0.058834
 C 0.5667 0.4675 0.5972   0.061483
 C 0.6127 0.5401 0.921   0.058834
 C 0.5325 0.4333 0.9028   0.061488
 Cl 0.80316 0.47706 0.20972   -0.467456
 Cl 0.76786 0.1857 0.03346   -0.465888
 Cl 0.88945 0.51041 0.63572   -0.476201
 Cl 0.52294 0.19684 0.29028   -0.467455
 Cl 0.8143 0.23214 0.46654   -0.465883
 Cl 0.48959 0.11055 0.86428   -0.476196
 Cl 0.19684 0.52294 0.79028   -0.467462
 Cl 0.23214 0.8143 0.96654   -0.465866
 Cl 0.11055 0.48959 0.36428   -0.476197
 Cl 0.47706 0.80316 0.70972   -0.467461
 Cl 0.1857 0.76786 0.53346   -0.465861
 Cl 0.51041 0.88945 0.13572   -0.476192
 O 0.63313 0.53129 0.4859   -0.330786
 O 0.46871 0.36687 0.0141   -0.330786
 O 0.36687 0.46871 0.5141   -0.330786
 O 0.53129 0.63313 0.9859   -0.330786
