{'_ref': 'TBD', '_srcid': 'CAKYAQ_clean', 'submitters': [{'name': 'Dalar Nazarian Jeff Camp and David Sholl', 'email': 'dalar@gatech.edu jcamp6@gatech.edu'}], '_method': 'VASP DFT with PBE;DDEC'}
data_ZnH12C12NO4
_symmetry_space_group_name_H-M   'P 1'
_cell_length_a   14.35470004
_cell_length_b   14.35469989
_cell_length_c   14.35470000
_cell_angle_alpha   95.80319828
_cell_angle_beta   116.70800017
_cell_angle_gamma   116.70800004
_symmetry_Int_Tables_number   1
_chemical_formula_structural   ZnH12C12NO4
_chemical_formula_sum   'Zn4 H48 C48 N4 O16'
_cell_volume   2183.49347721
_cell_formula_units_Z   4
loop_
 _symmetry_equiv_pos_site_id
 _symmetry_equiv_pos_as_xyz
  1  'x, y, z'
loop_
 _atom_site_label
 _atom_site_fract_x
 _atom_site_fract_y
 _atom_site_fract_z
 _atom_site_charge
 Zn 0.0 0.42331 0.42331   0.935893
 Zn 0.0 0.07669 0.07669   0.935894
 Zn 0.0 0.57669 0.57669   0.935894
 Zn 0.0 0.92331 0.92331   0.935895
 H 0.0932 0.2466 0.6374   0.090587
 H 0.073 0.425 0.258   0.119517
 H 0.917 0.331 0.182   0.072108
 H 0.9068 0.5442 0.1534   0.090585
 H 0.927 0.185 0.352   0.119513
 H 0.083 0.265 0.414   0.072106
 H 0.6092 0.1534 0.2466   0.090564
 H 0.167 0.352 0.425   0.119512
 H 0.149 0.414 0.331   0.072106
 H 0.3908 0.6374 0.5442   0.090566
 H 0.833 0.258 0.185   0.119503
 H 0.851 0.182 0.265   0.072099
 H 0.6092 0.9558 0.8626   0.090567
 H 0.167 0.315 0.242   0.119503
 H 0.149 0.235 0.318   0.0721
 H 0.3908 0.2534 0.3466   0.090562
 H 0.833 0.075 0.148   0.119511
 H 0.851 0.169 0.086   0.072105
 H 0.9068 0.8626 0.2534   0.090586
 H 0.927 0.242 0.075   0.119516
 H 0.083 0.318 0.169   0.072107
 H 0.0932 0.3466 0.9558   0.090584
 H 0.073 0.148 0.315   0.119511
 H 0.917 0.086 0.235   0.072105
 H 0.9068 0.7534 0.3626   0.090583
 H 0.927 0.575 0.742   0.119517
 H 0.083 0.669 0.818   0.072108
 H 0.0932 0.4558 0.8466   0.090582
 H 0.073 0.815 0.648   0.119513
 H 0.917 0.735 0.586   0.072106
 H 0.3908 0.8466 0.7534   0.09056
 H 0.833 0.648 0.575   0.119512
 H 0.851 0.586 0.669   0.072106
 H 0.6092 0.3626 0.4558   0.090562
 H 0.167 0.742 0.815   0.119503
 H 0.149 0.818 0.735   0.072099
 H 0.3908 0.0442 0.1374   0.090563
 H 0.833 0.685 0.758   0.119503
 H 0.851 0.765 0.682   0.0721
 H 0.6092 0.7466 0.6534   0.090559
 H 0.167 0.925 0.852   0.119511
 H 0.149 0.831 0.914   0.072105
 H 0.0932 0.1374 0.7466   0.090582
 H 0.073 0.758 0.925   0.119516
 H 0.917 0.682 0.831   0.072107
 H 0.9068 0.6534 0.0442   0.090581
 H 0.927 0.852 0.685   0.119511
 H 0.083 0.914 0.765   0.072105
 C 0.09102 0.2658 0.7006   -0.064313
 C 0.0285 0.3669 0.2444   -0.118547
 C 0.90898 0.60958 0.17478   -0.064313
 C 0.9715 0.2159 0.3384   -0.118533
 C 0.5652 0.17478 0.2658   -0.064315
 C 0.1225 0.3384 0.3669   -0.118572
 C 0.4348 0.7006 0.60958   -0.064327
 C 0.8775 0.2444 0.2159   -0.118526
 C 0.5652 0.89042 0.7994   -0.064327
 C 0.1225 0.2841 0.2556   -0.118527
 C 0.4348 0.2342 0.32522   -0.064315
 C 0.8775 0.1331 0.1616   -0.118572
 C 0.90898 0.7994 0.2342   -0.064311
 C 0.9715 0.2556 0.1331   -0.118547
 C 0.09102 0.32522 0.89042   -0.064311
 C 0.0285 0.1616 0.2841   -0.118533
 C 0.90898 0.7342 0.2994   -0.064301
 C 0.9715 0.6331 0.7556   -0.118546
 C 0.09102 0.39042 0.82522   -0.064301
 C 0.0285 0.7841 0.6616   -0.118533
 C 0.4348 0.82522 0.7342   -0.064301
 C 0.8775 0.6616 0.6331   -0.118572
 C 0.5652 0.2994 0.39042   -0.064313
 C 0.1225 0.7556 0.7841   -0.118526
 C 0.4348 0.10958 0.2006   -0.064314
 C 0.8775 0.7159 0.7444   -0.118527
 C 0.5652 0.7658 0.67478   -0.064301
 C 0.1225 0.8669 0.8384   -0.118572
 C 0.09102 0.2006 0.7658   -0.0643
 C 0.0285 0.7444 0.8669   -0.118547
 C 0.90898 0.67478 0.10958   -0.0643
 C 0.9715 0.8384 0.7159   -0.118533
 C 0.08781 0.35912 0.72869   -0.123124
 C 0.07168 0.42122 0.65046   0.6965
 C 0.91219 0.64088 0.27131   -0.123124
 C 0.92832 0.57878 0.34954   0.6965
 C 0.63043 0.27131 0.35912   -0.123141
 C 0.77076 0.34954 0.42122   0.696509
 C 0.36957 0.72869 0.64088   -0.123141
 C 0.22924 0.65046 0.57878   0.696509
 C 0.63043 0.85912 0.77131   -0.123141
 C 0.77076 0.92122 0.84954   0.696509
 C 0.36957 0.14088 0.22869   -0.123141
 C 0.22924 0.07878 0.15046   0.696509
 C 0.91219 0.77131 0.14088   -0.123123
 C 0.92832 0.84954 0.07878   0.696501
 C 0.08781 0.22869 0.85912   -0.123123
 C 0.07168 0.15046 0.92122   0.696501
 N 0.0 0.31711 0.31711   -0.051757
 N 0.0 0.18289 0.18289   -0.051757
 N 0.0 0.68289 0.68289   -0.051757
 N 0.0 0.81711 0.81711   -0.051758
 O 0.06477 0.38674 0.56279   -0.607052
 O 0.93523 0.49802 0.32197   -0.607053
 O 0.82395 0.32197 0.38674   -0.607055
 O 0.17605 0.56279 0.49802   -0.607055
 O 0.82395 0.00198 0.93721   -0.607055
 O 0.17605 0.11326 0.17803   -0.607056
 O 0.93523 0.93721 0.11326   -0.607053
 O 0.06477 0.17803 0.00198   -0.607053
 O 0.93523 0.61326 0.43721   -0.607052
 O 0.06477 0.50198 0.67803   -0.607053
 O 0.17605 0.67803 0.61326   -0.607056
 O 0.82395 0.43721 0.50198   -0.607056
 O 0.17605 0.99802 0.06279   -0.607055
 O 0.82395 0.88674 0.82197   -0.607057
 O 0.06477 0.06279 0.88674   -0.607053
 O 0.93523 0.82197 0.99802   -0.607053
