{'_ref': 'TBD', '_srcid': 'CAKYAQ_clean', 'submitters': [{'name': 'Dalar Nazarian Jeff Camp and David Sholl', 'email': 'dalar@gatech.edu jcamp6@gatech.edu'}], '_method': 'VASP DFT with PBE;DDEC'}
data_CuH12(CN)9
_symmetry_space_group_name_H-M   'P 1'
_cell_length_a   8.21200011
_cell_length_b   10.63799959
_cell_length_c   13.50600000
_cell_angle_alpha   97.53799836
_cell_angle_beta   90.29400148
_cell_angle_gamma   108.61099854
_symmetry_Int_Tables_number   1
_chemical_formula_structural   CuH12(CN)9
_chemical_formula_sum   'Cu2 H24 C18 N18'
_cell_volume   1107.12416066
_cell_formula_units_Z   2
loop_
 _symmetry_equiv_pos_site_id
 _symmetry_equiv_pos_as_xyz
  1  'x, y, z'
loop_
 _atom_site_label
 _atom_site_fract_x
 _atom_site_fract_y
 _atom_site_fract_z
 _atom_site_charge
 Cu 0.0 0.5 0.5   0.415109
 Cu 0.5 0.0 0.0   0.152606
 H 0.4836 0.0542 0.5993   0.089976
 H 0.3467 0.0327 0.5115   0.095199
 H 0.7188 0.9213 0.7174   0.086632
 H 0.7898 0.844 0.7889   0.037702
 H 0.1655 0.0751 0.94   0.005454
 H 0.8666 0.6433 0.6971   0.022417
 H 0.9422 0.0775 0.8112   0.00804
 H 0.0045 0.0616 0.7023   0.086939
 H 0.9152 0.754 0.432   0.046929
 H 0.6685 0.3753 0.3526   0.0228
 H 0.7456 0.2732 0.6092   0.042795
 H 0.3934 0.8572 0.784   0.044985
 H 0.5164 0.9458 0.4007   0.089967
 H 0.6533 0.9673 0.4885   0.095194
 H 0.2812 0.0787 0.2826   0.086617
 H 0.2102 0.156 0.2111   0.037427
 H 0.8345 0.9249 0.06   0.005114
 H 0.1334 0.3567 0.3029   0.022232
 H 0.0578 0.9225 0.1888   0.007968
 H 0.9955 0.9384 0.2977   0.086898
 H 0.0848 0.246 0.568   0.046868
 H 0.3315 0.6247 0.6474   0.022561
 H 0.2544 0.7268 0.3908   0.042788
 H 0.6066 0.1428 0.216   0.044892
 C 0.4683 0.0527 0.5278   -0.081084
 C 0.8166 0.8934 0.7324   -0.038732
 C 0.1968 0.0224 0.888   0.082415
 C 0.8713 0.6901 0.6431   0.154995
 C 0.9727 0.0165 0.7606   -0.009148
 C 0.8979 0.7526 0.4999   0.244239
 C 0.656 0.3276 0.4066   0.285131
 C 0.7011 0.274 0.5459   0.100892
 C 0.3184 0.905 0.8017   0.232674
 C 0.5317 0.9473 0.4722   -0.081007
 C 0.1834 0.1066 0.2676   -0.038634
 C 0.8032 0.9776 0.112   0.082528
 C 0.1287 0.3099 0.3569   0.155055
 C 0.0273 0.9835 0.2394   -0.009128
 C 0.1021 0.2474 0.5001   0.244291
 C 0.344 0.6724 0.5934   0.2852
 C 0.2989 0.726 0.4541   0.100929
 C 0.6816 0.095 0.1983   0.232707
 N 0.5316 0.2161 0.4105   -0.378609
 N 0.3242 0.9722 0.8936   -0.394177
 N 0.8435 0.8052 0.6459   0.17333
 N 0.1214 0.9869 0.7985   0.146409
 N 0.5645 0.1821 0.5   0.167262
 N 0.7654 0.3676 0.4885   -0.392886
 N 0.9083 0.6503 0.5481   -0.390536
 N 0.1986 0.9109 0.7376   -0.384857
 N 0.8608 0.8505 0.5581   -0.390572
 N 0.4684 0.7839 0.5895   -0.378612
 N 0.6758 0.0278 0.1064   -0.394217
 N 0.1565 0.1948 0.3541   0.173302
 N 0.8786 0.0131 0.2015   0.146377
 N 0.4355 0.8179 0.5   0.167249
 N 0.2346 0.6324 0.5115   -0.392902
 N 0.0917 0.3497 0.4519   -0.390553
 N 0.8014 0.0891 0.2624   -0.384864
 N 0.1392 0.1495 0.4419   -0.390575
