{'_ref': 'TBD', '_srcid': 'CAKYAQ_clean', 'submitters': [{'name': 'Dalar Nazarian Jeff Camp and David Sholl', 'email': 'dalar@gatech.edu jcamp6@gatech.edu'}], '_method': 'VASP DFT with PBE;DDEC'}
data_FeH8Au2(C2N)8
_symmetry_space_group_name_H-M   'P 1'
_cell_length_a   7.01300000
_cell_length_b   15.78999989
_cell_length_c   15.79000000
_cell_angle_alpha   120.00000023
_cell_angle_beta   90.00000000
_cell_angle_gamma   90.00000000
_symmetry_Int_Tables_number   1
_chemical_formula_structural   FeH8Au2(C2N)8
_chemical_formula_sum   'Fe3 H24 Au6 C48 N24'
_cell_volume   1514.25398976
_cell_formula_units_Z   3
loop_
 _symmetry_equiv_pos_site_id
 _symmetry_equiv_pos_as_xyz
  1  'x, y, z'
loop_
 _atom_site_label
 _atom_site_fract_x
 _atom_site_fract_y
 _atom_site_fract_z
 _atom_site_charge
 Fe 0.5 0.5 0.5   0.376782
 Fe 0.5 0.0 0.5   0.376782
 Fe 0.5 0.5 0.0   0.376783
 H 0.64026 0.733 0.57531   0.112017
 H 0.81489 0.83789 0.87818   0.107396
 H 0.74755 0.67061 0.85637   0.131406
 H 0.62503 0.53472 0.69397   0.106723
 H 0.64026 0.84231 0.267   0.112017
 H 0.81489 0.04029 0.16211   0.107397
 H 0.74755 0.18576 0.32939   0.131406
 H 0.62503 0.15925 0.46528   0.106723
 H 0.64026 0.42469 0.15769   0.112017
 H 0.81489 0.12182 0.95971   0.107398
 H 0.74755 0.14363 0.81424   0.131406
 H 0.62503 0.30603 0.84075   0.106723
 H 0.35974 0.267 0.42469   0.112017
 H 0.18511 0.16211 0.12182   0.107398
 H 0.25245 0.32939 0.14363   0.131406
 H 0.37497 0.46528 0.30603   0.106723
 H 0.35974 0.15769 0.733   0.112017
 H 0.18511 0.95971 0.83789   0.107398
 H 0.25245 0.81424 0.67061   0.131406
 H 0.37497 0.84075 0.53472   0.106723
 H 0.35974 0.57531 0.84231   0.112017
 H 0.18511 0.87818 0.04029   0.107399
 H 0.25245 0.85637 0.18576   0.131406
 H 0.37497 0.69397 0.15925   0.106723
 Au 7.9999999997e-05 0.73886 0.47778   0.042955
 Au 7.9999999997e-05 0.73892 0.26114   0.042954
 Au 7.9999999997e-05 0.52222 0.26108   0.042953
 Au 0.99992 0.26114 0.52222   0.042955
 Au 0.99992 0.26108 0.73886   0.042954
 Au 0.99992 0.47778 0.73892   0.042953
 C 0.196 0.6489 0.4816   0.042888
 C 0.193 0.4823 0.6503   0.032788
 C 0.664 0.719 0.6387   0.091733
 C 0.73 0.7937 0.7279   -0.05316
 C 0.76 0.7766 0.8051   0.01126
 C 0.723 0.6847 0.7931   -0.170828
 C 0.656 0.61 0.7038   0.111865
 C 0.759 0.8858 0.7458   0.256044
 C 0.196 0.8327 0.3511   0.042888
 C 0.193 0.168 0.5177   0.032788
 C 0.664 0.9197 0.281   0.091733
 C 0.73 0.9342 0.2063   -0.05316
 C 0.76 0.0285 0.2234   0.01126
 C 0.723 0.1084 0.3153   -0.170827
 C 0.656 0.0938 0.39   0.111866
 C 0.759 0.86 0.1142   0.256044
 C 0.196 0.5184 0.1673   0.042889
 C 0.193 0.3497 0.832   0.032788
 C 0.664 0.3613 0.0803   0.091733
 C 0.73 0.2721 0.0658   -0.05316
 C 0.76 0.1949 0.9715   0.01126
 C 0.723 0.2069 0.8916   -0.170828
 C 0.656 0.2962 0.9062   0.111865
 C 0.759 0.2542 0.14   0.256044
 C 0.804 0.3511 0.5184   0.042889
 C 0.807 0.5177 0.3497   0.032788
 C 0.336 0.281 0.3613   0.091733
 C 0.27 0.2063 0.2721   -0.05316
 C 0.24 0.2234 0.1949   0.011261
 C 0.277 0.3153 0.2069   -0.170827
 C 0.344 0.39 0.2962   0.111865
 C 0.241 0.1142 0.2542   0.256045
 C 0.804 0.1673 0.6489   0.042889
 C 0.807 0.832 0.4823   0.032788
 C 0.336 0.0803 0.719   0.091733
 C 0.27 0.0658 0.7937   -0.05316
 C 0.24 0.9715 0.7766   0.011261
 C 0.277 0.8916 0.6847   -0.170827
 C 0.344 0.9062 0.61   0.111866
 C 0.241 0.14 0.8858   0.256045
 C 0.804 0.4816 0.8327   0.042889
 C 0.807 0.6503 0.168   0.032789
 C 0.336 0.6387 0.9197   0.091733
 C 0.27 0.7279 0.9342   -0.05316
 C 0.24 0.8051 0.0285   0.01126
 C 0.277 0.7931 0.1084   -0.170828
 C 0.344 0.7038 0.0938   0.111865
 C 0.241 0.7458 0.86   0.256045
 N 0.305 0.5974 0.4848   -0.245582
 N 0.3073 0.4847 0.5969   -0.261474
 N 0.6269 0.6272 0.6267   -0.14613
 N 0.772 0.9742 0.7692   -0.358298
 N 0.305 0.8874 0.4026   -0.245582
 N 0.3073 0.1122 0.5153   -0.261474
 N 0.6269 0.9995 0.3728   -0.14613
 N 0.772 0.795 0.0258   -0.358297
 N 0.305 0.5152 0.1126   -0.245582
 N 0.3073 0.4031 0.8878   -0.261474
 N 0.6269 0.3733 0.000500000000002   -0.14613
 N 0.772 0.2308 0.205   -0.358297
 N 0.695 0.4026 0.5152   -0.245582
 N 0.6927 0.5153 0.4031   -0.261474
 N 0.3731 0.3728 0.3733   -0.14613
 N 0.228 0.0258 0.2308   -0.358297
 N 0.695 0.1126 0.5974   -0.245582
 N 0.6927 0.8878 0.4847   -0.261474
 N 0.3731 0.000500000000002 0.6272   -0.14613
 N 0.228 0.205 0.9742   -0.358297
 N 0.695 0.4848 0.8874   -0.245582
 N 0.6927 0.5969 0.1122   -0.261474
 N 0.3731 0.6267 0.9995   -0.14613
 N 0.228 0.7692 0.795   -0.358297
