{'_ref': 'TBD', '_srcid': 'CAKYAQ_clean', 'submitters': [{'name': 'Dalar Nazarian Jeff Camp and David Sholl', 'email': 'dalar@gatech.edu jcamp6@gatech.edu'}], '_method': 'VASP DFT with PBE;DDEC'}
data_Co2H26C51(O2F3)6
_symmetry_space_group_name_H-M   'P 1'
_cell_length_a   7.19920000
_cell_length_b   18.95029949
_cell_length_c   20.40430000
_cell_angle_alpha   106.64799897
_cell_angle_beta   90.00000000
_cell_angle_gamma   90.00000000
_symmetry_Int_Tables_number   1
_chemical_formula_structural   Co2H26C51(O2F3)6
_chemical_formula_sum   'Co4 H52 C102 O24 F36'
_cell_volume   2667.01285181
_cell_formula_units_Z   2
loop_
 _symmetry_equiv_pos_site_id
 _symmetry_equiv_pos_as_xyz
  1  'x, y, z'
loop_
 _atom_site_label
 _atom_site_fract_x
 _atom_site_fract_y
 _atom_site_fract_z
 _atom_site_charge
 Co 0.66867 0.02618 0.47548   1.01429
 Co 0.66867 0.47382 0.02452   1.01429
 Co 0.33133 0.97382 0.52452   1.014291
 Co 0.33133 0.52618 0.97548   1.014291
 H 0.9852 0.1697 0.5831   0.105009
 H 0.4385 0.254 0.5208   0.090577
 H 0.9714 0.4116 0.8342   0.109121
 H 0.8554 0.2858 0.617   0.113494
 H 0.3105 0.3709 0.5577   0.098867
 H 0.4993 0.4817 0.7693   0.102068
 H 0.095 0.3897 0.7271   0.114783
 H 0.1414 0.0889 0.3669   0.092491
 H 0.8304 0.2694 0.3899   0.088927
 H 0.0307 0.3086 0.3214   0.106961
 H 0.3425 0.1308 0.2986   0.098626
 H 0.6275 0.4617 0.662   0.087442
 H 0.6197 0.1703 0.4688   0.392466
 H 0.9852 0.3303 0.9169   0.105009
 H 0.4385 0.246 0.9792   0.090577
 H 0.9714 0.0884 0.6658   0.109122
 H 0.8554 0.2142 0.883   0.113494
 H 0.3105 0.1291 0.9423   0.098867
 H 0.4993 0.0183 0.7307   0.102068
 H 0.095 0.1103 0.7729   0.114782
 H 0.1414 0.4111 0.1331   0.092491
 H 0.8304 0.2306 0.1101   0.088927
 H 0.0307 0.1914 0.1786   0.106961
 H 0.3425 0.3692 0.2014   0.098626
 H 0.6275 0.0383 0.838   0.087442
 H 0.6197 0.3297 0.0312   0.392465
 H 0.0148 0.8303 0.4169   0.105009
 H 0.5615 0.746 0.4792   0.090577
 H 0.0286 0.5884 0.1658   0.109121
 H 0.1446 0.7142 0.383   0.113494
 H 0.6895 0.6291 0.4423   0.098867
 H 0.5007 0.5183 0.2307   0.102068
 H 0.905 0.6103 0.2729   0.114783
 H 0.8586 0.9111 0.6331   0.092491
 H 0.1696 0.7306 0.6101   0.088927
 H 0.9693 0.6914 0.6786   0.106961
 H 0.6575 0.8692 0.7014   0.098626
 H 0.3725 0.5383 0.338   0.087442
 H 0.3803 0.8297 0.5312   0.392466
 H 0.0148 0.6697 0.0831   0.105009
 H 0.5615 0.754 0.0208   0.090577
 H 0.0286 0.9116 0.3342   0.109122
 H 0.1446 0.7858 0.117   0.113494
 H 0.6895 0.8709 0.0577   0.098867
 H 0.5007 0.9817 0.2693   0.102068
 H 0.905 0.8897 0.2271   0.114782
 H 0.8586 0.5889 0.8669   0.092491
 H 0.1696 0.7694 0.8899   0.088927
 H 0.9693 0.8086 0.8214   0.106961
 H 0.6575 0.6308 0.7986   0.098626
 H 0.3725 0.9617 0.162   0.087442
 H 0.3803 0.6703 0.9688   0.392465
 C 0.6391 0.46311 0.88201   0.671349
 C 0.3146 0.1262 0.5314   0.700297
 C 0.0514 0.21001 0.57821   -0.023432
 C 0.2316 0.201 0.5503   -0.155379
 C 0.3222 0.2603 0.5415   -0.006553
 C 0.8276 0.145 0.4233   0.679804
 C 0.8399 0.4183 0.5565   0.693341
 C 0.1136 0.4806 0.6257   0.697295
 C 0.4477 0.3106 0.2955   0.689655
 C 0.7216 0.44758 0.81218   -0.148634
 C 0.9016 0.4212 0.7994   -0.012695
 C 0.9758 0.41577 0.61457   -0.309749
 C 0.0688 0.34043 0.59163   0.084041
 C 0.8753 0.42594 0.68324   0.081127
 C 0.9743 0.2797 0.5984   -0.145419
 C 0.2444 0.3306 0.5628   -0.15045
 C 0.6195 0.4634 0.7608   -0.013341
 C 0.976 0.4092 0.7358   -0.144927
 C 0.1173 0.133 0.3571   0.017438
 C 0.9609 0.1741 0.384   -0.189999
 C 0.9318 0.2404 0.3707   0.011521
 C 0.0511 0.2635 0.3296   -0.136225
 C 0.2027 0.2214 0.2995   0.098336
 C 0.2366 0.158 0.3157   -0.144503
 C 0.6972 0.45173 0.69673   -0.150687
 C 0.6391 0.03689 0.61799   0.671347
 C 0.3146 0.3738 0.9686   0.700296
 C 0.0514 0.28999 0.92179   -0.023433
 C 0.2316 0.299 0.9497   -0.15538
 C 0.3222 0.2397 0.9585   -0.006552
 C 0.8276 0.355 0.0767   0.679804
 C 0.8399 0.0817 0.9435   0.693341
 C 0.1136 0.0194 0.8743   0.697295
 C 0.4477 0.1894 0.2045   0.689655
 C 0.7216 0.05242 0.68782   -0.148635
 C 0.9016 0.0788 0.7006   -0.012696
 C 0.9758 0.08423 0.88543   -0.309749
 C 0.0688 0.15957 0.90837   0.084041
 C 0.8753 0.07406 0.81676   0.081127
 C 0.9743 0.2203 0.9016   -0.145419
 C 0.2444 0.1694 0.9372   -0.15045
 C 0.6195 0.0366 0.7392   -0.013341
 C 0.976 0.0908 0.7642   -0.144927
 C 0.1173 0.367 0.1429   0.017438
 C 0.9609 0.3259 0.116   -0.189999
 C 0.9318 0.2596 0.1293   0.011521
 C 0.0511 0.2365 0.1704   -0.136225
 C 0.2027 0.2786 0.2005   0.098336
 C 0.2366 0.342 0.1843   -0.144503
 C 0.6972 0.04827 0.80327   -0.150687
 C 0.3609 0.53689 0.11799   0.671349
 C 0.6854 0.8738 0.4686   0.700297
 C 0.9486 0.78999 0.42179   -0.023432
 C 0.7684 0.799 0.4497   -0.155379
 C 0.6778 0.7397 0.4585   -0.006553
 C 0.1724 0.855 0.5767   0.679804
 C 0.1601 0.5817 0.4435   0.693341
 C 0.8864 0.5194 0.3743   0.697295
 C 0.5523 0.6894 0.7045   0.689655
 C 0.2784 0.55242 0.18782   -0.148634
 C 0.0984 0.5788 0.2006   -0.012695
 C 0.0242 0.58423 0.38543   -0.309749
 C 0.9312 0.65957 0.40837   0.084041
 C 0.1247 0.57406 0.31676   0.081127
 C 0.0257 0.7203 0.4016   -0.145419
 C 0.7556 0.6694 0.4372   -0.15045
 C 0.3805 0.5366 0.2392   -0.013341
 C 0.024 0.5908 0.2642   -0.144927
 C 0.8827 0.867 0.6429   0.017438
 C 0.0391 0.8259 0.616   -0.189999
 C 0.0682 0.7596 0.6293   0.011521
 C 0.9489 0.7365 0.6704   -0.136225
 C 0.7973 0.7786 0.7005   0.098336
 C 0.7634 0.842 0.6843   -0.144503
 C 0.3028 0.54827 0.30327   -0.150687
 C 0.3609 0.96311 0.38201   0.671347
 C 0.6854 0.6262 0.0314   0.700296
 C 0.9486 0.71001 0.07821   -0.023433
 C 0.7684 0.701 0.0503   -0.15538
 C 0.6778 0.7603 0.0415   -0.006552
 C 0.1724 0.645 0.9233   0.679804
 C 0.1601 0.9183 0.0565   0.693341
 C 0.8864 0.9806 0.1257   0.697295
 C 0.5523 0.8106 0.7955   0.689655
 C 0.2784 0.94758 0.31218   -0.148635
 C 0.0984 0.9212 0.2994   -0.012696
 C 0.0242 0.91577 0.11457   -0.309749
 C 0.9312 0.84043 0.09163   0.084041
 C 0.1247 0.92594 0.18324   0.081127
 C 0.0257 0.7797 0.0984   -0.145419
 C 0.7556 0.8306 0.0628   -0.15045
 C 0.3805 0.9634 0.2608   -0.013341
 C 0.024 0.9092 0.2358   -0.144926
 C 0.8827 0.633 0.8571   0.017438
 C 0.0391 0.6741 0.884   -0.189999
 C 0.0682 0.7404 0.8707   0.011521
 C 0.9489 0.7635 0.8296   -0.136225
 C 0.7973 0.7214 0.7995   0.098336
 C 0.7634 0.658 0.8157   -0.144503
 C 0.3028 0.95173 0.19673   -0.150687
 C 0.3244 0.25 0.25   -0.301677
 C 0.6756 0.75 0.75   -0.301677
 O 0.7345 0.44594 0.92714   -0.570324
 O 0.4844 0.49449 0.89179   -0.58595
 O 0.4734 0.11728 0.50362   -0.662523
 O 0.2268 0.07541 0.54324   -0.562342
 O 0.6835 0.18713 0.44353   -0.498026
 O 0.8475 0.08651 0.43569   -0.501768
 O 0.7345 0.05406 0.57286   -0.570324
 O 0.4844 0.00551 0.60821   -0.58595
 O 0.4734 0.38272 0.99638   -0.662523
 O 0.2268 0.42459 0.95676   -0.562342
 O 0.6835 0.31287 0.05647   -0.498026
 O 0.8475 0.41349 0.06431   -0.501768
 O 0.2655 0.55406 0.07286   -0.570324
 O 0.5156 0.50551 0.10821   -0.58595
 O 0.5266 0.88272 0.49638   -0.662523
 O 0.7732 0.92459 0.45676   -0.562342
 O 0.3165 0.81287 0.55647   -0.498026
 O 0.1525 0.91349 0.56431   -0.501768
 O 0.2655 0.94594 0.42714   -0.570324
 O 0.5156 0.99449 0.39179   -0.58595
 O 0.5266 0.61728 0.00362   -0.662523
 O 0.7732 0.57541 0.04324   -0.562342
 O 0.3165 0.68713 0.94353   -0.498026
 O 0.1525 0.58651 0.93569   -0.501768
 F 0.701 0.37194 0.55159   -0.181039
 F 0.9249 0.40026 0.49645   -0.203604
 F 0.765 0.48416 0.56467   -0.201852
 F 0.1847 0.48673 0.56777   -0.205325
 F 0.2514 0.47458 0.66558   -0.177887
 F 0.0297 0.54436 0.65618   -0.212985
 F 0.3538 0.37103 0.32523   -0.177065
 F 0.5885 0.33043 0.25998   -0.21457
 F 0.5255 0.28896 0.34651   -0.201232
 F 0.701 0.12806 0.94841   -0.181039
 F 0.9249 0.09974 0.00355   -0.203604
 F 0.765 0.01584 0.93533   -0.201852
 F 0.1847 0.01327 0.93223   -0.205325
 F 0.2514 0.02542 0.83442   -0.177887
 F 0.0297 0.95564 0.84382   -0.212985
 F 0.3538 0.12897 0.17477   -0.177065
 F 0.5885 0.16957 0.24002   -0.21457
 F 0.5255 0.21104 0.15349   -0.201231
 F 0.299 0.62806 0.44841   -0.181039
 F 0.0751 0.59974 0.50355   -0.203604
 F 0.235 0.51584 0.43533   -0.201852
 F 0.8153 0.51327 0.43223   -0.205326
 F 0.7486 0.52542 0.33442   -0.177887
 F 0.9703 0.45564 0.34382   -0.212984
 F 0.6462 0.62897 0.67477   -0.177064
 F 0.4115 0.66957 0.74002   -0.21457
 F 0.4745 0.71104 0.65349   -0.201232
 F 0.299 0.87194 0.05159   -0.181039
 F 0.0751 0.90026 0.99645   -0.203604
 F 0.235 0.98416 0.06467   -0.201852
 F 0.8153 0.98673 0.06777   -0.205326
 F 0.7486 0.97458 0.16558   -0.177887
 F 0.9703 0.04436 0.15618   -0.212984
 F 0.6462 0.87103 0.82523   -0.177064
 F 0.4115 0.83043 0.75998   -0.214569
 F 0.4745 0.78896 0.84651   -0.201231
