{'_ref': 'TBD', '_srcid': 'CAKYAQ_clean', 'submitters': [{'name': 'Dalar Nazarian Jeff Camp and David Sholl', 'email': 'dalar@gatech.edu jcamp6@gatech.edu'}], '_method': 'VASP DFT with PBE;DDEC'}
data_Li2Zn2H18C27(NO7)2
_symmetry_space_group_name_H-M   'P 1'
_cell_length_a   10.85600000
_cell_length_b   16.59200000
_cell_length_c   16.59200000
_cell_angle_alpha   90.00000000
_cell_angle_beta   90.00000000
_cell_angle_gamma   90.00000000
_symmetry_Int_Tables_number   1
_chemical_formula_structural   Li2Zn2H18C27(NO7)2
_chemical_formula_sum   'Li8 Zn8 H72 C108 N8 O56'
_cell_volume   2988.59670118
_cell_formula_units_Z   4
loop_
 _symmetry_equiv_pos_site_id
 _symmetry_equiv_pos_as_xyz
  1  'x, y, z'
loop_
 _atom_site_label
 _atom_site_fract_x
 _atom_site_fract_y
 _atom_site_fract_z
 _atom_site_charge
 Li 0.8145 0.0752 0.2465   0.918406
 Li 0.3145 0.9248 0.7535   0.918406
 Li 0.5645 0.2535 0.5752   0.918406
 Li 0.0645 0.7465 0.4248   0.918406
 Li 0.9355 0.4248 0.7465   0.918406
 Li 0.4355 0.5752 0.2535   0.918406
 Li 0.1855 0.2465 0.0752   0.918406
 Li 0.6855 0.7535 0.9248   0.918406
 Zn 0.90064 0.9197 0.34517   1.06195
 Zn 0.40064 0.0803 0.65483   1.06195
 Zn 0.65064 0.15483 0.4197   1.06195
 Zn 0.15064 0.84517 0.5803   1.06195
 Zn 0.84936 0.5803 0.84517   1.06195
 Zn 0.34936 0.4197 0.15483   1.06195
 Zn 0.09936 0.34517 0.9197   1.06195
 Zn 0.59936 0.65483 0.0803   1.06195
 H 0.657 0.8712 0.2453   0.116168
 H 0.37 0.7338 0.3208   0.101484
 H 0.458 0.9365 0.443   0.113296
 H 0.826 0.1774 0.0218   0.153099
 H 0.7733 0.0964 0.98   0.130689
 H 0.6045 0.1616 0.9331   0.090863
 H 0.6752 0.2441 0.9547   0.093248
 H 0.4675 0.1993 0.0281   0.084339
 H 0.5614 0.2637 0.0667   0.074539
 H 0.157 0.1288 0.7547   0.116168
 H 0.87 0.2662 0.6792   0.101484
 H 0.958 0.0635 0.557   0.113296
 H 0.326 0.8226 0.9782   0.153099
 H 0.2733 0.9036 0.02   0.130689
 H 0.1045 0.8384 0.0669   0.090863
 H 0.1752 0.7559 0.0453   0.093248
 H 0.9675 0.8007 0.9719   0.084339
 H 0.0614 0.7363 0.9333   0.074539
 H 0.407 0.2547 0.3712   0.116168
 H 0.12 0.1792 0.2338   0.101484
 H 0.208 0.057 0.4365   0.113297
 H 0.576 0.4782 0.6774   0.153099
 H 0.5233 0.52 0.5964   0.130689
 H 0.3545 0.5669 0.6616   0.090863
 H 0.4252 0.5453 0.7441   0.093248
 H 0.2175 0.4719 0.6993   0.084339
 H 0.3114 0.4333 0.7637   0.074539
 H 0.907 0.7453 0.6288   0.116168
 H 0.62 0.8208 0.7662   0.101484
 H 0.708 0.943 0.5635   0.113297
 H 0.076 0.5218 0.3226   0.153099
 H 0.0233 0.48 0.4036   0.130689
 H 0.8545 0.4331 0.3384   0.090863
 H 0.9252 0.4547 0.2559   0.093248
 H 0.7175 0.5281 0.3007   0.084339
 H 0.8114 0.5667 0.2363   0.074539
 H 0.093 0.6288 0.7453   0.116168
 H 0.38 0.7662 0.8208   0.101484
 H 0.292 0.5635 0.943   0.113296
 H 0.924 0.3226 0.5218   0.153098
 H 0.9767 0.4036 0.48   0.130687
 H 0.1455 0.3384 0.4331   0.090862
 H 0.0748 0.2559 0.4547   0.093248
 H 0.2825 0.3007 0.5281   0.084339
 H 0.1886 0.2363 0.5667   0.074539
 H 0.593 0.3712 0.2547   0.116168
 H 0.88 0.2338 0.1792   0.101484
 H 0.792 0.4365 0.057   0.113296
 H 0.424 0.6774 0.4782   0.153098
 H 0.4767 0.5964 0.52   0.130687
 H 0.6455 0.6616 0.5669   0.090862
 H 0.5748 0.7441 0.5453   0.093248
 H 0.7825 0.6993 0.4719   0.084339
 H 0.6886 0.7637 0.4333   0.074539
 H 0.343 0.2453 0.8712   0.116168
 H 0.63 0.3208 0.7338   0.101484
 H 0.542 0.443 0.9365   0.113297
 H 0.174 0.0218 0.1774   0.153098
 H 0.2267 0.98 0.0964   0.130687
 H 0.3955 0.9331 0.1616   0.090862
 H 0.3248 0.9547 0.2441   0.093248
 H 0.5325 0.0281 0.1993   0.084339
 H 0.4386 0.0667 0.2637   0.074539
 H 0.843 0.7547 0.1288   0.116168
 H 0.13 0.6792 0.2662   0.101484
 H 0.042 0.557 0.0635   0.113297
 H 0.674 0.9782 0.8226   0.153098
 H 0.7267 0.02 0.9036   0.130687
 H 0.8955 0.0669 0.8384   0.090862
 H 0.8248 0.0453 0.7559   0.093248
 H 0.0325 0.9719 0.8007   0.084339
 H 0.9386 0.9333 0.7363   0.074539
 C 0.6434 0.9905 0.3527   0.74659
 C 0.5374 0.7365 0.2034   0.694397
 C 0.2994 0.8153 0.4494   0.696261
 C 0.5691 0.9145 0.3449   -0.192052
 C 0.5913 0.8615 0.2818   0.009154
 C 0.5156 0.793 0.2724   -0.179295
 C 0.4214 0.7798 0.3269   0.016127
 C 0.4007 0.8328 0.3908   -0.16179
 C 0.4728 0.9 0.3999   0.026107
 C 0.6967 0.1187 0.0918   0.516994
 C 0.7518 0.1436 0.0138   -0.288354
 C 0.6447 0.1925 0.9769   -0.135084
 C 0.5533 0.2079 0.0463   -0.053423
 C 0.1434 0.0095 0.6473   0.74659
 C 0.0374 0.2635 0.7966   0.694397
 C 0.7994 0.1847 0.5506   0.696261
 C 0.0691 0.0855 0.6551   -0.192052
 C 0.0913 0.1385 0.7182   0.009154
 C 0.0156 0.207 0.7276   -0.179295
 C 0.9214 0.2202 0.6731   0.016127
 C 0.9007 0.1672 0.6092   -0.16179
 C 0.9728 0.1 0.6001   0.026107
 C 0.1967 0.8813 0.9082   0.516994
 C 0.2518 0.8564 0.9862   -0.288354
 C 0.1447 0.8075 0.0231   -0.135084
 C 0.0533 0.7921 0.9537   -0.053423
 C 0.3934 0.1473 0.4905   0.74659
 C 0.2874 0.2966 0.2365   0.694397
 C 0.0494 0.0506 0.3153   0.696261
 C 0.3191 0.1551 0.4145   -0.192052
 C 0.3413 0.2182 0.3615   0.009154
 C 0.2656 0.2276 0.293   -0.179295
 C 0.1714 0.1731 0.2798   0.016127
 C 0.1507 0.1092 0.3328   -0.16179
 C 0.2228 0.1001 0.4   0.026107
 C 0.4467 0.4082 0.6187   0.516994
 C 0.5018 0.4862 0.6436   -0.288354
 C 0.3947 0.5231 0.6925   -0.135084
 C 0.3033 0.4537 0.7079   -0.053423
 C 0.8934 0.8527 0.5095   0.74659
 C 0.7874 0.7034 0.7635   0.694397
 C 0.5494 0.9494 0.6847   0.696261
 C 0.8191 0.8449 0.5855   -0.192052
 C 0.8413 0.7818 0.6385   0.009154
 C 0.7656 0.7724 0.707   -0.179295
 C 0.6714 0.8269 0.7202   0.016127
 C 0.6507 0.8908 0.6672   -0.16179
 C 0.7228 0.8999 0.6   0.026107
 C 0.9467 0.5918 0.3813   0.516994
 C 0.0018 0.5138 0.3564   -0.288354
 C 0.8947 0.4769 0.3075   -0.135084
 C 0.8033 0.5463 0.2921   -0.053423
 C 0.1066 0.5095 0.8527   0.74659
 C 0.2126 0.7635 0.7034   0.694397
 C 0.4506 0.6847 0.9494   0.696261
 C 0.1809 0.5855 0.8449   -0.192052
 C 0.1587 0.6385 0.7818   0.009154
 C 0.2344 0.707 0.7724   -0.179295
 C 0.3286 0.7202 0.8269   0.016127
 C 0.3493 0.6672 0.8908   -0.16179
 C 0.2772 0.6 0.8999   0.026107
 C 0.0533 0.3813 0.5918   0.516994
 C 0.9982 0.3564 0.5138   -0.288353
 C 0.1053 0.3075 0.4769   -0.135084
 C 0.1967 0.2921 0.5463   -0.053423
 C 0.6066 0.4905 0.1473   0.74659
 C 0.7126 0.2365 0.2966   0.694398
 C 0.9506 0.3153 0.0506   0.696261
 C 0.6809 0.4145 0.1551   -0.192052
 C 0.6587 0.3615 0.2182   0.009154
 C 0.7344 0.293 0.2276   -0.179295
 C 0.8286 0.2798 0.1731   0.016127
 C 0.8493 0.3328 0.1092   -0.16179
 C 0.7772 0.4 0.1001   0.026107
 C 0.5533 0.6187 0.4082   0.516994
 C 0.4982 0.6436 0.4862   -0.288353
 C 0.6053 0.6925 0.5231   -0.135084
 C 0.6967 0.7079 0.4537   -0.053423
 C 0.3566 0.3527 0.9905   0.74659
 C 0.4626 0.2034 0.7365   0.694397
 C 0.7006 0.4494 0.8153   0.696261
 C 0.4309 0.3449 0.9145   -0.192052
 C 0.4087 0.2818 0.8615   0.009154
 C 0.4844 0.2724 0.793   -0.179295
 C 0.5786 0.3269 0.7798   0.016127
 C 0.5993 0.3908 0.8328   -0.16179
 C 0.5272 0.3999 0.9   0.026107
 C 0.3033 0.0918 0.1187   0.516994
 C 0.2482 0.0138 0.1436   -0.288353
 C 0.3553 0.9769 0.1925   -0.135084
 C 0.4467 0.0463 0.2079   -0.053423
 C 0.8566 0.6473 0.0095   0.74659
 C 0.9626 0.7966 0.2635   0.694398
 C 0.2006 0.5506 0.1847   0.696261
 C 0.9309 0.6551 0.0855   -0.192052
 C 0.9087 0.7182 0.1385   0.009154
 C 0.9844 0.7276 0.207   -0.179295
 C 0.0786 0.6731 0.2202   0.016127
 C 0.0993 0.6092 0.1672   -0.16179
 C 0.0272 0.6001 0.1   0.026107
 C 0.8033 0.9082 0.8813   0.516994
 C 0.7482 0.9862 0.8564   -0.288353
 C 0.8553 0.0231 0.8075   -0.135084
 C 0.9467 0.9537 0.7921   -0.053423
 C 0.5 0.161 0.161   0.030336
 C 0.0 0.839 0.839   0.030336
 C 0.25 0.339 0.661   0.030336
 C 0.75 0.661 0.339   0.030336
 N 0.5837 0.1547 0.1034   -0.067242
 N 0.0837 0.8453 0.8966   -0.067242
 N 0.3337 0.3966 0.6547   -0.067242
 N 0.8337 0.6034 0.3453   -0.067242
 N 0.1663 0.3453 0.6034   -0.067243
 N 0.6663 0.6547 0.3966   -0.067243
 N 0.4163 0.1034 0.1547   -0.067243
 N 0.9163 0.8966 0.8453   -0.067243
 O 0.7519 0.99328 0.32381   -0.739961
 O 0.5896 0.04891 0.3851   -0.583747
 O 0.6105 0.7543 0.14871   -0.572653
 O 0.4784 0.671 0.202   -0.755904
 O 0.2346 0.7535 0.4415   -0.703088
 O 0.2863 0.8663 0.507   -0.599883
 O 0.7508 0.0673 0.1407   -0.626404
 O 0.2519 0.00672 0.67619   -0.739961
 O 0.0896 0.95109 0.6149   -0.583747
 O 0.1105 0.2457 0.85129   -0.572653
 O 0.9784 0.329 0.798   -0.755904
 O 0.7346 0.2465 0.5585   -0.703088
 O 0.7863 0.1337 0.493   -0.599883
 O 0.2508 0.9327 0.8593   -0.626404
 O 0.5019 0.17619 0.49328   -0.739961
 O 0.3396 0.1149 0.54891   -0.583747
 O 0.3605 0.35129 0.2543   -0.572653
 O 0.2284 0.298 0.171   -0.755904
 O 0.9846 0.0585 0.2535   -0.703088
 O 0.0363 0.993 0.3663   -0.599883
 O 0.5008 0.3593 0.5673   -0.626404
 O 0.0019 0.82381 0.50672   -0.739961
 O 0.8396 0.8851 0.45109   -0.583747
 O 0.8605 0.64871 0.7457   -0.572653
 O 0.7284 0.702 0.829   -0.755904
 O 0.4846 0.9415 0.7465   -0.703088
 O 0.5363 0.007 0.6337   -0.599883
 O 0.000799999999998 0.6407 0.4327   -0.626404
 O 0.9981 0.50672 0.82381   -0.73996
 O 0.1604 0.45109 0.8851   -0.583747
 O 0.1395 0.7457 0.64871   -0.572653
 O 0.2716 0.829 0.702   -0.755904
 O 0.5154 0.7465 0.9415   -0.703088
 O 0.4637 0.6337 0.007   -0.599883
 O 0.9992 0.4327 0.6407   -0.626404
 O 0.4981 0.49328 0.17619   -0.73996
 O 0.6604 0.54891 0.1149   -0.583747
 O 0.6395 0.2543 0.35129   -0.572653
 O 0.7716 0.171 0.298   -0.755904
 O 0.0154 0.2535 0.0585   -0.703088
 O 0.9637 0.3663 0.993   -0.599883
 O 0.4992 0.5673 0.3593   -0.626404
 O 0.2481 0.32381 0.99328   -0.73996
 O 0.4104 0.3851 0.04891   -0.583747
 O 0.3895 0.14871 0.7543   -0.572653
 O 0.5216 0.202 0.671   -0.755904
 O 0.7654 0.4415 0.7535   -0.703088
 O 0.7137 0.507 0.8663   -0.599883
 O 0.2492 0.1407 0.0673   -0.626404
 O 0.7481 0.67619 0.00672   -0.73996
 O 0.9104 0.6149 0.95109   -0.583747
 O 0.8895 0.85129 0.2457   -0.572653
 O 0.0216 0.798 0.329   -0.755904
 O 0.2654 0.5585 0.2465   -0.703088
 O 0.2137 0.493 0.1337   -0.599883
 O 0.7492 0.8593 0.9327   -0.626404
