{'_ref': 'TBD', '_srcid': 'CAKYAQ_clean', 'submitters': [{'name': 'Dalar Nazarian Jeff Camp and David Sholl', 'email': 'dalar@gatech.edu jcamp6@gatech.edu'}], '_method': 'VASP DFT with PBE;DDEC'}
data_LiZnH3C9O7
_symmetry_space_group_name_H-M   'P 1'
_cell_length_a   10.78330000
_cell_length_b   16.63320000
_cell_length_c   16.63320000
_cell_angle_alpha   90.00000000
_cell_angle_beta   90.00000000
_cell_angle_gamma   90.00000000
_symmetry_Int_Tables_number   1
_chemical_formula_structural   LiZnH3C9O7
_chemical_formula_sum   'Li8 Zn8 H24 C72 O56'
_cell_volume   2983.34381838
_cell_formula_units_Z   8
loop_
 _symmetry_equiv_pos_site_id
 _symmetry_equiv_pos_as_xyz
  1  'x, y, z'
loop_
 _atom_site_label
 _atom_site_fract_x
 _atom_site_fract_y
 _atom_site_fract_z
 _atom_site_charge
 Li 0.9393 0.2558 0.5676   0.839708
 Li 0.4393 0.7442 0.4324   0.839708
 Li 0.1893 0.9324 0.7558   0.839708
 Li 0.6893 0.0676 0.2442   0.839708
 Li 0.3107 0.2442 0.0676   0.839716
 Li 0.8107 0.7558 0.9324   0.839716
 Li 0.0607 0.5676 0.2558   0.839716
 Li 0.5607 0.4324 0.7442   0.839716
 Zn 0.85041 0.1521 0.4148   1.056388
 Zn 0.35041 0.8479 0.5852   1.056388
 Zn 0.10041 0.0852 0.6521   1.056388
 Zn 0.60041 0.9148 0.3479   1.056388
 Zn 0.39959 0.3479 0.9148   1.056389
 Zn 0.89959 0.6521 0.0852   1.056389
 Zn 0.14959 0.4148 0.1521   1.056389
 Zn 0.64959 0.5852 0.8479   1.056389
 H 0.0978 0.2501 0.3659   0.102304
 H 0.5978 0.7499 0.6341   0.102304
 H 0.3478 0.1341 0.7501   0.102304
 H 0.8478 0.8659 0.2499   0.102304
 H 0.1522 0.2499 0.8659   0.102304
 H 0.6522 0.7501 0.1341   0.102304
 H 0.9022 0.3659 0.2501   0.102304
 H 0.4022 0.6341 0.7499   0.102304
 H 0.3735 0.1688 0.2279   0.089841
 H 0.8735 0.8312 0.7721   0.089841
 H 0.6235 0.2721 0.6688   0.089841
 H 0.1235 0.7279 0.3312   0.089841
 H 0.8765 0.3312 0.7279   0.089849
 H 0.3765 0.6688 0.2721   0.089849
 H 0.6265 0.2279 0.1688   0.089849
 H 0.1265 0.7721 0.8312   0.089849
 H 0.2928 0.0552 0.4329   0.103353
 H 0.7928 0.9448 0.5671   0.103353
 H 0.5428 0.0671 0.5552   0.103356
 H 0.0428 0.9329 0.4448   0.103356
 H 0.9572 0.4448 0.9329   0.103353
 H 0.4572 0.5552 0.0671   0.103353
 H 0.7072 0.4329 0.0552   0.103356
 H 0.2072 0.5671 0.9448   0.103356
 C 0.108 0.1448 0.4864   0.765806
 C 0.608 0.8552 0.5136   0.765806
 C 0.358 0.0136 0.6448   0.765806
 C 0.858 0.9864 0.3552   0.765806
 C 0.142 0.3552 0.9864   0.765806
 C 0.642 0.6448 0.0136   0.765806
 C 0.892 0.4864 0.1448   0.765806
 C 0.392 0.5136 0.8552   0.765806
 C 0.2123 0.2879 0.231   0.719479
 C 0.7123 0.7121 0.769   0.719479
 C 0.4623 0.269 0.7879   0.719479
 C 0.9623 0.731 0.2121   0.719479
 C 0.0377 0.2121 0.731   0.719478
 C 0.5377 0.7879 0.269   0.719478
 C 0.7877 0.231 0.2879   0.719478
 C 0.2877 0.769 0.7121   0.719478
 C 0.4495 0.044 0.31   0.704108
 C 0.9495 0.956 0.69   0.704108
 C 0.6995 0.19 0.544   0.704108
 C 0.1995 0.81 0.456   0.704108
 C 0.8005 0.456 0.81   0.704108
 C 0.3005 0.544 0.19   0.704108
 C 0.5505 0.31 0.044   0.704108
 C 0.0505 0.69 0.956   0.704108
 C 0.1809 0.1508 0.4109   -0.199159
 C 0.6809 0.8492 0.5891   -0.199159
 C 0.4309 0.0891 0.6508   -0.199158
 C 0.9309 0.9109 0.3492   -0.199158
 C 0.0691 0.3492 0.9109   -0.199158
 C 0.5691 0.6508 0.0891   -0.199158
 C 0.8191 0.4109 0.1508   -0.199158
 C 0.3191 0.5891 0.8492   -0.199158
 C 0.1604 0.213 0.3562   0.039234
 C 0.6604 0.787 0.6438   0.039234
 C 0.4104 0.1438 0.713   0.039234
 C 0.9104 0.8562 0.287   0.039234
 C 0.0896 0.287 0.8562   0.039234
 C 0.5896 0.713 0.1438   0.039234
 C 0.8396 0.3562 0.213   0.039234
 C 0.3396 0.6438 0.787   0.039234
 C 0.2332 0.22 0.287   -0.177487
 C 0.7332 0.78 0.713   -0.177487
 C 0.4832 0.213 0.72   -0.177487
 C 0.9832 0.787 0.28   -0.177487
 C 0.0168 0.28 0.787   -0.177486
 C 0.5168 0.72 0.213   -0.177486
 C 0.7668 0.287 0.22   -0.177486
 C 0.2668 0.713 0.78   -0.177486
 C 0.3249 0.1642 0.2738   0.049361
 C 0.8249 0.8358 0.7262   0.049361
 C 0.5749 0.2262 0.6642   0.04936
 C 0.0749 0.7738 0.3358   0.04936
 C 0.9251 0.3358 0.7738   0.049358
 C 0.4251 0.6642 0.2262   0.049358
 C 0.6751 0.2738 0.1642   0.049358
 C 0.1751 0.7262 0.8358   0.049358
 C 0.3471 0.1023 0.3259   -0.164793
 C 0.8471 0.8977 0.6741   -0.164793
 C 0.5971 0.1741 0.6023   -0.164793
 C 0.0971 0.8259 0.3977   -0.164793
 C 0.9029 0.3977 0.8259   -0.164792
 C 0.4029 0.6023 0.1741   -0.164792
 C 0.6529 0.3259 0.1023   -0.164792
 C 0.1529 0.6741 0.8977   -0.164792
 C 0.2763 0.0959 0.3961   0.04838
 C 0.7763 0.9041 0.6039   0.04838
 C 0.5263 0.1039 0.5959   0.04838
 C 0.0263 0.8961 0.4041   0.04838
 C 0.9737 0.4041 0.8961   0.04838
 C 0.4737 0.5959 0.1039   0.04838
 C 0.7237 0.3961 0.0959   0.04838
 C 0.2237 0.6039 0.9041   0.04838
 O 0.0002 0.1743 0.48898   -0.73122
 O 0.5002 0.8257 0.51102   -0.73122
 O 0.2502 0.01102 0.6743   -0.73122
 O 0.7502 0.98898 0.3257   -0.73122
 O 0.2498 0.3257 0.98898   -0.731221
 O 0.7498 0.6743 0.01102   -0.731221
 O 0.9998 0.48898 0.1743   -0.731221
 O 0.4998 0.51102 0.8257   -0.731221
 O 0.1619 0.1139 0.5459   -0.582766
 O 0.6619 0.8861 0.4541   -0.582766
 O 0.4119 0.9541 0.6139   -0.582766
 O 0.9119 0.0459 0.3861   -0.582766
 O 0.0881 0.3861 0.0459   -0.582766
 O 0.5881 0.6139 0.9541   -0.582766
 O 0.8381 0.5459 0.1139   -0.582766
 O 0.3381 0.4541 0.8861   -0.582766
 O 0.1401 0.3454 0.25   -0.570966
 O 0.6401 0.6546 0.75   -0.570966
 O 0.3901 0.25 0.8454   -0.570966
 O 0.8901 0.75 0.1546   -0.570966
 O 0.1099 0.1546 0.75   -0.570966
 O 0.6099 0.8454 0.25   -0.570966
 O 0.8599 0.25 0.3454   -0.570966
 O 0.3599 0.75 0.6546   -0.570966
 O 0.2669 0.29 0.1658   -0.696554
 O 0.7669 0.71 0.8342   -0.696554
 O 0.5169 0.3342 0.79   -0.696554
 O 0.0169 0.6658 0.21   -0.696554
 O 0.9831 0.21 0.6658   -0.696553
 O 0.4831 0.79 0.3342   -0.696553
 O 0.7331 0.1658 0.29   -0.696553
 O 0.2331 0.8342 0.71   -0.696553
 O 0.5141 0.0515 0.2482   -0.637001
 O 0.0141 0.9485 0.7518   -0.637001
 O 0.7641 0.2518 0.5515   -0.637001
 O 0.2641 0.7482 0.4485   -0.637001
 O 0.7359 0.4485 0.7482   -0.637002
 O 0.2359 0.5515 0.2518   -0.637002
 O 0.4859 0.2482 0.0515   -0.637002
 O 0.9859 0.7518 0.9485   -0.637002
 O 0.464 0.9883 0.3631   -0.586725
 O 0.964 0.0117 0.6369   -0.586725
 O 0.714 0.1369 0.4883   -0.586725
 O 0.214 0.8631 0.5117   -0.586725
 O 0.786 0.5117 0.8631   -0.586725
 O 0.286 0.4883 0.1369   -0.586725
 O 0.536 0.3631 0.9883   -0.586725
 O 0.036 0.6369 0.0117   -0.586725
 O 0.0085 0.359 0.5498   -0.171301
 O 0.5085 0.641 0.4502   -0.171301
 O 0.2585 0.9502 0.859   -0.171301
 O 0.7585 0.0498 0.141   -0.171301
 O 0.2415 0.141 0.0498   -0.171299
 O 0.7415 0.859 0.9502   -0.171299
 O 0.9915 0.5498 0.359   -0.171299
 O 0.4915 0.4502 0.641   -0.171299
