{'_ref': 'TBD', '_srcid': 'CAKYAQ_clean', 'submitters': [{'name': 'Dalar Nazarian Jeff Camp and David Sholl', 'email': 'dalar@gatech.edu jcamp6@gatech.edu'}], '_method': 'VASP DFT with PBE;DDEC'}
data_ZnH3C3(N2O)2
_symmetry_space_group_name_H-M   'P 1'
_cell_length_a   12.93050000
_cell_length_b   13.79610000
_cell_length_c   16.82950000
_cell_angle_alpha   90.00000000
_cell_angle_beta   90.00000000
_cell_angle_gamma   90.00000000
_symmetry_Int_Tables_number   1
_chemical_formula_structural   ZnH3C3(N2O)2
_chemical_formula_sum   'Zn16 H48 C48 N64 O32'
_cell_volume   3002.22243254
_cell_formula_units_Z   16
loop_
 _symmetry_equiv_pos_site_id
 _symmetry_equiv_pos_as_xyz
  1  'x, y, z'
loop_
 _atom_site_label
 _atom_site_fract_x
 _atom_site_fract_y
 _atom_site_fract_z
 _atom_site_charge
 Zn 0.47569 0.4073 0.4239   0.821163
 Zn 0.42707 0.47793 0.09649   0.823431
 Zn 0.52431 0.0927 0.9239   0.821163
 Zn 0.57293 0.02207 0.59649   0.823431
 Zn 0.97569 0.5927 0.0761   0.821163
 Zn 0.92707 0.52207 0.40351   0.823431
 Zn 0.02431 0.9073 0.5761   0.821163
 Zn 0.07293 0.97793 0.90351   0.823431
 Zn 0.52431 0.5927 0.5761   0.821163
 Zn 0.57293 0.52207 0.90351   0.823431
 Zn 0.47569 0.9073 0.0761   0.821163
 Zn 0.42707 0.97793 0.40351   0.823431
 Zn 0.02431 0.4073 0.9239   0.821163
 Zn 0.07293 0.47793 0.59649   0.823431
 Zn 0.97569 0.0927 0.4239   0.821163
 Zn 0.92707 0.02207 0.09649   0.823431
 H 0.2483 0.3626 0.5004   0.082302
 H 0.4448 0.195 0.3528   0.080191
 H 0.3278 0.6701 0.6446   0.365905
 H 0.2188 0.6327 0.6605   0.356624
 H 0.5887 0.2379 0.6252   0.36629
 H 0.5645 0.3336 0.584   0.350004
 H 0.7517 0.1374 0.000399999999999   0.082302
 H 0.5552 0.305 0.8528   0.080191
 H 0.6722 0.8299 0.1446   0.365905
 H 0.7812 0.8673 0.1605   0.356624
 H 0.4113 0.2621 0.1252   0.36629
 H 0.4355 0.1664 0.084   0.350004
 H 0.7483 0.6374 0.9996   0.082303
 H 0.9448 0.805 0.1472   0.080191
 H 0.8278 0.3299 0.8554   0.365905
 H 0.7188 0.3673 0.8395   0.356624
 H 0.0887 0.7621 0.8748   0.36629
 H 0.0645 0.6664 0.916   0.350004
 H 0.2517 0.8626 0.4996   0.082303
 H 0.0552 0.695 0.6472   0.080191
 H 0.1722 0.1701 0.3554   0.365905
 H 0.2812 0.1327 0.3395   0.356624
 H 0.9113 0.7379 0.3748   0.36629
 H 0.9355 0.8336 0.416   0.350004
 H 0.7517 0.6374 0.4996   0.082303
 H 0.5552 0.805 0.6472   0.080191
 H 0.6722 0.3299 0.3554   0.365905
 H 0.7812 0.3673 0.3395   0.356624
 H 0.4113 0.7621 0.3748   0.366291
 H 0.4355 0.6664 0.416   0.350005
 H 0.2483 0.8626 0.9996   0.082303
 H 0.4448 0.695 0.1472   0.080191
 H 0.3278 0.1701 0.8554   0.365905
 H 0.2188 0.1327 0.8395   0.356624
 H 0.5887 0.7379 0.8748   0.366291
 H 0.5645 0.8336 0.916   0.350005
 H 0.2517 0.3626 0.000399999999999   0.082303
 H 0.0552 0.195 0.8528   0.080191
 H 0.1722 0.6701 0.1446   0.365905
 H 0.2812 0.6327 0.1605   0.356624
 H 0.9113 0.2379 0.1252   0.36629
 H 0.9355 0.3336 0.084   0.350005
 H 0.7483 0.1374 0.5004   0.082303
 H 0.9448 0.305 0.3528   0.080191
 H 0.8278 0.8299 0.6446   0.365905
 H 0.7188 0.8673 0.6605   0.356624
 H 0.0887 0.2621 0.6252   0.36629
 H 0.0645 0.1664 0.584   0.350005
 C 0.4231 0.5062 0.2772   0.512812
 C 0.4737 0.4087 0.2532   0.518951
 C 0.2984 0.5475 0.5898   0.642106
 C 0.278 0.4191 0.5232   0.269827
 C 0.5276 0.2212 0.5209   0.62831
 C 0.4706 0.188 0.4053   0.270532
 C 0.5769 0.9938 0.7772   0.512812
 C 0.5263 0.0913 0.7532   0.518951
 C 0.7016 0.9525 0.0898   0.642106
 C 0.722 0.0809 0.0232   0.269827
 C 0.4724 0.2788 0.0209   0.62831
 C 0.5294 0.312 0.9053   0.270532
 C 0.9231 0.4938 0.2228   0.512812
 C 0.9737 0.5913 0.2468   0.518951
 C 0.7984 0.4525 0.9102   0.642107
 C 0.778 0.5809 0.9768   0.269827
 C 0.0276 0.7788 0.9791   0.62831
 C 0.9706 0.812 0.0947   0.270532
 C 0.0769 0.0062 0.7228   0.512812
 C 0.0263 0.9087 0.7468   0.518951
 C 0.2016 0.0475 0.4102   0.642107
 C 0.222 0.9191 0.4768   0.269827
 C 0.9724 0.7212 0.4791   0.62831
 C 0.0294 0.688 0.5947   0.270532
 C 0.5769 0.4938 0.7228   0.512812
 C 0.5263 0.5913 0.7468   0.518951
 C 0.7016 0.4525 0.4102   0.642106
 C 0.722 0.5809 0.4768   0.269827
 C 0.4724 0.7788 0.4791   0.62831
 C 0.5294 0.812 0.5947   0.270532
 C 0.4231 0.0062 0.2228   0.512812
 C 0.4737 0.9087 0.2468   0.518951
 C 0.2984 0.0475 0.9102   0.642106
 C 0.278 0.9191 0.9768   0.269827
 C 0.5276 0.7212 0.9791   0.62831
 C 0.4706 0.688 0.0947   0.270532
 C 0.0769 0.5062 0.7772   0.512812
 C 0.0263 0.4087 0.7532   0.518951
 C 0.2016 0.5475 0.0898   0.642106
 C 0.222 0.4191 0.0232   0.269827
 C 0.9724 0.2212 0.0209   0.62831
 C 0.0294 0.188 0.9053   0.270532
 C 0.9231 0.9938 0.2772   0.512812
 C 0.9737 0.0913 0.2532   0.518951
 C 0.7984 0.9525 0.5898   0.642106
 C 0.778 0.0809 0.5232   0.269827
 C 0.0276 0.2788 0.5209   0.62831
 C 0.9706 0.312 0.4053   0.270532
 N 0.2256 0.4785 0.5735   -0.547292
 N 0.3723 0.4467 0.5093   -0.252833
 N 0.3864 0.5317 0.5528   -0.386096
 N 0.2794 0.6261 0.6373   -0.766663
 N 0.4871 0.104 0.4396   -0.280682
 N 0.5244 0.1236 0.5153   -0.387699
 N 0.4942 0.2632 0.4528   -0.553329
 N 0.5645 0.2698 0.5839   -0.753567
 N 0.7744 0.0215 0.0735   -0.547292
 N 0.6277 0.0533 0.0093   -0.252833
 N 0.6136 0.9683 0.0528   -0.386096
 N 0.7206 0.8739 0.1373   -0.766663
 N 0.5129 0.396 0.9396   -0.280682
 N 0.4756 0.3764 0.0153   -0.387699
 N 0.5058 0.2368 0.9528   -0.553329
 N 0.4355 0.2302 0.0839   -0.753567
 N 0.7256 0.5215 0.9265   -0.547292
 N 0.8723 0.5533 0.9907   -0.252833
 N 0.8864 0.4683 0.9472   -0.386096
 N 0.7794 0.3739 0.8627   -0.766663
 N 0.9871 0.896 0.0604   -0.280682
 N 0.0244 0.8764 0.9847   -0.387699
 N 0.9942 0.7368 0.0472   -0.553329
 N 0.0645 0.7302 0.9161   -0.753567
 N 0.2744 0.9785 0.4265   -0.547292
 N 0.1277 0.9467 0.4907   -0.252833
 N 0.1136 0.0317 0.4472   -0.386096
 N 0.2206 0.1261 0.3627   -0.766663
 N 0.0129 0.604 0.5604   -0.280682
 N 0.9756 0.6236 0.4847   -0.387699
 N 0.0058 0.7632 0.5472   -0.553329
 N 0.9355 0.7698 0.4161   -0.753567
 N 0.7744 0.5215 0.4265   -0.547292
 N 0.6277 0.5533 0.4907   -0.252833
 N 0.6136 0.4683 0.4472   -0.386096
 N 0.7206 0.3739 0.3627   -0.766663
 N 0.5129 0.896 0.5604   -0.280682
 N 0.4756 0.8764 0.4847   -0.387699
 N 0.5058 0.7368 0.5472   -0.553329
 N 0.4355 0.7302 0.4161   -0.753567
 N 0.2256 0.9785 0.9265   -0.547292
 N 0.3723 0.9467 0.9907   -0.252833
 N 0.3864 0.0317 0.9472   -0.386096
 N 0.2794 0.1261 0.8627   -0.766663
 N 0.4871 0.604 0.0604   -0.280682
 N 0.5244 0.6236 0.9847   -0.387699
 N 0.4942 0.7632 0.0472   -0.553329
 N 0.5645 0.7698 0.9161   -0.753567
 N 0.2744 0.4785 0.0735   -0.547292
 N 0.1277 0.4467 0.0093   -0.252833
 N 0.1136 0.5317 0.0528   -0.386096
 N 0.2206 0.6261 0.1373   -0.766663
 N 0.0129 0.104 0.9396   -0.280682
 N 0.9756 0.1236 0.0153   -0.387699
 N 0.0058 0.2632 0.9528   -0.553329
 N 0.9355 0.2698 0.0839   -0.753567
 N 0.7256 0.0215 0.5735   -0.547292
 N 0.8723 0.0533 0.5093   -0.252833
 N 0.8864 0.9683 0.5528   -0.386096
 N 0.7794 0.8739 0.6373   -0.766663
 N 0.9871 0.396 0.4396   -0.280682
 N 0.0244 0.3764 0.5153   -0.387699
 N 0.9942 0.2368 0.4528   -0.553329
 N 0.0645 0.2302 0.5839   -0.753567
 O 0.4844 0.3911 0.1815   -0.520905
 O 0.395 0.5586 0.2208   -0.552715
 O 0.5019 0.3543 0.309   -0.534649
 O 0.4155 0.5223 0.3502   -0.552018
 O 0.5156 0.1089 0.6815   -0.520905
 O 0.605 0.9414 0.7208   -0.552715
 O 0.4981 0.1457 0.809   -0.534649
 O 0.5845 0.9777 0.8502   -0.552018
 O 0.9844 0.6089 0.3185   -0.520905
 O 0.895 0.4414 0.2792   -0.552715
 O 0.0019 0.6457 0.191   -0.534649
 O 0.9155 0.4777 0.1498   -0.552018
 O 0.0156 0.8911 0.8185   -0.520905
 O 0.105 0.0586 0.7792   -0.552715
 O 0.9981 0.8543 0.691   -0.534649
 O 0.0845 0.0223 0.6498   -0.552018
 O 0.5156 0.6089 0.8185   -0.520905
 O 0.605 0.4414 0.7792   -0.552715
 O 0.4981 0.6457 0.691   -0.534649
 O 0.5845 0.4777 0.6498   -0.552018
 O 0.4844 0.8911 0.3185   -0.520905
 O 0.395 0.0586 0.2792   -0.552715
 O 0.5019 0.8543 0.191   -0.534649
 O 0.4155 0.0223 0.1498   -0.552018
 O 0.0156 0.3911 0.6815   -0.520905
 O 0.105 0.5586 0.7208   -0.552715
 O 0.9981 0.3543 0.809   -0.534649
 O 0.0845 0.5223 0.8502   -0.552018
 O 0.9844 0.1089 0.1815   -0.520905
 O 0.895 0.9414 0.2208   -0.552715
 O 0.0019 0.1457 0.309   -0.534649
 O 0.9155 0.9777 0.3502   -0.552018
