{'_ref': 'TBD', '_srcid': 'CAKYAQ_clean', 'submitters': [{'name': 'Dalar Nazarian Jeff Camp and David Sholl', 'email': 'dalar@gatech.edu jcamp6@gatech.edu'}], '_method': 'VASP DFT with PBE;DDEC'}
data_ZnH3C3(N2O)2
_symmetry_space_group_name_H-M   'P 1'
_cell_length_a   12.95910000
_cell_length_b   13.79710000
_cell_length_c   16.81530000
_cell_angle_alpha   90.00000000
_cell_angle_beta   90.00000000
_cell_angle_gamma   90.00000000
_symmetry_Int_Tables_number   1
_chemical_formula_structural   ZnH3C3(N2O)2
_chemical_formula_sum   'Zn16 H48 C48 N64 O32'
_cell_volume   3006.54198603
_cell_formula_units_Z   16
loop_
 _symmetry_equiv_pos_site_id
 _symmetry_equiv_pos_as_xyz
  1  'x, y, z'
loop_
 _atom_site_label
 _atom_site_fract_x
 _atom_site_fract_y
 _atom_site_fract_z
 _atom_site_charge
 Zn 0.42665 0.97754 0.40392   0.820443
 Zn 0.4766 0.90714 0.0761   0.818233
 Zn 0.57335 0.52246 0.90392   0.820443
 Zn 0.5234 0.59286 0.5761   0.818233
 Zn 0.92665 0.02246 0.09608   0.820443
 Zn 0.9766 0.09286 0.4239   0.818233
 Zn 0.07335 0.47754 0.59608   0.820443
 Zn 0.0234 0.40714 0.9239   0.818233
 Zn 0.57335 0.02246 0.59608   0.820443
 Zn 0.5234 0.09286 0.9239   0.818233
 Zn 0.42665 0.47754 0.09608   0.820443
 Zn 0.4766 0.40714 0.4239   0.818233
 Zn 0.07335 0.97754 0.90392   0.820443
 Zn 0.0234 0.90714 0.5761   0.818233
 Zn 0.92665 0.52246 0.40392   0.820443
 Zn 0.9766 0.59286 0.0761   0.818233
 H 0.2518 0.8634 0.5016   0.083729
 H 0.4466 0.195 0.3529   0.077045
 H 0.1725 0.1693 0.3563   0.366351
 H 0.2817 0.1325 0.341   0.357582
 H 0.5871 0.2378 0.6253   0.365743
 H 0.5642 0.3334 0.5835   0.34933
 H 0.7482 0.6366 0.0016   0.083729
 H 0.5534 0.305 0.8529   0.077045
 H 0.8275 0.3307 0.8563   0.366351
 H 0.7183 0.3675 0.841   0.357582
 H 0.4129 0.2622 0.1253   0.365743
 H 0.4358 0.1666 0.0835   0.34933
 H 0.7518 0.1366 0.9984   0.083729
 H 0.9466 0.805 0.1471   0.077045
 H 0.6725 0.8307 0.1437   0.366351
 H 0.7817 0.8675 0.159   0.357582
 H 0.0871 0.7622 0.8747   0.365743
 H 0.0642 0.6666 0.9165   0.34933
 H 0.2482 0.3634 0.4984   0.083729
 H 0.0534 0.695 0.6471   0.077045
 H 0.3275 0.6693 0.6437   0.366351
 H 0.2183 0.6325 0.659   0.357582
 H 0.9129 0.7378 0.3747   0.365743
 H 0.9358 0.8334 0.4165   0.34933
 H 0.7482 0.1366 0.4984   0.083729
 H 0.5534 0.805 0.6471   0.077045
 H 0.8275 0.8307 0.6437   0.366351
 H 0.7183 0.8675 0.659   0.357582
 H 0.4129 0.7622 0.3747   0.365743
 H 0.4358 0.6666 0.4165   0.34933
 H 0.2518 0.3634 0.9984   0.083729
 H 0.4466 0.695 0.1471   0.077045
 H 0.1725 0.6693 0.1437   0.366351
 H 0.2817 0.6325 0.159   0.357582
 H 0.5871 0.7378 0.8747   0.365743
 H 0.5642 0.8334 0.9165   0.34933
 H 0.2482 0.8634 0.0016   0.08373
 H 0.0534 0.195 0.8529   0.077045
 H 0.3275 0.1693 0.8563   0.366351
 H 0.2183 0.1325 0.841   0.357582
 H 0.9129 0.2378 0.1253   0.365743
 H 0.9358 0.3334 0.0835   0.34933
 H 0.7518 0.6366 0.5016   0.08373
 H 0.9466 0.305 0.3529   0.077045
 H 0.6725 0.3307 0.3563   0.366351
 H 0.7817 0.3675 0.341   0.357582
 H 0.0871 0.2622 0.6253   0.365743
 H 0.0642 0.1666 0.5835   0.34933
 C 0.4235 0.006 0.22305   0.516018
 C 0.4724 0.9091 0.24642   0.519463
 C 0.2023 0.0475 0.41099   0.64285
 C 0.2221 0.9195 0.47818   0.262297
 C 0.5269 0.2204 0.51992   0.633878
 C 0.4716 0.188 0.40569   0.273686
 C 0.5765 0.494 0.72305   0.516018
 C 0.5276 0.5909 0.74642   0.519463
 C 0.7977 0.4525 0.91099   0.64285
 C 0.7779 0.5805 0.97818   0.262297
 C 0.4731 0.2796 0.01992   0.633878
 C 0.5284 0.312 0.90569   0.273686
 C 0.9235 0.994 0.27695   0.516018
 C 0.9724 0.0909 0.25358   0.519462
 C 0.7023 0.9525 0.08901   0.64285
 C 0.7221 0.0805 0.02182   0.262297
 C 0.0269 0.7796 0.98008   0.633878
 C 0.9716 0.812 0.09431   0.273686
 C 0.0765 0.506 0.77695   0.516018
 C 0.0276 0.4091 0.75358   0.519462
 C 0.2977 0.5475 0.58901   0.64285
 C 0.2779 0.4195 0.52182   0.262297
 C 0.9731 0.7204 0.48008   0.633878
 C 0.0284 0.688 0.59431   0.273686
 C 0.5765 0.994 0.77695   0.516018
 C 0.5276 0.0909 0.75358   0.519463
 C 0.7977 0.9525 0.58901   0.64285
 C 0.7779 0.0805 0.52182   0.262297
 C 0.4731 0.7796 0.48008   0.633878
 C 0.5284 0.812 0.59431   0.273686
 C 0.4235 0.506 0.27695   0.516018
 C 0.4724 0.4091 0.25358   0.519463
 C 0.2023 0.5475 0.08901   0.64285
 C 0.2221 0.4195 0.02182   0.262297
 C 0.5269 0.7204 0.98008   0.633878
 C 0.4716 0.688 0.09431   0.273686
 C 0.0765 0.006 0.72305   0.516018
 C 0.0276 0.9091 0.74642   0.519462
 C 0.2977 0.0475 0.91099   0.64285
 C 0.2779 0.9195 0.97818   0.262297
 C 0.9731 0.2204 0.01992   0.633878
 C 0.0284 0.188 0.90569   0.273686
 C 0.9235 0.494 0.22305   0.516018
 C 0.9724 0.5909 0.24642   0.519462
 C 0.7023 0.4525 0.41099   0.64285
 C 0.7221 0.5805 0.47818   0.262297
 C 0.0269 0.2796 0.51992   0.633878
 C 0.9716 0.312 0.40569   0.273686
 N 0.2737 0.97853 0.428   -0.541606
 N 0.1271 0.94717 0.4914   -0.250273
 N 0.1136 0.0314 0.44764   -0.385015
 N 0.221 0.1256 0.3639   -0.765171
 N 0.5233 0.12399 0.51537   -0.384235
 N 0.4867 0.10408 0.4396   -0.282327
 N 0.4948 0.26318 0.45276   -0.550166
 N 0.5637 0.2696 0.58371   -0.766696
 N 0.7263 0.52147 0.928   -0.541606
 N 0.8729 0.55283 0.9914   -0.250273
 N 0.8864 0.4686 0.94764   -0.385015
 N 0.779 0.3744 0.8639   -0.765171
 N 0.4767 0.37601 0.01537   -0.384235
 N 0.5133 0.39592 0.9396   -0.282327
 N 0.5052 0.23682 0.95276   -0.550166
 N 0.4363 0.2304 0.08371   -0.766696
 N 0.7737 0.02147 0.072   -0.541606
 N 0.6271 0.05283 0.0086   -0.250273
 N 0.6136 0.9686 0.05236   -0.385015
 N 0.721 0.8744 0.1361   -0.765171
 N 0.0233 0.87601 0.98463   -0.384235
 N 0.9867 0.89592 0.0604   -0.282327
 N 0.9948 0.73682 0.04724   -0.550166
 N 0.0637 0.7304 0.91629   -0.766696
 N 0.2263 0.47853 0.572   -0.541606
 N 0.3729 0.44717 0.5086   -0.250273
 N 0.3864 0.5314 0.55236   -0.385015
 N 0.279 0.6256 0.6361   -0.765171
 N 0.9767 0.62399 0.48463   -0.384235
 N 0.0133 0.60408 0.5604   -0.282327
 N 0.0052 0.76318 0.54724   -0.550166
 N 0.9363 0.7696 0.41629   -0.766696
 N 0.7263 0.02147 0.572   -0.541606
 N 0.8729 0.05283 0.5086   -0.250274
 N 0.8864 0.9686 0.55236   -0.385015
 N 0.779 0.8744 0.6361   -0.765171
 N 0.4767 0.87601 0.48463   -0.384235
 N 0.5133 0.89592 0.5604   -0.282327
 N 0.5052 0.73682 0.54724   -0.550166
 N 0.4363 0.7304 0.41629   -0.766696
 N 0.2737 0.47853 0.072   -0.541606
 N 0.1271 0.44717 0.0086   -0.250274
 N 0.1136 0.5314 0.05236   -0.385015
 N 0.221 0.6256 0.1361   -0.765171
 N 0.5233 0.62399 0.98463   -0.384235
 N 0.4867 0.60408 0.0604   -0.282327
 N 0.4948 0.76318 0.04724   -0.550166
 N 0.5637 0.7696 0.91629   -0.766696
 N 0.2263 0.97853 0.928   -0.541606
 N 0.3729 0.94717 0.9914   -0.250274
 N 0.3864 0.0314 0.94764   -0.385015
 N 0.279 0.1256 0.8639   -0.765171
 N 0.9767 0.12399 0.01537   -0.384235
 N 0.0133 0.10408 0.9396   -0.282327
 N 0.0052 0.26318 0.95276   -0.550166
 N 0.9363 0.2696 0.08371   -0.766696
 N 0.7737 0.52147 0.428   -0.541606
 N 0.6271 0.55283 0.4914   -0.250274
 N 0.6136 0.4686 0.44764   -0.385015
 N 0.721 0.3744 0.3639   -0.765171
 N 0.0233 0.37601 0.51537   -0.384235
 N 0.9867 0.39592 0.4396   -0.282327
 N 0.9948 0.23682 0.45276   -0.550166
 N 0.0637 0.2304 0.58371   -0.766696
 O 0.3947 0.05825 0.27924   -0.553829
 O 0.4825 0.89053 0.31869   -0.526423
 O 0.4172 0.0229 0.14989   -0.552649
 O 0.5025 0.85484 0.19171   -0.528257
 O 0.6053 0.44175 0.77924   -0.553829
 O 0.5175 0.60947 0.81869   -0.526423
 O 0.5828 0.4771 0.64989   -0.552649
 O 0.4975 0.64516 0.69171   -0.528257
 O 0.8947 0.94175 0.22076   -0.553829
 O 0.9825 0.10947 0.18131   -0.526423
 O 0.9172 0.9771 0.35011   -0.552649
 O 0.0025 0.14516 0.30829   -0.528257
 O 0.1053 0.55825 0.72076   -0.553829
 O 0.0175 0.39053 0.68131   -0.526423
 O 0.0828 0.5229 0.85011   -0.552649
 O 0.9975 0.35484 0.80829   -0.528257
 O 0.6053 0.94175 0.72076   -0.553829
 O 0.5175 0.10947 0.68131   -0.526423
 O 0.5828 0.9771 0.85011   -0.552649
 O 0.4975 0.14516 0.80829   -0.528257
 O 0.3947 0.55825 0.22076   -0.553829
 O 0.4825 0.39053 0.18131   -0.526423
 O 0.4172 0.5229 0.35011   -0.552649
 O 0.5025 0.35484 0.30829   -0.528257
 O 0.1053 0.05825 0.77924   -0.553829
 O 0.0175 0.89053 0.81869   -0.526423
 O 0.0828 0.0229 0.64989   -0.552649
 O 0.9975 0.85484 0.69171   -0.528257
 O 0.8947 0.44175 0.27924   -0.553829
 O 0.9825 0.60947 0.31869   -0.526423
 O 0.9172 0.4771 0.14989   -0.552649
 O 0.0025 0.64516 0.19171   -0.528257
