{'_ref': 'TBD', '_srcid': 'CAKYAQ_clean', 'submitters': [{'name': 'Dalar Nazarian Jeff Camp and David Sholl', 'email': 'dalar@gatech.edu jcamp6@gatech.edu'}], '_method': 'VASP DFT with PBE;DDEC'}
data_ZnH3C3(N2O)2
_symmetry_space_group_name_H-M   'P 1'
_cell_length_a   13.00940000
_cell_length_b   13.80330000
_cell_length_c   16.82810000
_cell_angle_alpha   90.00000000
_cell_angle_beta   90.00000000
_cell_angle_gamma   90.00000000
_symmetry_Int_Tables_number   1
_chemical_formula_structural   ZnH3C3(N2O)2
_chemical_formula_sum   'Zn16 H48 C48 N64 O32'
_cell_volume   3021.86652863
_cell_formula_units_Z   16
loop_
 _symmetry_equiv_pos_site_id
 _symmetry_equiv_pos_as_xyz
  1  'x, y, z'
loop_
 _atom_site_label
 _atom_site_fract_x
 _atom_site_fract_y
 _atom_site_fract_z
 _atom_site_charge
 Zn 0.42561 0.97787 0.40449   0.823495
 Zn 0.47683 0.9073 0.07598   0.820899
 Zn 0.57439 0.52213 0.90449   0.823495
 Zn 0.52317 0.5927 0.57598   0.820899
 Zn 0.92561 0.02213 0.09551   0.823495
 Zn 0.97683 0.0927 0.42402   0.820899
 Zn 0.07439 0.47787 0.59551   0.823495
 Zn 0.02317 0.4073 0.92402   0.820899
 Zn 0.57439 0.02213 0.59551   0.823495
 Zn 0.52317 0.0927 0.92402   0.820899
 Zn 0.42561 0.47787 0.09551   0.823495
 Zn 0.47683 0.4073 0.42402   0.820899
 Zn 0.07439 0.97787 0.90449   0.823495
 Zn 0.02317 0.9073 0.57598   0.820899
 Zn 0.92561 0.52213 0.40449   0.823495
 Zn 0.97683 0.5927 0.07598   0.820899
 H 0.251 0.8658 0.5022   0.079348
 H 0.4463 0.1952 0.3548   0.073427
 H 0.1725 0.1674 0.3559   0.365115
 H 0.2791 0.1324 0.3414   0.357853
 H 0.5862 0.2376 0.6244   0.363738
 H 0.5647 0.3313 0.5837   0.348137
 H 0.749 0.6342 0.0022   0.079348
 H 0.5537 0.3048 0.8548   0.073427
 H 0.8275 0.3326 0.8559   0.365115
 H 0.7209 0.3676 0.8414   0.357853
 H 0.4138 0.2624 0.1244   0.363738
 H 0.4353 0.1687 0.0837   0.348137
 H 0.751 0.1342 0.9978   0.079348
 H 0.9463 0.8048 0.1452   0.073427
 H 0.6725 0.8326 0.1441   0.365116
 H 0.7791 0.8676 0.1586   0.357853
 H 0.0862 0.7624 0.8756   0.363738
 H 0.0647 0.6687 0.9163   0.348137
 H 0.249 0.3658 0.4978   0.079348
 H 0.0537 0.6952 0.6452   0.073427
 H 0.3275 0.6674 0.6441   0.365116
 H 0.2209 0.6324 0.6586   0.357853
 H 0.9138 0.7376 0.3756   0.363738
 H 0.9353 0.8313 0.4163   0.348137
 H 0.749 0.1342 0.4978   0.079348
 H 0.5537 0.8048 0.6452   0.073427
 H 0.8275 0.8326 0.6441   0.365115
 H 0.7209 0.8676 0.6586   0.357853
 H 0.4138 0.7624 0.3756   0.363738
 H 0.4353 0.6687 0.4163   0.348137
 H 0.251 0.3658 0.9978   0.079348
 H 0.4463 0.6952 0.1452   0.073427
 H 0.1725 0.6674 0.1441   0.365115
 H 0.2791 0.6324 0.1586   0.357853
 H 0.5862 0.7376 0.8756   0.363738
 H 0.5647 0.8313 0.9163   0.348137
 H 0.249 0.8658 0.0022   0.079349
 H 0.0537 0.1952 0.8548   0.073427
 H 0.3275 0.1674 0.8559   0.365116
 H 0.2209 0.1324 0.8414   0.357853
 H 0.9138 0.2376 0.1244   0.363738
 H 0.9353 0.3313 0.0837   0.348137
 H 0.751 0.6342 0.5022   0.079349
 H 0.9463 0.3048 0.3548   0.073427
 H 0.6725 0.3326 0.3559   0.365116
 H 0.7791 0.3676 0.3414   0.357853
 H 0.0862 0.2624 0.6244   0.363738
 H 0.0647 0.1687 0.5837   0.348137
 C 0.4684 0.9103 0.2457   0.523924
 C 0.4224 0.0082 0.22229   0.519876
 C 0.2022 0.0474 0.4115   0.641438
 C 0.2218 0.9204 0.47909   0.272186
 C 0.5271 0.22026 0.52009   0.630966
 C 0.4711 0.18821 0.40631   0.281109
 C 0.5316 0.5897 0.7457   0.523924
 C 0.5776 0.4918 0.72229   0.519876
 C 0.7978 0.4526 0.9115   0.641438
 C 0.7782 0.5796 0.97909   0.272186
 C 0.4729 0.27974 0.02009   0.630966
 C 0.5289 0.31179 0.90631   0.281109
 C 0.9684 0.0897 0.2543   0.523924
 C 0.9224 0.9918 0.27771   0.519876
 C 0.7022 0.9526 0.0885   0.641438
 C 0.7218 0.0796 0.02091   0.272186
 C 0.0271 0.77974 0.97991   0.630966
 C 0.9711 0.81179 0.09369   0.281109
 C 0.0316 0.4103 0.7543   0.523924
 C 0.0776 0.5082 0.77771   0.519876
 C 0.2978 0.5474 0.5885   0.641438
 C 0.2782 0.4204 0.52091   0.272186
 C 0.9729 0.72026 0.47991   0.630966
 C 0.0289 0.68821 0.59369   0.281109
 C 0.5316 0.0897 0.7543   0.523924
 C 0.5776 0.9918 0.77771   0.519876
 C 0.7978 0.9526 0.5885   0.641438
 C 0.7782 0.0796 0.52091   0.272186
 C 0.4729 0.77974 0.47991   0.630966
 C 0.5289 0.81179 0.59369   0.281109
 C 0.4684 0.4103 0.2543   0.523924
 C 0.4224 0.5082 0.27771   0.519876
 C 0.2022 0.5474 0.0885   0.641438
 C 0.2218 0.4204 0.02091   0.272186
 C 0.5271 0.72026 0.97991   0.630966
 C 0.4711 0.68821 0.09369   0.281109
 C 0.0316 0.9103 0.7457   0.523924
 C 0.0776 0.0082 0.72229   0.519876
 C 0.2978 0.0474 0.9115   0.641438
 C 0.2782 0.9204 0.97909   0.272186
 C 0.9729 0.22026 0.02009   0.630966
 C 0.0289 0.18821 0.90631   0.281109
 C 0.9684 0.5897 0.2457   0.523924
 C 0.9224 0.4918 0.22229   0.519876
 C 0.7022 0.4526 0.4115   0.641438
 C 0.7218 0.5796 0.47909   0.272186
 C 0.0271 0.27974 0.52009   0.630966
 C 0.9711 0.31179 0.40631   0.281109
 N 0.27289 0.97924 0.42902   -0.54264
 N 0.12737 0.94755 0.492   -0.250169
 N 0.11361 0.03145 0.44798   -0.386016
 N 0.2201 0.1253 0.3637   -0.765747
 N 0.523 0.12401 0.51552   -0.385678
 N 0.48595 0.10416 0.44006   -0.286388
 N 0.49511 0.26319 0.45302   -0.550408
 N 0.5638 0.269 0.58381   -0.761453
 N 0.72711 0.52076 0.92902   -0.54264
 N 0.87263 0.55245 0.992   -0.250169
 N 0.88639 0.46855 0.94798   -0.386016
 N 0.7799 0.3747 0.8637   -0.765747
 N 0.477 0.37599 0.01552   -0.385678
 N 0.51405 0.39584 0.94006   -0.286388
 N 0.50489 0.23681 0.95302   -0.550408
 N 0.4362 0.231 0.08381   -0.761453
 N 0.77289 0.02076 0.07098   -0.54264
 N 0.62737 0.05245 0.008   -0.250169
 N 0.61361 0.96855 0.05202   -0.386016
 N 0.7201 0.8747 0.1363   -0.765747
 N 0.023 0.87599 0.98448   -0.385678
 N 0.98595 0.89584 0.05994   -0.286388
 N 0.99511 0.73681 0.04698   -0.550408
 N 0.0638 0.731 0.91619   -0.761453
 N 0.22711 0.47924 0.57098   -0.54264
 N 0.37263 0.44755 0.508   -0.250169
 N 0.38639 0.53145 0.55202   -0.386016
 N 0.2799 0.6253 0.6363   -0.765747
 N 0.977 0.62401 0.48448   -0.385678
 N 0.01405 0.60416 0.55994   -0.286388
 N 0.00489 0.76319 0.54698   -0.550408
 N 0.9362 0.769 0.41619   -0.761453
 N 0.72711 0.02076 0.57098   -0.54264
 N 0.87263 0.05245 0.508   -0.250169
 N 0.88639 0.96855 0.55202   -0.386016
 N 0.7799 0.8747 0.6363   -0.765747
 N 0.477 0.87599 0.48448   -0.385678
 N 0.51405 0.89584 0.55994   -0.286388
 N 0.50489 0.73681 0.54698   -0.550408
 N 0.4362 0.731 0.41619   -0.761453
 N 0.27289 0.47924 0.07098   -0.54264
 N 0.12737 0.44755 0.008   -0.250169
 N 0.11361 0.53145 0.05202   -0.386016
 N 0.2201 0.6253 0.1363   -0.765747
 N 0.523 0.62401 0.98448   -0.385678
 N 0.48595 0.60416 0.05994   -0.286388
 N 0.49511 0.76319 0.04698   -0.550408
 N 0.5638 0.769 0.91619   -0.761453
 N 0.22711 0.97924 0.92902   -0.54264
 N 0.37263 0.94755 0.992   -0.250169
 N 0.38639 0.03145 0.94798   -0.386016
 N 0.2799 0.1253 0.8637   -0.765747
 N 0.977 0.12401 0.01552   -0.385678
 N 0.01405 0.10416 0.94006   -0.286388
 N 0.00489 0.26319 0.95302   -0.550408
 N 0.9362 0.269 0.08381   -0.761453
 N 0.77289 0.52076 0.42902   -0.54264
 N 0.62737 0.55245 0.492   -0.250169
 N 0.61361 0.46855 0.44798   -0.386016
 N 0.7201 0.3747 0.3637   -0.765747
 N 0.023 0.37599 0.51552   -0.385678
 N 0.98595 0.39584 0.44006   -0.286388
 N 0.99511 0.23681 0.45302   -0.550408
 N 0.0638 0.231 0.58381   -0.761453
 O 0.4762 0.89111 0.31791   -0.530415
 O 0.3946 0.06039 0.27832   -0.559137
 O 0.4977 0.85581 0.19134   -0.52725
 O 0.4182 0.02452 0.14953   -0.556213
 O 0.5238 0.60889 0.81791   -0.530415
 O 0.6054 0.43961 0.77832   -0.559137
 O 0.5023 0.64419 0.69134   -0.52725
 O 0.5818 0.47548 0.64953   -0.556213
 O 0.9762 0.10889 0.18209   -0.530415
 O 0.8946 0.93961 0.22168   -0.559137
 O 0.9977 0.14419 0.30866   -0.52725
 O 0.9182 0.97548 0.35047   -0.556213
 O 0.0238 0.39111 0.68209   -0.530415
 O 0.1054 0.56039 0.72168   -0.559137
 O 0.0023 0.35581 0.80866   -0.52725
 O 0.0818 0.52452 0.85047   -0.556213
 O 0.5238 0.10889 0.68209   -0.530415
 O 0.6054 0.93961 0.72168   -0.559137
 O 0.5023 0.14419 0.80866   -0.52725
 O 0.5818 0.97548 0.85047   -0.556213
 O 0.4762 0.39111 0.18209   -0.530415
 O 0.3946 0.56039 0.22168   -0.559137
 O 0.4977 0.35581 0.30866   -0.52725
 O 0.4182 0.52452 0.35047   -0.556213
 O 0.0238 0.89111 0.81791   -0.530415
 O 0.1054 0.06039 0.77832   -0.559137
 O 0.0023 0.85581 0.69134   -0.52725
 O 0.0818 0.02452 0.64953   -0.556213
 O 0.9762 0.60889 0.31791   -0.530415
 O 0.8946 0.43961 0.27832   -0.559137
 O 0.9977 0.64419 0.19134   -0.52725
 O 0.9182 0.47548 0.14953   -0.556213
