{'_ref': 'TBD', '_srcid': 'CAKYAQ_clean', 'submitters': [{'name': 'Dalar Nazarian Jeff Camp and David Sholl', 'email': 'dalar@gatech.edu jcamp6@gatech.edu'}], '_method': 'VASP DFT with PBE;DDEC'}
data_ZnH3C3(N2O)2
_symmetry_space_group_name_H-M   'P 1'
_cell_length_a   12.87320000
_cell_length_b   13.81070000
_cell_length_c   16.80850000
_cell_angle_alpha   90.00000000
_cell_angle_beta   90.00000000
_cell_angle_gamma   90.00000000
_symmetry_Int_Tables_number   1
_chemical_formula_structural   ZnH3C3(N2O)2
_chemical_formula_sum   'Zn16 H48 C48 N64 O32'
_cell_volume   2988.34797161
_cell_formula_units_Z   16
loop_
 _symmetry_equiv_pos_site_id
 _symmetry_equiv_pos_as_xyz
  1  'x, y, z'
loop_
 _atom_site_label
 _atom_site_fract_x
 _atom_site_fract_y
 _atom_site_fract_z
 _atom_site_charge
 Zn 0.57061 0.97869 0.90282   0.822211
 Zn 0.42939 0.52131 0.40282   0.822211
 Zn 0.07061 0.02131 0.59718   0.822211
 Zn 0.92939 0.47869 0.09718   0.822211
 Zn 0.42939 0.02131 0.09718   0.822211
 Zn 0.57061 0.47869 0.59718   0.822211
 Zn 0.92939 0.97869 0.40282   0.822211
 Zn 0.07061 0.52131 0.90282   0.822211
 Zn 0.52388 0.90706 0.57463   0.819446
 Zn 0.47612 0.59294 0.07463   0.819446
 Zn 0.02388 0.09294 0.92537   0.819446
 Zn 0.97612 0.40706 0.42537   0.819446
 Zn 0.47612 0.09294 0.42537   0.819446
 Zn 0.52388 0.40706 0.92537   0.819446
 Zn 0.97612 0.90706 0.07463   0.819446
 Zn 0.02388 0.59294 0.57463   0.819446
 H 0.7451 0.8656 0.0018   0.083614
 H 0.2549 0.6344 0.5018   0.083614
 H 0.2451 0.1344 0.4982   0.083614
 H 0.7549 0.3656 0.9982   0.083614
 H 0.2549 0.1344 0.9982   0.083614
 H 0.7451 0.3656 0.4982   0.083614
 H 0.7549 0.8656 0.5018   0.083614
 H 0.2451 0.6344 0.0018   0.083614
 H 0.5482 0.1961 0.8527   0.079611
 H 0.4518 0.3039 0.3527   0.079611
 H 0.0482 0.8039 0.6473   0.079611
 H 0.9518 0.6961 0.1473   0.079611
 H 0.4518 0.8039 0.1473   0.079611
 H 0.5482 0.6961 0.6473   0.079611
 H 0.9518 0.1961 0.3527   0.079611
 H 0.0482 0.3039 0.8527   0.079611
 H 0.8295 0.1664 0.8518   0.363912
 H 0.1705 0.3336 0.3518   0.363912
 H 0.3295 0.8336 0.6482   0.363912
 H 0.6705 0.6664 0.1482   0.363912
 H 0.1705 0.8336 0.1482   0.363912
 H 0.8295 0.6664 0.6482   0.363912
 H 0.6705 0.1664 0.3518   0.363912
 H 0.3295 0.3336 0.8518   0.363912
 H 0.7192 0.1308 0.8368   0.358341
 H 0.2808 0.3692 0.3368   0.358341
 H 0.2192 0.8692 0.6632   0.358341
 H 0.7808 0.6308 0.1632   0.358341
 H 0.2808 0.8692 0.1632   0.358341
 H 0.7192 0.6308 0.6632   0.358341
 H 0.7808 0.1308 0.3368   0.358341
 H 0.2192 0.3692 0.8368   0.358341
 H 0.4148 0.2351 0.128   0.363468
 H 0.5852 0.2649 0.628   0.363468
 H 0.9148 0.7649 0.372   0.363468
 H 0.0852 0.7351 0.872   0.363468
 H 0.5852 0.7649 0.872   0.363468
 H 0.4148 0.7351 0.372   0.363468
 H 0.0852 0.2351 0.628   0.363468
 H 0.9148 0.2649 0.128   0.363468
 H 0.436 0.3316 0.0871   0.347807
 H 0.564 0.1684 0.5871   0.347807
 H 0.936 0.6684 0.4129   0.347807
 H 0.064 0.8316 0.9129   0.347807
 H 0.564 0.6684 0.9129   0.347807
 H 0.436 0.8316 0.4129   0.347807
 H 0.064 0.3316 0.5871   0.347807
 H 0.936 0.1684 0.0871   0.347807
 C 0.5753 0.009 0.7212   0.512688
 C 0.4247 0.491 0.2212   0.512688
 C 0.0753 0.991 0.7788   0.512688
 C 0.9247 0.509 0.2788   0.512688
 C 0.4247 0.991 0.2788   0.512688
 C 0.5753 0.509 0.7788   0.512688
 C 0.9247 0.009 0.2212   0.512688
 C 0.0753 0.491 0.7212   0.512688
 C 0.5303 0.9109 0.7443   0.525902
 C 0.4697 0.5891 0.2443   0.525902
 C 0.0303 0.0891 0.7557   0.525902
 C 0.9697 0.4109 0.2557   0.525902
 C 0.4697 0.0891 0.2557   0.525902
 C 0.5303 0.4109 0.7557   0.525902
 C 0.9697 0.9109 0.2443   0.525902
 C 0.0303 0.5891 0.7443   0.525902
 C 0.7972 0.0466 0.909   0.639291
 C 0.2028 0.4534 0.409   0.639291
 C 0.2972 0.9534 0.591   0.639291
 C 0.7028 0.5466 0.091   0.639291
 C 0.2028 0.9534 0.091   0.639291
 C 0.7972 0.5466 0.591   0.639291
 C 0.7028 0.0466 0.409   0.639291
 C 0.2972 0.4534 0.909   0.639291
 C 0.7757 0.921 0.9779   0.257806
 C 0.2243 0.579 0.4779   0.257806
 C 0.2757 0.079 0.5221   0.257806
 C 0.7243 0.421 0.0221   0.257806
 C 0.2243 0.079 0.0221   0.257806
 C 0.7757 0.421 0.5221   0.257806
 C 0.7243 0.921 0.4779   0.257806
 C 0.2757 0.579 0.9779   0.257806
 C 0.4738 0.2204 0.022   0.635135
 C 0.5262 0.2796 0.522   0.635135
 C 0.9738 0.7796 0.478   0.635135
 C 0.0262 0.7204 0.978   0.635135
 C 0.5262 0.7796 0.978   0.635135
 C 0.4738 0.7204 0.478   0.635135
 C 0.0262 0.2204 0.522   0.635135
 C 0.9738 0.2796 0.022   0.635135
 C 0.5254 0.1887 0.9062   0.264127
 C 0.4746 0.3113 0.4062   0.264127
 C 0.0254 0.8113 0.5938   0.264127
 C 0.9746 0.6887 0.0938   0.264127
 C 0.4746 0.8113 0.0938   0.264127
 C 0.5254 0.6887 0.5938   0.264127
 C 0.9746 0.1887 0.4062   0.264127
 C 0.0254 0.3113 0.9062   0.264127
 N 0.7246 0.9793 0.9265   -0.539321
 N 0.2754 0.5207 0.4265   -0.539321
 N 0.2246 0.0207 0.5735   -0.539321
 N 0.7754 0.4793 0.0735   -0.539321
 N 0.2754 0.0207 0.0735   -0.539321
 N 0.7246 0.4793 0.5735   -0.539321
 N 0.7754 0.9793 0.4265   -0.539321
 N 0.2246 0.5207 0.9265   -0.539321
 N 0.871 0.9481 0.9915   -0.242101
 N 0.129 0.5519 0.4915   -0.242101
 N 0.371 0.0519 0.5085   -0.242101
 N 0.629 0.4481 0.0085   -0.242101
 N 0.129 0.0519 0.0085   -0.242101
 N 0.871 0.4481 0.5085   -0.242101
 N 0.629 0.9481 0.4915   -0.242101
 N 0.371 0.5519 0.9915   -0.242101
 N 0.8864 0.0303 0.9466   -0.38404
 N 0.1136 0.4697 0.4466   -0.38404
 N 0.3864 0.9697 0.5534   -0.38404
 N 0.6136 0.5303 0.0534   -0.38404
 N 0.1136 0.9697 0.0534   -0.38404
 N 0.8864 0.5303 0.5534   -0.38404
 N 0.6136 0.0303 0.4466   -0.38404
 N 0.3864 0.4697 0.9466   -0.38404
 N 0.7799 0.1237 0.8601   -0.767172
 N 0.2201 0.3763 0.3601   -0.767172
 N 0.2799 0.8763 0.6399   -0.767172
 N 0.7201 0.6237 0.1399   -0.767172
 N 0.2201 0.8763 0.1399   -0.767172
 N 0.7799 0.6237 0.6399   -0.767172
 N 0.7201 0.1237 0.3601   -0.767172
 N 0.2799 0.3763 0.8601   -0.767172
 N 0.478 0.1239 0.0171   -0.387067
 N 0.522 0.3761 0.5171   -0.387067
 N 0.978 0.8761 0.4829   -0.387067
 N 0.022 0.6239 0.9829   -0.387067
 N 0.522 0.8761 0.9829   -0.387067
 N 0.478 0.6239 0.4829   -0.387067
 N 0.022 0.1239 0.5171   -0.387067
 N 0.978 0.3761 0.0171   -0.387067
 N 0.5121 0.1043 0.94078   -0.280228
 N 0.4879 0.3957 0.44078   -0.280228
 N 0.0121 0.8957 0.55922   -0.280228
 N 0.9879 0.6043 0.05922   -0.280228
 N 0.4879 0.8957 0.05922   -0.280228
 N 0.5121 0.6043 0.55922   -0.280228
 N 0.9879 0.1043 0.44078   -0.280228
 N 0.0121 0.3957 0.94078   -0.280228
 N 0.5032 0.2638 0.9546   -0.548704
 N 0.4968 0.2362 0.4546   -0.548704
 N 0.0032 0.7362 0.5454   -0.548704
 N 0.9968 0.7638 0.0454   -0.548704
 N 0.4968 0.7362 0.0454   -0.548704
 N 0.5032 0.7638 0.5454   -0.548704
 N 0.9968 0.2638 0.4546   -0.548704
 N 0.0032 0.2362 0.9546   -0.548704
 N 0.4373 0.2679 0.0865   -0.762034
 N 0.5627 0.2321 0.5865   -0.762034
 N 0.9373 0.7321 0.4135   -0.762034
 N 0.0627 0.7679 0.9135   -0.762034
 N 0.5627 0.7321 0.9135   -0.762034
 N 0.4373 0.7679 0.4135   -0.762034
 N 0.0627 0.2679 0.5865   -0.762034
 N 0.9373 0.2321 0.0865   -0.762034
 O 0.6011 0.0625 0.7779   -0.556439
 O 0.3989 0.4375 0.2779   -0.556439
 O 0.1011 0.9375 0.7221   -0.556439
 O 0.8989 0.5625 0.2221   -0.556439
 O 0.3989 0.9375 0.2221   -0.556439
 O 0.6011 0.5625 0.7221   -0.556439
 O 0.8989 0.0625 0.2779   -0.556439
 O 0.1011 0.4375 0.7779   -0.556439
 O 0.5196 0.8921 0.81629   -0.526997
 O 0.4804 0.6079 0.31629   -0.526997
 O 0.0196 0.1079 0.68371   -0.526997
 O 0.9804 0.3921 0.18371   -0.526997
 O 0.4804 0.1079 0.18371   -0.526997
 O 0.5196 0.3921 0.68371   -0.526997
 O 0.9804 0.8921 0.31629   -0.526997
 O 0.0196 0.6079 0.81629   -0.526997
 O 0.5819 0.0251 0.64793   -0.553637
 O 0.4181 0.4749 0.14793   -0.553637
 O 0.0819 0.9749 0.85207   -0.553637
 O 0.9181 0.5251 0.35207   -0.553637
 O 0.4181 0.9749 0.35207   -0.553637
 O 0.5819 0.5251 0.85207   -0.553637
 O 0.9181 0.0251 0.14793   -0.553637
 O 0.0819 0.4749 0.64793   -0.553637
 O 0.5048 0.8553 0.68949   -0.525617
 O 0.4952 0.6447 0.18949   -0.525617
 O 0.0048 0.1447 0.81051   -0.525617
 O 0.9952 0.3553 0.31051   -0.525617
 O 0.4952 0.1447 0.31051   -0.525617
 O 0.5048 0.3553 0.81051   -0.525617
 O 0.9952 0.8553 0.18949   -0.525617
 O 0.0048 0.6447 0.68949   -0.525617
