{'_ref': 'TBD', '_srcid': 'CAKYAQ_clean', 'submitters': [{'name': 'Dalar Nazarian Jeff Camp and David Sholl', 'email': 'dalar@gatech.edu jcamp6@gatech.edu'}], '_method': 'VASP DFT with PBE;DDEC'}
data_Mg3H26C32(N2O9)2
_symmetry_space_group_name_H-M   'P 1'
_cell_length_a   14.97400000
_cell_length_b   19.70600000
_cell_length_c   19.76000000
_cell_angle_alpha   90.00000000
_cell_angle_beta   90.00000000
_cell_angle_gamma   90.00000000
_symmetry_Int_Tables_number   1
_chemical_formula_structural   Mg3H26C32(N2O9)2
_chemical_formula_sum   'Mg12 H104 C128 N16 O72'
_cell_volume   5830.73424544
_cell_formula_units_Z   4
loop_
 _symmetry_equiv_pos_site_id
 _symmetry_equiv_pos_as_xyz
  1  'x, y, z'
loop_
 _atom_site_label
 _atom_site_fract_x
 _atom_site_fract_y
 _atom_site_fract_z
 _atom_site_charge
 Mg 0.73545 0.52583 0.97468   1.536311
 Mg 0.26455 0.97417 0.47468   1.536311
 Mg 0.23545 0.47417 0.52532   1.536311
 Mg 0.76455 0.02583 0.02532   1.536311
 Mg 0.26455 0.47417 0.02532   1.536311
 Mg 0.73545 0.02583 0.52532   1.536311
 Mg 0.76455 0.52583 0.47468   1.536311
 Mg 0.23545 0.97417 0.97468   1.536311
 Mg 0.5 0.5 0.0   1.527896
 Mg 0.5 0.0 0.5   1.527896
 Mg 0.0 0.5 0.5   1.527896
 Mg 0.0 0.0 0.0   1.527896
 H 0.8208 0.4911 0.6132   0.387217
 H 0.3468 0.7984 0.0399   0.349423
 H 0.3805 0.8694 0.0433   0.311632
 H 0.3459 0.5324 0.6998   0.342392
 H 0.3803 0.5341 0.6291   0.329407
 H 0.4468 0.705 0.0232   0.13258
 H 0.7108 0.7413 0.0098   0.086298
 H 0.5376 0.8947 0.0337   0.103958
 H 0.5384 0.5281 0.6035   0.121736
 H 0.7098 0.5088 0.7584   0.086407
 H 0.4477 0.5221 0.7949   0.110163
 H 0.658 0.485 0.06   0.339135
 H 0.663 0.444 0.003   0.398193
 H 0.1792 0.0089 0.1132   0.387217
 H 0.6532 0.7016 0.5399   0.349423
 H 0.6195 0.6306 0.5433   0.311632
 H 0.6541 0.9676 0.1998   0.342392
 H 0.6197 0.9659 0.1291   0.329407
 H 0.5532 0.795 0.5232   0.13258
 H 0.2892 0.7587 0.5098   0.086298
 H 0.4624 0.6053 0.5337   0.103958
 H 0.4616 0.9719 0.1035   0.121737
 H 0.2902 0.9912 0.2584   0.086407
 H 0.5523 0.9779 0.2949   0.110163
 H 0.342 0.015 0.56   0.339135
 H 0.337 0.056 0.503   0.398193
 H 0.3208 0.5089 0.8868   0.387217
 H 0.8468 0.2016 0.4601   0.349423
 H 0.8805 0.1306 0.4567   0.311632
 H 0.8459 0.4676 0.8002   0.342392
 H 0.8803 0.4659 0.8709   0.329407
 H 0.9468 0.295 0.4768   0.13258
 H 0.2108 0.2587 0.4902   0.086298
 H 0.0376 0.1053 0.4663   0.103958
 H 0.0384 0.4719 0.8965   0.121736
 H 0.2098 0.4912 0.7416   0.086407
 H 0.9477 0.4779 0.7051   0.110163
 H 0.158 0.515 0.44   0.339135
 H 0.163 0.556 0.497   0.398193
 H 0.6792 0.9911 0.3868   0.387217
 H 0.1532 0.2984 0.9601   0.349423
 H 0.1195 0.3694 0.9567   0.311632
 H 0.1541 0.0324 0.3002   0.342392
 H 0.1197 0.0341 0.3709   0.329407
 H 0.0532 0.205 0.9768   0.13258
 H 0.7892 0.2413 0.9902   0.086298
 H 0.9624 0.3947 0.9663   0.103958
 H 0.9616 0.0281 0.3965   0.121737
 H 0.7902 0.0088 0.2416   0.086407
 H 0.0523 0.0221 0.2051   0.110163
 H 0.842 0.985 0.94   0.339135
 H 0.837 0.944 0.997   0.398193
 H 0.1792 0.5089 0.3868   0.387217
 H 0.6532 0.2016 0.9601   0.349423
 H 0.6195 0.1306 0.9567   0.311632
 H 0.6541 0.4676 0.3002   0.342392
 H 0.6197 0.4659 0.3709   0.329407
 H 0.5532 0.295 0.9768   0.13258
 H 0.2892 0.2587 0.9902   0.086298
 H 0.4624 0.1053 0.9663   0.103958
 H 0.4616 0.4719 0.3965   0.121736
 H 0.2902 0.4912 0.2416   0.086407
 H 0.5523 0.4779 0.2051   0.110163
 H 0.342 0.515 0.94   0.339135
 H 0.337 0.556 0.997   0.398193
 H 0.8208 0.9911 0.8868   0.387217
 H 0.3468 0.2984 0.4601   0.349423
 H 0.3805 0.3694 0.4567   0.311632
 H 0.3459 0.0324 0.8002   0.342392
 H 0.3803 0.0341 0.8709   0.329407
 H 0.4468 0.205 0.4768   0.13258
 H 0.7108 0.2413 0.4902   0.086298
 H 0.5376 0.3947 0.4663   0.103958
 H 0.5384 0.0281 0.8965   0.121737
 H 0.7098 0.0088 0.7416   0.086407
 H 0.4477 0.0221 0.7051   0.110163
 H 0.658 0.985 0.44   0.339135
 H 0.663 0.944 0.497   0.398193
 H 0.6792 0.4911 0.1132   0.387217
 H 0.1532 0.7984 0.5399   0.349423
 H 0.1195 0.8694 0.5433   0.311632
 H 0.1541 0.5324 0.1998   0.342392
 H 0.1197 0.5341 0.1291   0.329407
 H 0.0532 0.705 0.5232   0.13258
 H 0.7892 0.7413 0.5098   0.086298
 H 0.9624 0.8947 0.5337   0.103958
 H 0.9616 0.5281 0.1035   0.121736
 H 0.7902 0.5088 0.2584   0.086407
 H 0.0523 0.5221 0.2949   0.110163
 H 0.842 0.485 0.56   0.339135
 H 0.837 0.444 0.503   0.398193
 H 0.3208 0.0089 0.6132   0.387217
 H 0.8468 0.7016 0.0399   0.349423
 H 0.8805 0.6306 0.0433   0.311632
 H 0.8459 0.9676 0.6998   0.342392
 H 0.8803 0.9659 0.6291   0.329407
 H 0.9468 0.795 0.0232   0.13258
 H 0.2108 0.7587 0.0098   0.086298
 H 0.0376 0.6053 0.0337   0.103958
 H 0.0384 0.9719 0.6035   0.121737
 H 0.2098 0.9912 0.7584   0.086407
 H 0.9477 0.9779 0.7949   0.110163
 H 0.158 0.015 0.06   0.339135
 H 0.163 0.056 0.003   0.398193
 C 0.581 0.515 0.7881   -0.108249
 C 0.5823 0.7112 0.0125   -0.14596
 C 0.4783 0.8031 0.0292   0.290278
 C 0.4942 0.7355 0.022   -0.155847
 C 0.6354 0.5179 0.6735   -0.161452
 C 0.7109 0.5152 0.6235   0.698171
 C 0.6363 0.8262 0.0176   -0.128316
 C 0.4777 0.5254 0.6963   0.282481
 C 0.5969 0.637 0.0061   0.792788
 C 0.6524 0.757 0.0129   -0.042236
 C 0.5487 0.8486 0.0278   -0.180246
 C 0.5493 0.5244 0.6497   -0.141929
 C 0.6516 0.5132 0.7426   -0.051182
 C 0.4949 0.521 0.7644   -0.135019
 C 0.5977 0.511 0.8635   0.792959
 C 0.7119 0.8757 0.0188   0.704292
 C 0.419 0.985 0.2881   -0.108249
 C 0.4177 0.7888 0.5125   -0.14596
 C 0.5217 0.6969 0.5292   0.290278
 C 0.5058 0.7645 0.522   -0.155847
 C 0.3646 0.9821 0.1735   -0.161452
 C 0.2891 0.9848 0.1235   0.698171
 C 0.3637 0.6738 0.5176   -0.128316
 C 0.5223 0.9746 0.1963   0.282481
 C 0.4031 0.863 0.5061   0.792788
 C 0.3476 0.743 0.5129   -0.042236
 C 0.4513 0.6514 0.5278   -0.180246
 C 0.4507 0.9756 0.1497   -0.141929
 C 0.3484 0.9868 0.2426   -0.051182
 C 0.5051 0.979 0.2644   -0.135019
 C 0.4023 0.989 0.3635   0.792959
 C 0.2881 0.6243 0.5188   0.704292
 C 0.081 0.485 0.7119   -0.108249
 C 0.0823 0.2888 0.4875   -0.14596
 C 0.9783 0.1969 0.4708   0.290278
 C 0.9942 0.2645 0.478   -0.155847
 C 0.1354 0.4821 0.8265   -0.161452
 C 0.2109 0.4848 0.8765   0.698171
 C 0.1363 0.1738 0.4824   -0.128316
 C 0.9777 0.4746 0.8037   0.282482
 C 0.0969 0.363 0.4939   0.792788
 C 0.1524 0.243 0.4871   -0.042236
 C 0.0487 0.1514 0.4722   -0.180246
 C 0.0493 0.4756 0.8503   -0.141929
 C 0.1516 0.4868 0.7574   -0.051182
 C 0.9949 0.479 0.7356   -0.135019
 C 0.0977 0.489 0.6365   0.792959
 C 0.2119 0.1243 0.4812   0.704292
 C 0.919 0.015 0.2119   -0.108249
 C 0.9177 0.2112 0.9875   -0.14596
 C 0.0217 0.3031 0.9708   0.290278
 C 0.0058 0.2355 0.978   -0.155847
 C 0.8646 0.0179 0.3265   -0.161452
 C 0.7891 0.0152 0.3765   0.698171
 C 0.8637 0.3262 0.9824   -0.128316
 C 0.0223 0.0254 0.3037   0.282481
 C 0.9031 0.137 0.9939   0.792788
 C 0.8476 0.257 0.9871   -0.042236
 C 0.9513 0.3486 0.9722   -0.180246
 C 0.9507 0.0244 0.3503   -0.141929
 C 0.8484 0.0132 0.2574   -0.051182
 C 0.0051 0.021 0.2356   -0.135019
 C 0.9023 0.011 0.1365   0.792959
 C 0.7881 0.3757 0.9812   0.704292
 C 0.419 0.485 0.2119   -0.108249
 C 0.4177 0.2888 0.9875   -0.14596
 C 0.5217 0.1969 0.9708   0.290278
 C 0.5058 0.2645 0.978   -0.155847
 C 0.3646 0.4821 0.3265   -0.161452
 C 0.2891 0.4848 0.3765   0.698171
 C 0.3637 0.1738 0.9824   -0.128316
 C 0.5223 0.4746 0.3037   0.282482
 C 0.4031 0.363 0.9939   0.792788
 C 0.3476 0.243 0.9871   -0.042236
 C 0.4513 0.1514 0.9722   -0.180246
 C 0.4507 0.4756 0.3503   -0.141929
 C 0.3484 0.4868 0.2574   -0.051182
 C 0.5051 0.479 0.2356   -0.135019
 C 0.4023 0.489 0.1365   0.792959
 C 0.2881 0.1243 0.9812   0.704292
 C 0.581 0.015 0.7119   -0.108249
 C 0.5823 0.2112 0.4875   -0.14596
 C 0.4783 0.3031 0.4708   0.290278
 C 0.4942 0.2355 0.478   -0.155847
 C 0.6354 0.0179 0.8265   -0.161452
 C 0.7109 0.0152 0.8765   0.698171
 C 0.6363 0.3262 0.4824   -0.128316
 C 0.4777 0.0254 0.8037   0.282481
 C 0.5969 0.137 0.4939   0.792788
 C 0.6524 0.257 0.4871   -0.042236
 C 0.5487 0.3486 0.4722   -0.180246
 C 0.5493 0.0244 0.8503   -0.141929
 C 0.6516 0.0132 0.7574   -0.051182
 C 0.4949 0.021 0.7356   -0.135019
 C 0.5977 0.011 0.6365   0.792959
 C 0.7119 0.3757 0.4812   0.704292
 C 0.919 0.515 0.2881   -0.108249
 C 0.9177 0.7112 0.5125   -0.14596
 C 0.0217 0.8031 0.5292   0.290278
 C 0.0058 0.7355 0.522   -0.155847
 C 0.8646 0.5179 0.1735   -0.161452
 C 0.7891 0.5152 0.1235   0.698171
 C 0.8637 0.8262 0.5176   -0.128316
 C 0.0223 0.5254 0.1963   0.282482
 C 0.9031 0.637 0.5061   0.792788
 C 0.8476 0.757 0.5129   -0.042236
 C 0.9513 0.8486 0.5278   -0.180246
 C 0.9507 0.5244 0.1497   -0.141929
 C 0.8484 0.5132 0.2426   -0.051182
 C 0.0051 0.521 0.2644   -0.135019
 C 0.9023 0.511 0.3635   0.792959
 C 0.7881 0.8757 0.5188   0.704292
 C 0.081 0.985 0.7881   -0.108249
 C 0.0823 0.7888 0.0125   -0.14596
 C 0.9783 0.6969 0.0292   0.290278
 C 0.9942 0.7645 0.022   -0.155847
 C 0.1354 0.9821 0.6735   -0.161452
 C 0.2109 0.9848 0.6235   0.698171
 C 0.1363 0.6738 0.0176   -0.128316
 C 0.9777 0.9746 0.6963   0.282481
 C 0.0969 0.863 0.0061   0.792788
 C 0.1524 0.743 0.0129   -0.042236
 C 0.0487 0.6514 0.0278   -0.180246
 C 0.0493 0.9756 0.6497   -0.141929
 C 0.1516 0.9868 0.7426   -0.051182
 C 0.9949 0.979 0.7644   -0.135019
 C 0.0977 0.989 0.8635   0.792959
 C 0.2119 0.6243 0.0188   0.704292
 N 0.3905 0.8267 0.0387   -0.73679
 N 0.39 0.5314 0.6719   -0.705474
 N 0.6095 0.6733 0.5387   -0.73679
 N 0.61 0.9686 0.1719   -0.705474
 N 0.8905 0.1733 0.4613   -0.73679
 N 0.89 0.4686 0.8281   -0.705474
 N 0.1095 0.3267 0.9613   -0.73679
 N 0.11 0.0314 0.3281   -0.705474
 N 0.6095 0.1733 0.9613   -0.73679
 N 0.61 0.4686 0.3281   -0.705474
 N 0.3905 0.3267 0.4613   -0.73679
 N 0.39 0.0314 0.8281   -0.705474
 N 0.1095 0.8267 0.5387   -0.73679
 N 0.11 0.5314 0.1719   -0.705474
 N 0.8905 0.6733 0.0387   -0.73679
 N 0.89 0.9686 0.6719   -0.705474
 O 0.5317 0.5976 0.014   -0.731238
 O 0.6742 0.6167 0.9908   -0.796071
 O 0.5311 0.507 0.9005   -0.717826
 O 0.6768 0.513 0.8826   -0.754819
 O 0.6959 0.9353 0.0378   -0.776794
 O 0.7868 0.855 0.9985   -0.592663
 O 0.7843 0.4904 0.644   -0.41752
 O 0.6963 0.5367 0.5648   -0.63693
 O 0.6314 0.4704 0.0259   -0.843208
 O 0.4683 0.9024 0.514   -0.731238
 O 0.3258 0.8833 0.4908   -0.796071
 O 0.4689 0.993 0.4005   -0.717826
 O 0.3232 0.987 0.3826   -0.754819
 O 0.3041 0.5647 0.5378   -0.776794
 O 0.2132 0.645 0.4985   -0.592663
 O 0.2157 0.0096 0.144   -0.41752
 O 0.3037 0.9633 0.0648   -0.63693
 O 0.3686 0.0296 0.5259   -0.843208
 O 0.0317 0.4024 0.486   -0.731238
 O 0.1742 0.3833 0.5092   -0.796071
 O 0.0311 0.493 0.5995   -0.717826
 O 0.1768 0.487 0.6174   -0.754819
 O 0.1959 0.0647 0.4622   -0.776794
 O 0.2868 0.145 0.5015   -0.592663
 O 0.2843 0.5096 0.856   -0.41752
 O 0.1963 0.4633 0.9352   -0.63693
 O 0.1314 0.5296 0.4741   -0.843208
 O 0.9683 0.0976 0.986   -0.731238
 O 0.8258 0.1167 0.0092   -0.796071
 O 0.9689 0.007 0.0995   -0.717826
 O 0.8232 0.013 0.1174   -0.754819
 O 0.8041 0.4353 0.9622   -0.776794
 O 0.7132 0.355 0.0015   -0.592663
 O 0.7157 0.9904 0.356   -0.41752
 O 0.8037 0.0367 0.4352   -0.63693
 O 0.8686 0.9704 0.9741   -0.843208
 O 0.4683 0.4024 0.986   -0.731238
 O 0.3258 0.3833 0.0092   -0.796071
 O 0.4689 0.493 0.0995   -0.717826
 O 0.3232 0.487 0.1174   -0.754819
 O 0.3041 0.0647 0.9622   -0.776794
 O 0.2132 0.145 0.0015   -0.592663
 O 0.2157 0.5096 0.356   -0.41752
 O 0.3037 0.4633 0.4352   -0.63693
 O 0.3686 0.5296 0.9741   -0.843208
 O 0.5317 0.0976 0.486   -0.731238
 O 0.6742 0.1167 0.5092   -0.796071
 O 0.5311 0.007 0.5995   -0.717826
 O 0.6768 0.013 0.6174   -0.754819
 O 0.6959 0.4353 0.4622   -0.776794
 O 0.7868 0.355 0.5015   -0.592663
 O 0.7843 0.9904 0.856   -0.41752
 O 0.6963 0.0367 0.9352   -0.63693
 O 0.6314 0.9704 0.4741   -0.843208
 O 0.9683 0.5976 0.514   -0.731238
 O 0.8258 0.6167 0.4908   -0.796071
 O 0.9689 0.507 0.4005   -0.717826
 O 0.8232 0.513 0.3826   -0.754819
 O 0.8041 0.9353 0.5378   -0.776794
 O 0.7132 0.855 0.4985   -0.592663
 O 0.7157 0.4904 0.144   -0.41752
 O 0.8037 0.5367 0.0648   -0.63693
 O 0.8686 0.4704 0.5259   -0.843208
 O 0.0317 0.9024 0.014   -0.731238
 O 0.1742 0.8833 0.9908   -0.796071
 O 0.0311 0.993 0.9005   -0.717826
 O 0.1768 0.987 0.8826   -0.754819
 O 0.1959 0.5647 0.0378   -0.776794
 O 0.2868 0.645 0.9985   -0.592663
 O 0.2843 0.0096 0.644   -0.41752
 O 0.1963 0.9633 0.5648   -0.63693
 O 0.1314 0.0296 0.0259   -0.843208
