{'_ref': 'TBD', '_srcid': 'CAKYAQ_clean', 'submitters': [{'name': 'Dalar Nazarian Jeff Camp and David Sholl', 'email': 'dalar@gatech.edu jcamp6@gatech.edu'}], '_method': 'VASP DFT with PBE;DDEC'}
data_Cu2H37C35(N5O4)2
_symmetry_space_group_name_H-M   'P 1'
_cell_length_a   10.70199955
_cell_length_b   11.18600001
_cell_length_c   22.58400000
_cell_angle_alpha   93.80000077
_cell_angle_beta   90.12999975
_cell_angle_gamma   115.57000006
_symmetry_Int_Tables_number   1
_chemical_formula_structural   Cu2H37C35(N5O4)2
_chemical_formula_sum   'Cu4 H74 C70 N20 O16'
_cell_volume   2432.00172749
_cell_formula_units_Z   2
loop_
 _symmetry_equiv_pos_site_id
 _symmetry_equiv_pos_as_xyz
  1  'x, y, z'
loop_
 _atom_site_label
 _atom_site_fract_x
 _atom_site_fract_y
 _atom_site_fract_z
 _atom_site_charge
 Cu 0.20054 0.51049 0.72579   0.731638
 Cu 0.79946 0.48951 0.27421   0.731638
 Cu 0.5 0.5 0.5   0.828922
 Cu 0.0 0.0 0.0   0.829299
 H 0.6391 0.314 0.5189   0.100049
 H 0.3213 0.3203 0.602   0.121949
 H 0.3605 0.1373 0.6375   0.14633
 H 0.6681 0.1274 0.5706   0.101939
 H 0.5591 0.0541 0.6178   0.09057
 H 0.5215 0.9079 0.5349   0.094481
 H 0.3929 0.9395 0.541   0.089873
 H 0.4042 0.5955 0.8392   0.113239
 H 0.147 0.2373 0.7806   0.089888
 H 0.2746 0.2166 0.8651   0.146408
 H 0.4242 0.4407 0.9571   0.107923
 H 0.5306 0.5563 0.9222   0.106913
 H 0.5117 0.2972 0.9172   0.092044
 H 0.6289 0.4202 0.9522   0.109767
 H 0.5969 0.3886 0.827   0.04911
 H 0.7134 0.5134 0.8616   0.084327
 H 0.8121 0.3834 0.8972   0.104368
 H 0.6911 0.2544 0.868   0.098562
 H 0.0175 0.4996 0.8342   0.094706
 H 0.8874 0.2941 0.6818   0.099625
 H 0.6891 0.2216 0.7478   0.140432
 H 0.4705 0.466 0.7342   0.075295
 H 0.4099 0.7069 0.6332   0.105399
 H 0.6363 0.7152 0.6111   0.139095
 H 0.7283 0.5121 0.6391   0.07953
 H 0.7033 0.4881 0.7066   0.062946
 H 0.925 0.6491 0.6953   0.106225
 H 0.8672 0.7344 0.6622   0.096315
 H 0.8345 0.6877 0.7831   0.082048
 H 0.7647 0.7644 0.7507   0.067797
 H 0.0569 0.8565 0.7662   0.102169
 H 0.99 0.9318 0.7308   0.087354
 H 0.0483 0.8763 0.8804   0.105255
 H 0.865 0.0584 0.7957   0.121921
 H 0.8757 0.1205 0.9016   0.110257
 H 0.0501 0.418 0.4115   0.093895
 H 0.1912 0.4965 0.955   0.08829
 H 0.3609 0.686 0.4811   0.100049
 H 0.6787 0.6797 0.398   0.121949
 H 0.6395 0.8627 0.3625   0.14633
 H 0.3319 0.8726 0.4294   0.101939
 H 0.4409 0.9459 0.3822   0.09057
 H 0.4785 0.0921 0.4651   0.094481
 H 0.6071 0.0605 0.459   0.089872
 H 0.5958 0.4045 0.1608   0.113239
 H 0.853 0.7627 0.2194   0.089888
 H 0.7254 0.7834 0.1349   0.146408
 H 0.5758 0.5593 0.0429   0.107924
 H 0.4694 0.4437 0.0778   0.106913
 H 0.4883 0.7028 0.0828   0.092044
 H 0.3711 0.5798 0.0478   0.109768
 H 0.4031 0.6114 0.173   0.04911
 H 0.2866 0.4866 0.1384   0.084327
 H 0.1879 0.6166 0.1028   0.104368
 H 0.3089 0.7456 0.132   0.098562
 H 0.9825 0.5004 0.1658   0.094706
 H 0.1126 0.7059 0.3182   0.099625
 H 0.3109 0.7784 0.2522   0.140432
 H 0.5295 0.534 0.2658   0.075295
 H 0.5901 0.2931 0.3668   0.105399
 H 0.3637 0.2848 0.3889   0.139095
 H 0.2717 0.4879 0.3609   0.07953
 H 0.2967 0.5119 0.2934   0.062946
 H 0.075 0.3509 0.3047   0.106225
 H 0.1328 0.2656 0.3378   0.096315
 H 0.1655 0.3123 0.2169   0.082048
 H 0.2353 0.2356 0.2493   0.067797
 H 0.9431 0.1435 0.2338   0.102169
 H 0.01 0.0682 0.2692   0.087354
 H 0.9517 0.1237 0.1196   0.105255
 H 0.135 0.9416 0.2043   0.121921
 H 0.1243 0.8795 0.0984   0.110257
 H 0.9499 0.582 0.5885   0.093895
 H 0.8088 0.5035 0.045   0.08829
 C 0.5652 0.2937 0.5441   0.124335
 C 0.3909 0.2964 0.5898   0.070381
 C 0.4117 0.1949 0.6096   -0.183088
 C 0.5702 0.0895 0.579   -0.02784
 C 0.4906 0.9772 0.5324   -0.163311
 C 0.3552 0.5034 0.83503   0.120893
 C 0.2152 0.3078 0.8032   0.010578
 C 0.2851 0.2954 0.8497   -0.143395
 C 0.4746 0.461 0.92063   -0.045557
 C 0.5681 0.3922 0.91698   -0.148565
 C 0.6565 0.4186 0.86251   -0.154335
 C 0.7482 0.3478 0.86313   -0.03446
 C 0.9612 0.4395 0.80407   0.155216
 C 0.8895 0.327 0.72091   0.031266
 C 0.7787 0.2859 0.7571   -0.203121
 C 0.4824 0.5266 0.70596   0.115149
 C 0.45 0.6584 0.65063   0.036553
 C 0.5754 0.6637 0.63851   -0.161864
 C 0.7181 0.552 0.6772   -0.007827
 C 0.8488 0.6739 0.6934   -0.16643
 C 0.8447 0.745 0.75122   -0.153339
 C 0.9771 0.8757 0.76337   -0.025012
 C 0.0048 0.9301 0.87269   0.173288
 C 0.9036 0.0301 0.8256   -0.189999
 C 0.9096 0.0635 0.8839   0.055547
 C 0.2055 0.3959 0.49502   0.664555
 C 0.0916 0.4422 0.49943   -0.073034
 C 0.0308 0.4522 0.44711   -0.088482
 C 0.059 0.4874 0.55311   -0.095869
 C 0.1109 0.4668 0.61174   0.658986
 C 0.0719 0.2789 0.00829   0.657957
 C 0.0311 0.3923 0.0066   -0.120498
 C 0.9172 0.3948 0.03364   -0.070943
 C 0.1139 0.4981 0.97308   -0.087825
 C 0.8235 0.2913 0.0739   0.675247
 C 0.4348 0.7063 0.4559   0.124335
 C 0.6091 0.7036 0.4102   0.070381
 C 0.5883 0.8051 0.3904   -0.183088
 C 0.4298 0.9105 0.421   -0.02784
 C 0.5094 0.0228 0.4676   -0.163312
 C 0.6448 0.4966 0.16497   0.120893
 C 0.7848 0.6922 0.1968   0.010578
 C 0.7149 0.7046 0.1503   -0.143395
 C 0.5254 0.539 0.07937   -0.045558
 C 0.4319 0.6078 0.08302   -0.148565
 C 0.3435 0.5814 0.13749   -0.154335
 C 0.2518 0.6522 0.13687   -0.03446
 C 0.0388 0.5605 0.19593   0.155216
 C 0.1105 0.673 0.27909   0.031266
 C 0.2213 0.7141 0.2429   -0.203121
 C 0.5176 0.4734 0.29404   0.115149
 C 0.55 0.3416 0.34937   0.036553
 C 0.4246 0.3363 0.36149   -0.161864
 C 0.2819 0.448 0.3228   -0.007827
 C 0.1512 0.3261 0.3066   -0.166431
 C 0.1553 0.255 0.24878   -0.153339
 C 0.0229 0.1243 0.23663   -0.025012
 C 0.9952 0.0699 0.12731   0.173288
 C 0.0964 0.9699 0.1744   -0.189999
 C 0.0904 0.9365 0.1161   0.055547
 C 0.7945 0.6041 0.50498   0.664555
 C 0.9084 0.5578 0.50057   -0.073034
 C 0.9692 0.5478 0.55289   -0.088481
 C 0.941 0.5126 0.44689   -0.095867
 C 0.8891 0.5332 0.38826   0.658986
 C 0.9281 0.7211 0.99171   0.657958
 C 0.9689 0.6077 0.9934   -0.120501
 C 0.0828 0.6052 0.96636   -0.070935
 C 0.8861 0.5019 0.02692   -0.087817
 C 0.1765 0.7087 0.9261   0.675247
 N 0.5227 0.1938 0.58048   0.034931
 N 0.488 0.3587 0.54907   -0.381775
 N 0.3908 0.5691 0.69319   -0.362735
 N 0.5962 0.5803 0.67369   0.053461
 N 0.9662 0.9455 0.81869   0.037355
 N 0.9734 0.000700000000002 0.91347   -0.383564
 N 0.2577 0.4379 0.79383   -0.367352
 N 0.3749 0.4212 0.87001   0.06528
 N 0.8278 0.3593 0.80965   0.061277
 N 0.0041 0.4236 0.75057   -0.35442
 N 0.4773 0.8062 0.41952   0.034931
 N 0.512 0.6413 0.45093   -0.381775
 N 0.6092 0.4309 0.30681   -0.362735
 N 0.4038 0.4197 0.32631   0.053461
 N 0.0338 0.0545 0.18131   0.037355
 N 0.0266 0.9993 0.08653   -0.383564
 N 0.7423 0.5621 0.20617   -0.367352
 N 0.6251 0.5788 0.12999   0.06528
 N 0.1722 0.6407 0.19035   0.061278
 N 0.9959 0.5764 0.24943   -0.35442
 O 0.1867 0.2953 0.46377   -0.611253
 O 0.3173 0.4775 0.52138   -0.607013
 O 0.1173 0.3615 0.61809   -0.60219
 O 0.1393 0.5598 0.65255   -0.597141
 O 0.9734 0.1644 0.01194   -0.561145
 O 0.1955 0.3039 0.00514   -0.636781
 O 0.8738 0.2821 0.12131   -0.656376
 O 0.6998 0.228 0.05745   -0.602762
 O 0.8133 0.7047 0.53623   -0.611253
 O 0.6827 0.5225 0.47862   -0.607013
 O 0.8827 0.6385 0.38191   -0.60219
 O 0.8607 0.4402 0.34745   -0.597141
 O 0.0266 0.8356 0.98806   -0.561145
 O 0.8045 0.6961 0.99486   -0.636782
 O 0.1262 0.7179 0.87869   -0.656376
 O 0.3002 0.772 0.94255   -0.602762
