{'_ref': 'TBD', '_srcid': 'CAKYAQ_clean', 'submitters': [{'name': 'Dalar Nazarian Jeff Camp and David Sholl', 'email': 'dalar@gatech.edu jcamp6@gatech.edu'}], '_method': 'VASP DFT with PBE;DDEC'}
data_AlH5C8O5
_symmetry_space_group_name_H-M   'P 1'
_cell_length_a   6.67333401
_cell_length_b   11.12837281
_cell_length_c   11.12852012
_cell_angle_alpha   70.25771462
_cell_angle_beta   72.55358778
_cell_angle_gamma   72.55600090
_symmetry_Int_Tables_number   1
_chemical_formula_structural   AlH5C8O5
_chemical_formula_sum   'Al2 H10 C16 O10'
_cell_volume   723.720952872
_cell_formula_units_Z   2
loop_
 _symmetry_equiv_pos_site_id
 _symmetry_equiv_pos_as_xyz
  1  'x, y, z'
loop_
 _atom_site_label
 _atom_site_fract_x
 _atom_site_fract_y
 _atom_site_fract_z
 _atom_site_charge
 Al 0.005764 0.49828 0.99709   1.845278
 Al 0.505644 0.49834 0.99703   1.848727
 H 0.62291 0.111557 0.00419   0.110726
 H 0.888268 0.491573 0.38362   0.112678
 H 0.767918 0.505753 0.6102   0.11194
 H 0.74332 0.884957 0.99005   0.112115
 H 0.388318 0.884873 0.99038   0.112387
 H 0.12278 0.505737 0.61027   0.111583
 H 0.24313 0.491567 0.38368   0.112223
 H 0.267898 0.111473 0.00452   0.111508
 H 0.756059 0.62151 0.87345   0.476355
 H 0.256069 0.37476 0.12038   0.477131
 C 0.790359 0.063513 0.00166   -0.071018
 C 0.72083 0.494077 0.43171   -0.077941
 C 0.65109 0.503117 0.56219   -0.073067
 C 0.860139 0.933013 0.99264   -0.0749
 C 0.22091 0.932947 0.99282   -0.075847
 C 0.290249 0.503133 0.56222   -0.073249
 C 0.359989 0.494093 0.43174   -0.076136
 C 0.15112 0.063447 0.00184   -0.072175
 C 0.934399 0.13151 0.00659   -0.100931
 C 0.861589 0.27366 0.01004   0.719662
 C 0.577009 0.48907 0.36371   -0.095462
 C 0.649869 0.48538 0.22166   0.724149
 C 0.434349 0.50794 0.63026   -0.097503
 C 0.361599 0.51136 0.7724   0.722017
 C 0.077129 0.86496 0.98776   -0.098316
 C 0.150009 0.72288 0.98412   0.722393
 O 0.003142 0.332167 0.00966   -0.649545
 O 0.508097 0.485773 0.16316   -0.653549
 O 0.161747 0.510913 0.83094   -0.650705
 O 0.349702 0.664417 0.98447   -0.650276
 O 0.008227 0.664403 0.98451   -0.651434
 O 0.503202 0.510917 0.83091   -0.65116
 O 0.849562 0.485737 0.16319   -0.651242
 O 0.661737 0.332233 0.00954   -0.648741
 O 0.755859 0.55434 0.94094   -1.118276
 O 0.255999 0.44212 0.05312   -1.1194
