{'_ref': 'TBD', '_srcid': 'CAKYAQ_clean', 'submitters': [{'name': 'Dalar Nazarian Jeff Camp and David Sholl', 'email': 'dalar@gatech.edu jcamp6@gatech.edu'}], '_method': 'VASP DFT with PBE;DDEC'}
data_AlH5C8O5
_symmetry_space_group_name_H-M   'P 1'
_cell_length_a   6.57212431
_cell_length_b   10.94201326
_cell_length_c   10.94416076
_cell_angle_alpha   75.79832196
_cell_angle_beta   72.59907678
_cell_angle_gamma   72.63478136
_symmetry_Int_Tables_number   1
_chemical_formula_structural   AlH5C8O5
_chemical_formula_sum   'Al2 H10 C16 O10'
_cell_volume   706.168427043
_cell_formula_units_Z   2
loop_
 _symmetry_equiv_pos_site_id
 _symmetry_equiv_pos_as_xyz
  1  'x, y, z'
loop_
 _atom_site_label
 _atom_site_fract_x
 _atom_site_fract_y
 _atom_site_fract_z
 _atom_site_charge
 Al 0.253928 0.756327 0.248654   1.851513
 Al 0.752979 0.756337 0.249363   1.846297
 H 0.024013 0.375449 0.236238   0.112215
 H 0.144482 0.14276 0.228608   0.109822
 H 0.982588 0.758579 0.631467   0.11156
 H 0.862167 0.766949 0.864177   0.110257
 H 0.637383 0.759973 0.63182   0.110351
 H 0.516843 0.768673 0.86444   0.109721
 H 0.368717 0.374495 0.236064   0.112109
 H 0.489795 0.141296 0.228625   0.111842
 H 0.506106 0.87384 0.131995   0.475573
 H 0.004099 0.639949 0.367685   0.478035
 C 0.905605 0.325118 0.235942   -0.074451
 C 0.974834 0.191899 0.231322   -0.068972
 C 0.101345 0.75915 0.681343   -0.071651
 C 0.032195 0.76424 0.814493   -0.071713
 C 0.468507 0.760022 0.681524   -0.068497
 C 0.399586 0.765052 0.814714   -0.072149
 C 0.538093 0.324466 0.235941   -0.073717
 C 0.607662 0.191027 0.231261   -0.072417
 C 0.825812 0.122423 0.232202   -0.103822
 C 0.685354 0.392612 0.241111   -0.099715
 C 0.89572 0.979234 0.236892   0.721494
 C 0.611503 0.533883 0.248402   0.723431
 C 0.181046 0.765476 0.883153   -0.10194
 C 0.320866 0.755766 0.613243   -0.106171
 C 0.110436 0.763706 0.025783   0.723276
 C 0.394415 0.751086 0.471503   0.729653
 O 0.409082 0.59198 0.250208   -0.649398
 O 0.096521 0.920528 0.239296   -0.646276
 O 0.596455 0.75014 0.413727   -0.65037
 O 0.910513 0.760723 0.08493   -0.650103
 O 0.251743 0.750363 0.41289   -0.650856
 O 0.254047 0.763419 0.084047   -0.650938
 O 0.754043 0.591947 0.251075   -0.651724
 O 0.75066 0.920641 0.239729   -0.649526
 O 0.003112 0.703688 0.303944   -1.125273
 O 0.501275 0.810966 0.197763   -1.127469
