{'_ref': 'TBD', '_srcid': 'CAKYAQ_clean', 'submitters': [{'name': 'Dalar Nazarian Jeff Camp and David Sholl', 'email': 'dalar@gatech.edu jcamp6@gatech.edu'}], '_method': 'VASP DFT with PBE;DDEC'}
data_CeB15H15(CO)6
_symmetry_space_group_name_H-M   'P 1'
_cell_length_a   13.15900006
_cell_length_b   14.04000000
_cell_length_c   16.00700000
_cell_angle_alpha   90.00000000
_cell_angle_beta   108.23400210
_cell_angle_gamma   90.00000000
_symmetry_Int_Tables_number   1
_chemical_formula_structural   CeB15H15(CO)6
_chemical_formula_sum   'Ce4 B60 H60 C24 O24'
_cell_volume   2808.83318537
_cell_formula_units_Z   4
loop_
 _symmetry_equiv_pos_site_id
 _symmetry_equiv_pos_as_xyz
  1  'x, y, z'
loop_
 _atom_site_label
 _atom_site_fract_x
 _atom_site_fract_y
 _atom_site_fract_z
 _atom_site_charge
 Ce 0.38626 0.02145 0.08447   2.295387
 Ce 0.11374 0.52145 0.41553   2.295387
 Ce 0.61374 0.97855 0.91553   2.295387
 Ce 0.88626 0.47855 0.58447   2.295387
 B 0.1363 0.8801 0.7609   0.03062
 B 0.226 0.8977 0.706   0.016293
 B 0.3229 0.812 0.7378   0.01904
 B 0.295 0.7365 0.8155   0.034742
 B 0.1772 0.7794 0.8294   0.026424
 B 0.075 0.767 0.7309   0.032964
 B 0.107 0.8414 0.6521   0.026567
 B 0.223 0.7996 0.6385   0.037484
 B 0.2637 0.7003 0.7065   0.014669
 B 0.178 0.6802 0.7634   0.012759
 B 0.3772 0.0465 0.4472   0.033223
 B 0.3955 0.9288 0.4739   0.005093
 B 0.5241 0.8899 0.4701   0.029259
 B 0.5871 0.9918 0.4415   0.03235
 B 0.4972 0.088 0.4281   0.027432
 B 0.3637 0.3801 0.7391   0.03062
 B 0.274 0.3977 0.794   0.016294
 B 0.1771 0.312 0.7622   0.01904
 B 0.205 0.2365 0.6845   0.034742
 B 0.3228 0.2794 0.6706   0.026424
 B 0.425 0.267 0.7691   0.032964
 B 0.393 0.3414 0.8479   0.026567
 B 0.277 0.2996 0.8615   0.037484
 B 0.2363 0.2003 0.7935   0.014669
 B 0.322 0.1802 0.7366   0.01276
 B 0.1228 0.5465 0.0528   0.033223
 B 0.1045 0.4288 0.0261   0.005093
 B 0.9759 0.3899 0.0299   0.029259
 B 0.9129 0.4918 0.0585   0.03235
 B 0.0028 0.588 0.0719   0.027432
 B 0.8637 0.1199 0.2391   0.03062
 B 0.774 0.1023 0.294   0.016293
 B 0.6771 0.188 0.2622   0.01904
 B 0.705 0.2635 0.1845   0.034742
 B 0.8228 0.2206 0.1706   0.026424
 B 0.925 0.233 0.2691   0.032963
 B 0.893 0.1586 0.3479   0.026567
 B 0.777 0.2004 0.3615   0.037483
 B 0.7363 0.2997 0.2935   0.014669
 B 0.822 0.3198 0.2366   0.01276
 B 0.6228 0.9535 0.5528   0.033224
 B 0.6045 0.0712 0.5261   0.005092
 B 0.4759 0.1101 0.5299   0.029264
 B 0.4129 0.0082 0.5585   0.032348
 B 0.5028 0.912 0.5719   0.027437
 B 0.6363 0.6199 0.2609   0.03062
 B 0.726 0.6023 0.206   0.016294
 B 0.8229 0.688 0.2378   0.01904
 B 0.795 0.7635 0.3155   0.034742
 B 0.6772 0.7206 0.3294   0.026424
 B 0.575 0.733 0.2309   0.032963
 B 0.607 0.6586 0.1521   0.026567
 B 0.723 0.7004 0.1385   0.037483
 B 0.7637 0.7997 0.2065   0.014669
 B 0.678 0.8198 0.2634   0.01276
 B 0.8772 0.4535 0.9472   0.033224
 B 0.8955 0.5712 0.9739   0.005092
 B 0.0241 0.6101 0.9701   0.029264
 B 0.0871 0.5082 0.9415   0.032348
 B 0.9972 0.412 0.9281   0.027437
 H 0.0936 0.9419 0.779   -0.03345
 H 0.2442 0.9715 0.6882   -0.020444
 H 0.4071 0.8289 0.7406   -0.041999
 H 0.3592 0.7022 0.8704   -0.028131
 H 0.1608 0.7741 0.8938   -0.028535
 H 0.9909 0.7505 0.7287   -0.014616
 H 0.0443 0.8754 0.596   -0.028871
 H 0.2384 0.8049 0.5738   -0.027059
 H 0.3062 0.6396 0.6865   -0.034588
 H 0.1627 0.6059 0.7823   -0.022942
 H 0.2967 0.0768 0.4112   -0.038777
 H 0.324 0.8807 0.4548   -0.047039
 H 0.5389 0.8164 0.4495   -0.04372
 H 0.643 0.9868 0.4013   -0.0336
 H 0.4947 0.1466 0.38   -0.042236
 H 0.4064 0.4419 0.721   -0.03345
 H 0.2558 0.4715 0.8118   -0.020446
 H 0.0929 0.3289 0.7594   -0.041999
 H 0.1408 0.2022 0.6296   -0.028131
 H 0.3392 0.2741 0.6062   -0.028535
 H 0.5091 0.2505 0.7713   -0.014616
 H 0.4557 0.3754 0.904   -0.028871
 H 0.2616 0.3049 0.9262   -0.027059
 H 0.1938 0.1396 0.8135   -0.034588
 H 0.3373 0.1059 0.7177   -0.022943
 H 0.2033 0.5768 0.0888   -0.038777
 H 0.176 0.3807 0.0452   -0.047039
 H 0.9611 0.3164 0.0505   -0.04372
 H 0.857 0.4868 0.0987   -0.0336
 H 0.0053 0.6466 0.12   -0.042236
 H 0.9064 0.0581 0.221   -0.03345
 H 0.7558 0.0285 0.3118   -0.020445
 H 0.5929 0.1711 0.2594   -0.041999
 H 0.6408 0.2978 0.1296   -0.028131
 H 0.8392 0.2259 0.1062   -0.028534
 H 0.0091 0.2495 0.2713   -0.014615
 H 0.9557 0.1246 0.404   -0.028871
 H 0.7616 0.1951 0.4262   -0.027059
 H 0.6938 0.3604 0.3135   -0.034587
 H 0.8373 0.3941 0.2177   -0.022943
 H 0.7033 0.9232 0.5888   -0.038777
 H 0.676 0.1193 0.5452   -0.047039
 H 0.4611 0.1836 0.5505   -0.043719
 H 0.357 0.0132 0.5987   -0.033602
 H 0.5053 0.8534 0.62   -0.042237
 H 0.5936 0.5581 0.279   -0.03345
 H 0.7442 0.5285 0.1882   -0.020446
 H 0.9071 0.6711 0.2406   -0.041999
 H 0.8592 0.7978 0.3704   -0.028131
 H 0.6608 0.7259 0.3938   -0.028534
 H 0.4909 0.7495 0.2287   -0.014615
 H 0.5443 0.6246 0.096   -0.028871
 H 0.7384 0.6951 0.0738   -0.027059
 H 0.8062 0.8604 0.1865   -0.034587
 H 0.6627 0.8941 0.2823   -0.022944
 H 0.7967 0.4232 0.9112   -0.038776
 H 0.824 0.6193 0.9548   -0.047039
 H 0.0389 0.6836 0.9495   -0.043719
 H 0.143 0.5132 0.9013   -0.033602
 H 0.9947 0.3534 0.88   -0.042237
 C 0.266 0.8537 0.8098   -0.099003
 C 0.1326 0.7246 0.6592   -0.10243
 C 0.3342 0.9187 0.8845   0.854066
 C 0.0663 0.6573 0.5862   0.864993
 C 0.4513 0.9743 0.4014   -0.072292
 C 0.403 0.9491 0.303   0.774119
 C 0.234 0.3537 0.6902   -0.099003
 C 0.3674 0.2246 0.8408   -0.10243
 C 0.1658 0.4187 0.6155   0.854066
 C 0.4337 0.1573 0.9138   0.864992
 C 0.0487 0.4743 0.0986   -0.072292
 C 0.097 0.4491 0.197   0.774119
 C 0.734 0.1463 0.1902   -0.099003
 C 0.8674 0.2754 0.3408   -0.10243
 C 0.6658 0.0813 0.1155   0.854066
 C 0.9337 0.3427 0.4138   0.864993
 C 0.5487 0.0257 0.5986   -0.072293
 C 0.597 0.0509 0.697   0.774119
 C 0.766 0.6463 0.3098   -0.099003
 C 0.6326 0.7754 0.1592   -0.10243
 C 0.8342 0.5813 0.3845   0.854066
 C 0.5663 0.8427 0.0862   0.864992
 C 0.9513 0.5257 0.9014   -0.072293
 C 0.903 0.5509 0.803   0.774119
 O 0.292 0.9431 0.9414   -0.719356
 O 0.4253 0.9405 0.8821   -0.769464
 O 0.9807 0.6288 0.5931   -0.705852
 O 0.1073 0.6382 0.5278   -0.768127
 O 0.4256 0.0011 0.2483   -0.830134
 O 0.3461 0.8763 0.2874   -0.614818
 O 0.208 0.4431 0.5586   -0.719356
 O 0.0747 0.4405 0.6179   -0.769464
 O 0.5193 0.1288 0.9069   -0.705852
 O 0.3927 0.1382 0.9722   -0.768127
 O 0.0744 0.5011 0.2517   -0.830134
 O 0.1539 0.3763 0.2126   -0.614818
 O 0.708 0.0569 0.0586   -0.719356
 O 0.5747 0.0595 0.1179   -0.769464
 O 0.0193 0.3712 0.4069   -0.705852
 O 0.8927 0.3618 0.4722   -0.768127
 O 0.5744 0.9989 0.7517   -0.830134
 O 0.6539 0.1237 0.7126   -0.614818
 O 0.792 0.5569 0.4414   -0.719356
 O 0.9253 0.5595 0.3821   -0.769464
 O 0.4807 0.8712 0.0931   -0.705852
 O 0.6073 0.8618 0.0278   -0.768127
 O 0.9256 0.4989 0.7483   -0.830134
 O 0.8461 0.6237 0.7874   -0.614818
