{'_ref': 'TBD', '_srcid': 'CAKYAQ_clean', 'submitters': [{'name': 'Dalar Nazarian Jeff Camp and David Sholl', 'email': 'dalar@gatech.edu jcamp6@gatech.edu'}], '_method': 'VASP DFT with PBE;DDEC'}
data_LaB15H15(CO)6
_symmetry_space_group_name_H-M   'P 1'
_cell_length_a   13.25100014
_cell_length_b   14.06800000
_cell_length_c   16.13800000
_cell_angle_alpha   90.00000000
_cell_angle_beta   108.28699787
_cell_angle_gamma   90.00000000
_symmetry_Int_Tables_number   1
_chemical_formula_structural   LaB15H15(CO)6
_chemical_formula_sum   'La4 B60 H60 C24 O24'
_cell_volume   2856.43399005
_cell_formula_units_Z   4
loop_
 _symmetry_equiv_pos_site_id
 _symmetry_equiv_pos_as_xyz
  1  'x, y, z'
loop_
 _atom_site_label
 _atom_site_fract_x
 _atom_site_fract_y
 _atom_site_fract_z
 _atom_site_charge
 La 0.38631 0.02276 0.08542   2.225113
 La 0.11369 0.52276 0.41458   2.225113
 La 0.61369 0.97724 0.91458   2.225113
 La 0.88631 0.47724 0.58542   2.225113
 B 0.1377 0.8809 0.7625   0.036981
 B 0.233 0.8958 0.7077   0.026616
 B 0.3261 0.8076 0.742   0.028655
 B 0.2931 0.7362 0.8174   0.027126
 B 0.1748 0.7807 0.8297   0.029092
 B 0.074 0.7703 0.7294   0.027135
 B 0.11 0.8418 0.6532   0.031645
 B 0.2266 0.7956 0.642   0.028937
 B 0.264 0.6977 0.7094   0.023424
 B 0.1704 0.6814 0.7641   0.024562
 B 0.3794 0.0468 0.4461   0.025236
 B 0.3959 0.9229 0.4727   0.037445
 B 0.5247 0.8894 0.4711   0.023483
 B 0.5881 0.992 0.4437   0.027505
 B 0.4981 0.0891 0.4285   0.030752
 B 0.3623 0.3809 0.7375   0.036981
 B 0.267 0.3958 0.7923   0.026616
 B 0.1739 0.3076 0.758   0.028655
 B 0.2069 0.2362 0.6826   0.027126
 B 0.3252 0.2807 0.6703   0.029092
 B 0.426 0.2703 0.7706   0.027135
 B 0.39 0.3418 0.8468   0.031645
 B 0.2734 0.2956 0.858   0.028937
 B 0.236 0.1977 0.7906   0.023424
 B 0.3296 0.1814 0.7359   0.024562
 B 0.1206 0.5468 0.0539   0.025236
 B 0.1041 0.4229 0.0273   0.037445
 B 0.9753 0.3894 0.0289   0.023483
 B 0.9119 0.492 0.0563   0.027505
 B 0.0019 0.5891 0.0715   0.030752
 B 0.8623 0.1191 0.2375   0.036981
 B 0.767 0.1042 0.2923   0.026616
 B 0.6739 0.1924 0.258   0.028655
 B 0.7069 0.2638 0.1826   0.027126
 B 0.8252 0.2193 0.1703   0.029092
 B 0.926 0.2297 0.2706   0.027135
 B 0.89 0.1582 0.3468   0.031645
 B 0.7734 0.2044 0.358   0.028937
 B 0.736 0.3023 0.2906   0.023424
 B 0.8296 0.3186 0.2359   0.024562
 B 0.6206 0.9532 0.5539   0.025237
 B 0.6041 0.0771 0.5273   0.037444
 B 0.4753 0.1106 0.5289   0.023487
 B 0.4119 0.008 0.5563   0.027504
 B 0.5019 0.9109 0.5715   0.030755
 B 0.6377 0.6191 0.2625   0.036981
 B 0.733 0.6042 0.2077   0.026616
 B 0.8261 0.6924 0.242   0.028655
 B 0.7931 0.7638 0.3174   0.027126
 B 0.6748 0.7193 0.3297   0.029092
 B 0.574 0.7297 0.2294   0.027135
 B 0.61 0.6582 0.1532   0.031645
 B 0.7266 0.7044 0.142   0.028937
 B 0.764 0.8023 0.2094   0.023424
 B 0.6704 0.8186 0.2641   0.024562
 B 0.8794 0.4532 0.9461   0.025237
 B 0.8959 0.5771 0.9727   0.037444
 B 0.0247 0.6106 0.9711   0.023487
 B 0.0881 0.508 0.9437   0.027504
 B 0.9981 0.4109 0.9285   0.030755
 H 0.0965 0.9424 0.7806   -0.035245
 H 0.2551 0.9671 0.6895   -0.025836
 H 0.4103 0.8208 0.7469   -0.046076
 H 0.3553 0.7019 0.872   -0.032022
 H 0.158 0.7755 0.8928   -0.029733
 H 0.9896 0.7577 0.7246   -0.014104
 H 0.0495 0.8767 0.5978   -0.031845
 H 0.2431 0.7989 0.5788   -0.029214
 H 0.3054 0.6365 0.691   -0.033853
 H 0.1502 0.6095 0.7824   -0.026667
 H 0.3005 0.077 0.4098   -0.04149
 H 0.3278 0.8727 0.4537   -0.048742
 H 0.5403 0.8169 0.4509   -0.040998
 H 0.6448 0.9862 0.4058   -0.037849
 H 0.4961 0.1466 0.3809   -0.041935
 H 0.4035 0.4424 0.7194   -0.035245
 H 0.2449 0.4671 0.8105   -0.025837
 H 0.0897 0.3208 0.7531   -0.046076
 H 0.1447 0.2019 0.628   -0.032022
 H 0.342 0.2755 0.6072   -0.029732
 H 0.5104 0.2577 0.7754   -0.014104
 H 0.4505 0.3767 0.9022   -0.031845
 H 0.2569 0.2989 0.9212   -0.029214
 H 0.1946 0.1365 0.809   -0.033853
 H 0.3498 0.1095 0.7176   -0.026667
 H 0.1995 0.577 0.0902   -0.04149
 H 0.1722 0.3727 0.0463   -0.048742
 H 0.9597 0.3169 0.0491   -0.040998
 H 0.8552 0.4862 0.0942   -0.037849
 H 0.0039 0.6466 0.1191   -0.041935
 H 0.9035 0.0576 0.2194   -0.035245
 H 0.7449 0.0329 0.3105   -0.025837
 H 0.5897 0.1792 0.2531   -0.046076
 H 0.6447 0.2981 0.128   -0.032022
 H 0.842 0.2245 0.1072   -0.029732
 H 0.0104 0.2423 0.2754   -0.014104
 H 0.9505 0.1233 0.4022   -0.031845
 H 0.7569 0.2011 0.4212   -0.029214
 H 0.6946 0.3635 0.309   -0.033853
 H 0.8498 0.3905 0.2176   -0.026667
 H 0.6995 0.923 0.5902   -0.041489
 H 0.6722 0.1273 0.5463   -0.048742
 H 0.4597 0.1831 0.5491   -0.040997
 H 0.3552 0.0138 0.5942   -0.03785
 H 0.5039 0.8534 0.6191   -0.041935
 H 0.5965 0.5576 0.2806   -0.035245
 H 0.7551 0.5329 0.1895   -0.025837
 H 0.9103 0.6792 0.2469   -0.046076
 H 0.8553 0.7981 0.372   -0.032022
 H 0.658 0.7245 0.3928   -0.029732
 H 0.4896 0.7423 0.2246   -0.014104
 H 0.5495 0.6233 0.0978   -0.031845
 H 0.7431 0.7011 0.0788   -0.029214
 H 0.8054 0.8635 0.191   -0.033853
 H 0.6502 0.8905 0.2824   -0.026668
 H 0.8005 0.423 0.9098   -0.041489
 H 0.8278 0.6273 0.9537   -0.048742
 H 0.0403 0.6831 0.9509   -0.040997
 H 0.1448 0.5138 0.9058   -0.03785
 H 0.9961 0.3534 0.8809   -0.041935
 C 0.2661 0.8542 0.8114   -0.10504
 C 0.1335 0.7243 0.6612   -0.107157
 C 0.3336 0.9176 0.8865   0.844396
 C 0.0678 0.6575 0.5883   0.848686
 C 0.4534 0.975 0.4019   -0.079647
 C 0.4053 0.9492 0.3041   0.764729
 C 0.2339 0.3542 0.6886   -0.10504
 C 0.3665 0.2243 0.8388   -0.107157
 C 0.1664 0.4176 0.6135   0.844396
 C 0.4322 0.1575 0.9117   0.848686
 C 0.0466 0.475 0.0981   -0.079647
 C 0.0947 0.4492 0.1959   0.764729
 C 0.7339 0.1458 0.1886   -0.10504
 C 0.8665 0.2757 0.3388   -0.107157
 C 0.6664 0.0824 0.1135   0.844396
 C 0.9322 0.3425 0.4117   0.848686
 C 0.5466 0.025 0.5981   -0.079647
 C 0.5947 0.0508 0.6959   0.764729
 C 0.7661 0.6458 0.3114   -0.10504
 C 0.6335 0.7757 0.1612   -0.107157
 C 0.8336 0.5824 0.3865   0.844396
 C 0.5678 0.8425 0.0883   0.848686
 C 0.9534 0.525 0.9019   -0.079647
 C 0.9053 0.5508 0.8041   0.764729
 O 0.2913 0.9419 0.94281   -0.702135
 O 0.4239 0.9396 0.88491   -0.751205
 O 0.9816 0.6287 0.59398   -0.688475
 O 0.109 0.638 0.53016   -0.746851
 O 0.4257 0.0031 0.25028   -0.802547
 O 0.3501 0.8753 0.28737   -0.612852
 O 0.2087 0.4419 0.55719   -0.702135
 O 0.0761 0.4396 0.61509   -0.751205
 O 0.5184 0.1287 0.90602   -0.688475
 O 0.391 0.138 0.96984   -0.746851
 O 0.0743 0.5031 0.24972   -0.802547
 O 0.1499 0.3753 0.21263   -0.612852
 O 0.7087 0.0581 0.05719   -0.702135
 O 0.5761 0.0604 0.11509   -0.751205
 O 0.0184 0.3713 0.40602   -0.688475
 O 0.891 0.362 0.46984   -0.746851
 O 0.5743 0.9969 0.74972   -0.802547
 O 0.6499 0.1247 0.71263   -0.612852
 O 0.7913 0.5581 0.44281   -0.702135
 O 0.9239 0.5604 0.38491   -0.751205
 O 0.4816 0.8713 0.09398   -0.688475
 O 0.609 0.862 0.03016   -0.746851
 O 0.9257 0.4969 0.75028   -0.802547
 O 0.8501 0.6247 0.78737   -0.612852
