{'_ref': 'TBD', '_srcid': 'CAKYAQ_clean', 'submitters': [{'name': 'Dalar Nazarian Jeff Camp and David Sholl', 'email': 'dalar@gatech.edu jcamp6@gatech.edu'}], '_method': 'VASP DFT with PBE;DDEC'}
data_CoH13C15(NO2)2
_symmetry_space_group_name_H-M   'P 1'
_cell_length_a   8.27600000
_cell_length_b   14.36000028
_cell_length_c   14.75000000
_cell_angle_alpha   90.00000000
_cell_angle_beta   90.00000000
_cell_angle_gamma   99.74600049
_symmetry_Int_Tables_number   1
_chemical_formula_structural   CoH13C15(NO2)2
_chemical_formula_sum   'Co4 H52 C60 N8 O16'
_cell_volume   1727.64095561
_cell_formula_units_Z   4
loop_
 _symmetry_equiv_pos_site_id
 _symmetry_equiv_pos_as_xyz
  1  'x, y, z'
loop_
 _atom_site_label
 _atom_site_fract_x
 _atom_site_fract_y
 _atom_site_fract_z
 _atom_site_charge
 Co 0.90725 0.12009 0.08239   0.953586
 Co 0.59275 0.87991 0.58239   0.953586
 Co 0.09275 0.87991 0.91761   0.953586
 Co 0.40725 0.12009 0.41761   0.953586
 H 0.4934 0.8395 0.3018   0.094789
 H 0.6525 0.9249 0.0565   0.098487
 H 0.5039 0.7649 0.0757   0.066167
 H 0.3489 0.8018 0.1121   0.083568
 H 0.3522 0.7143 0.2381   0.086351
 H 0.3449 0.6505 0.1514   0.093006
 H 0.5106 0.6789 0.2039   0.086689
 H 0.2523 0.2101 0.1063   0.082818
 H 0.4405 0.3409 0.0767   0.131004
 H 0.1098 0.4376 0.9261   0.127431
 H 0.9261 0.3068 0.9619   0.071194
 H 0.369 0.5515 0.9996   0.100061
 H 0.4291 0.5035 0.9133   0.10481
 H 0.0066 0.1605 0.8018   0.09479
 H 0.8475 0.0751 0.5565   0.098487
 H 0.9961 0.2351 0.5757   0.066167
 H 0.1511 0.1982 0.6121   0.083568
 H 0.1478 0.2857 0.7381   0.086351
 H 0.1551 0.3495 0.6514   0.093005
 H 0.9894 0.3211 0.7039   0.08669
 H 0.2477 0.7899 0.6063   0.082818
 H 0.0595 0.6591 0.5767   0.131004
 H 0.3902 0.5624 0.4261   0.127431
 H 0.5739 0.6932 0.4619   0.071195
 H 0.131 0.4485 0.4996   0.100061
 H 0.0709 0.4965 0.4133   0.104809
 H 0.5066 0.1605 0.6982   0.094789
 H 0.3475 0.0751 0.9435   0.098489
 H 0.4961 0.2351 0.9243   0.066169
 H 0.6511 0.1982 0.8879   0.08357
 H 0.6478 0.2857 0.7619   0.086354
 H 0.6551 0.3495 0.8486   0.093008
 H 0.4894 0.3211 0.7961   0.086693
 H 0.7477 0.7899 0.8937   0.082818
 H 0.5595 0.6591 0.9233   0.131001
 H 0.8902 0.5624 0.0739   0.12743
 H 0.0739 0.6932 0.0381   0.071199
 H 0.631 0.4485 0.000399999999999   0.100063
 H 0.5709 0.4965 0.0867   0.104804
 H 0.9934 0.8395 0.1982   0.09479
 H 0.1525 0.9249 0.4435   0.098489
 H 0.0039 0.7649 0.4243   0.066169
 H 0.8489 0.8018 0.3879   0.08357
 H 0.8522 0.7143 0.2619   0.086354
 H 0.8449 0.6505 0.3486   0.093007
 H 0.0106 0.6789 0.2961   0.086693
 H 0.7523 0.2101 0.3937   0.082818
 H 0.9405 0.3409 0.4233   0.131001
 H 0.6098 0.4376 0.5739   0.127429
 H 0.4261 0.3068 0.5381   0.0712
 H 0.869 0.5515 0.5004   0.100063
 H 0.9291 0.5035 0.5867   0.104802
 C 0.7644 0.0192 0.2449   0.099104
 C 0.6634 0.9595 0.3026   -0.135362
 C 0.5611 0.8814 0.2644   -0.059378
 C 0.5599 0.8661 0.1731   0.001315
 C 0.6585 0.9322 0.1191   0.136102
 C 0.8972 0.0985 0.2772   0.61695
 C 0.6484 0.9759 0.4042   0.724906
 C 0.4506 0.7821 0.1303   -0.082244
 C 0.4114 0.6997 0.1854   -0.291589
 C 0.2218 0.257 0.0697   0.237662
 C 0.3358 0.3361 0.0523   -0.239682
 C 0.2996 0.4066 0.000999999999998   0.149837
 C 0.1409 0.3924 0.9646   -0.255311
 C 0.0319 0.313 0.9852   0.169223
 C 0.4165 0.4981 0.9786   -0.17517
 C 0.7356 0.9808 0.7449   0.099103
 C 0.8366 0.0405 0.8026   -0.135362
 C 0.9389 0.1186 0.7644   -0.059379
 C 0.9401 0.1339 0.6731   0.001315
 C 0.8415 0.0678 0.6191   0.136102
 C 0.6028 0.9015 0.7772   0.61695
 C 0.8516 0.0241 0.9042   0.724906
 C 0.0494 0.2179 0.6303   -0.082244
 C 0.0886 0.3003 0.6854   -0.291588
 C 0.2782 0.743 0.5697   0.237661
 C 0.1642 0.6639 0.5523   -0.239682
 C 0.2004 0.5934 0.501   0.149836
 C 0.3591 0.6076 0.4646   -0.25531
 C 0.4681 0.687 0.4852   0.169223
 C 0.0835 0.5019 0.4786   -0.17517
 C 0.2356 0.9808 0.7551   0.099104
 C 0.3366 0.0405 0.6974   -0.135361
 C 0.4389 0.1186 0.7356   -0.059378
 C 0.4401 0.1339 0.8269   0.001315
 C 0.3415 0.0678 0.8809   0.136103
 C 0.1028 0.9015 0.7228   0.61695
 C 0.3516 0.0241 0.5958   0.724907
 C 0.5494 0.2179 0.8697   -0.082244
 C 0.5886 0.3003 0.8146   -0.291592
 C 0.7782 0.743 0.9303   0.237662
 C 0.6642 0.6639 0.9477   -0.239681
 C 0.7004 0.5934 0.999   0.149836
 C 0.8591 0.6076 0.0354   -0.25531
 C 0.9681 0.687 0.0148   0.169222
 C 0.5835 0.5019 0.0214   -0.175176
 C 0.2644 0.0192 0.2551   0.099104
 C 0.1634 0.9595 0.1974   -0.135361
 C 0.0611 0.8814 0.2356   -0.059378
 C 0.0599 0.8661 0.3269   0.001316
 C 0.1585 0.9322 0.3809   0.136103
 C 0.3972 0.0985 0.2228   0.61695
 C 0.1484 0.9759 0.0958   0.724907
 C 0.9506 0.7821 0.3697   -0.082244
 C 0.9114 0.6997 0.3146   -0.291591
 C 0.7218 0.257 0.4303   0.237662
 C 0.8358 0.3361 0.4477   -0.239681
 C 0.7996 0.4066 0.499   0.149836
 C 0.6409 0.3924 0.5354   -0.255309
 C 0.5319 0.313 0.5148   0.169221
 C 0.9165 0.4981 0.5214   -0.175175
 N 0.7623 0.0064 0.1532   -0.358899
 N 0.0698 0.244 0.0369   -0.363605
 N 0.7377 0.9936 0.6532   -0.358899
 N 0.4302 0.756 0.5369   -0.363605
 N 0.2377 0.9936 0.8468   -0.358899
 N 0.9302 0.756 0.9631   -0.363605
 N 0.2623 0.0064 0.3468   -0.358899
 N 0.5698 0.244 0.4631   -0.363605
 O 0.959 0.1576 0.2171   -0.619038
 O 0.9349 0.0998 0.3578   -0.555661
 O 0.6066 0.0501 0.4294   -0.590108
 O 0.6735 0.909 0.4524   -0.589016
 O 0.541 0.8424 0.7171   -0.619038
 O 0.5651 0.9002 0.8578   -0.555661
 O 0.8934 0.9499 0.9294   -0.590108
 O 0.8265 0.091 0.9524   -0.589016
 O 0.041 0.8424 0.7829   -0.619038
 O 0.0651 0.9002 0.6422   -0.555661
 O 0.3934 0.9499 0.5706   -0.590108
 O 0.3265 0.091 0.5476   -0.589016
 O 0.459 0.1576 0.2829   -0.619038
 O 0.4349 0.0998 0.1422   -0.555661
 O 0.1066 0.0501 0.0706   -0.590108
 O 0.1735 0.909 0.0476   -0.589016
