{'_ref': 'TBD', '_srcid': 'CAKYAQ_clean', 'submitters': [{'name': 'Dalar Nazarian Jeff Camp and David Sholl', 'email': 'dalar@gatech.edu jcamp6@gatech.edu'}], '_method': 'VASP DFT with PBE;DDEC'}
data_CoH13C15(NO2)2
_symmetry_space_group_name_H-M   'P 1'
_cell_length_a   8.38519983
_cell_length_b   14.71100000
_cell_length_c   15.77100000
_cell_angle_alpha   90.00000000
_cell_angle_beta   102.48499897
_cell_angle_gamma   90.00000000
_symmetry_Int_Tables_number   1
_chemical_formula_structural   CoH13C15(NO2)2
_chemical_formula_sum   'Co4 H52 C60 N8 O16'
_cell_volume   1899.42237422
_cell_formula_units_Z   4
loop_
 _symmetry_equiv_pos_site_id
 _symmetry_equiv_pos_as_xyz
  1  'x, y, z'
loop_
 _atom_site_label
 _atom_site_fract_x
 _atom_site_fract_y
 _atom_site_fract_z
 _atom_site_charge
 Co 0.16833 0.91724 0.6103   0.949902
 Co 0.33167 0.41724 0.3897   0.949901
 Co 0.83167 0.08276 0.3897   0.949902
 Co 0.66833 0.58276 0.6103   0.949901
 H 0.3983 0.6988 0.3563   0.094566
 H 0.2839 0.9442 0.4312   0.095722
 H 0.3472 0.9322 0.2937   0.073734
 H 0.5175 0.8847 0.32   0.083552
 H 0.4337 0.7693 0.2279   0.086614
 H 0.3898 0.8603 0.1764   0.093043
 H 0.2535 0.8053 0.2082   0.086035
 H 0.892 0.8981 0.7048   0.088154
 H 0.8161 0.9347 0.8311   0.137323
 H 0.2115 0.0893 0.8942   0.127072
 H 0.2808 0.0464 0.7676   0.070267
 H 0.847 0.0354 0.9581   0.088787
 H 0.0059 0.0943 0.985   0.093354
 H 0.1017 0.1988 0.6437   0.094568
 H 0.2161 0.4442 0.5688   0.095722
 H 0.1528 0.4322 0.7063   0.073734
 H 0.9825 0.3847 0.68   0.083552
 H 0.0663 0.2693 0.7721   0.086615
 H 0.1102 0.3603 0.8236   0.093042
 H 0.2465 0.3053 0.7918   0.086036
 H 0.608 0.3981 0.2952   0.088154
 H 0.6839 0.4347 0.1689   0.137322
 H 0.2885 0.5893 0.1058   0.127073
 H 0.2192 0.5464 0.2324   0.070269
 H 0.653 0.5354 0.0419   0.088786
 H 0.4941 0.5943 0.015   0.093353
 H 0.6017 0.3012 0.6437   0.094566
 H 0.7161 0.0558 0.5688   0.095723
 H 0.6528 0.0678 0.7063   0.073735
 H 0.4825 0.1153 0.68   0.083554
 H 0.5663 0.2307 0.7721   0.086619
 H 0.6102 0.1397 0.8236   0.093042
 H 0.7465 0.1947 0.7918   0.08604
 H 0.108 0.1019 0.2952   0.088154
 H 0.1839 0.0653 0.1689   0.137322
 H 0.7885 0.9107 0.1058   0.127068
 H 0.7192 0.9536 0.2324   0.07027
 H 0.153 0.9646 0.0419   0.088787
 H 0.9941 0.9057 0.015   0.093353
 H 0.8983 0.8012 0.3563   0.094567
 H 0.7839 0.5558 0.4312   0.095723
 H 0.8472 0.5678 0.2937   0.073735
 H 0.0175 0.6153 0.32   0.083554
 H 0.9337 0.7307 0.2279   0.086619
 H 0.8898 0.6397 0.1764   0.093042
 H 0.7535 0.6947 0.2082   0.086041
 H 0.392 0.6019 0.7048   0.088154
 H 0.3161 0.5653 0.8311   0.137321
 H 0.7115 0.4107 0.8942   0.127069
 H 0.7808 0.4536 0.7676   0.070272
 H 0.347 0.4646 0.9581   0.088787
 H 0.5059 0.4057 0.985   0.093351
 C 0.2458 0.75524 0.51901   0.106943
 C 0.31 0.69779 0.46483   -0.131585
 C 0.3584 0.73612 0.39454   -0.061521
 C 0.3487 0.82889 0.37958   0.005402
 C 0.2892 0.88147 0.43891   0.133001
 C 0.1688 0.72203 0.59166   0.610296
 C 0.3362 0.59681 0.47953   0.71493
 C 0.4009 0.8735 0.30383   -0.084491
 C 0.3665 0.8227 0.2221   -0.29374
 C 0.9595 0.936 0.7442   0.221874
 C 0.913 0.958 0.8202   -0.23856
 C 0.008 0.0137 0.87994   0.150505
 C 0.1455 0.0484 0.8574   -0.258823
 C 0.186 0.0228 0.7806   0.176028
 C 0.9649 0.0344 0.9657   -0.160241
 C 0.2542 0.25524 0.48099   0.106943
 C 0.19 0.19779 0.53517   -0.131585
 C 0.1416 0.23612 0.60546   -0.061521
 C 0.1513 0.32889 0.62042   0.005402
 C 0.2108 0.38147 0.56109   0.133001
 C 0.3312 0.22203 0.40834   0.610296
 C 0.1638 0.09681 0.52047   0.71493
 C 0.0991 0.3735 0.69617   -0.084491
 C 0.1335 0.3227 0.7779   -0.293741
 C 0.5405 0.436 0.2558   0.221874
 C 0.587 0.458 0.1798   -0.23856
 C 0.492 0.5137 0.12006   0.150505
 C 0.3545 0.5484 0.1426   -0.258823
 C 0.314 0.5228 0.2194   0.176028
 C 0.5351 0.5344 0.0343   -0.16024
 C 0.7542 0.24476 0.48099   0.106943
 C 0.69 0.30221 0.53517   -0.131585
 C 0.6416 0.26388 0.60546   -0.06152
 C 0.6513 0.17111 0.62042   0.005403
 C 0.7108 0.11853 0.56109   0.133002
 C 0.8312 0.27797 0.40834   0.610296
 C 0.6638 0.40319 0.52047   0.714931
 C 0.5991 0.1265 0.69617   -0.084492
 C 0.6335 0.1773 0.7779   -0.293743
 C 0.0405 0.064 0.2558   0.221875
 C 0.087 0.042 0.1798   -0.23856
 C 0.992 0.9863 0.12006   0.150506
 C 0.8545 0.9516 0.1426   -0.258821
 C 0.814 0.9772 0.2194   0.176027
 C 0.0351 0.9656 0.0343   -0.160245
 C 0.7458 0.74476 0.51901   0.106943
 C 0.81 0.80221 0.46483   -0.131585
 C 0.8584 0.76388 0.39454   -0.061521
 C 0.8487 0.67111 0.37958   0.005403
 C 0.7892 0.61853 0.43891   0.133002
 C 0.6688 0.77797 0.59166   0.610296
 C 0.8362 0.90319 0.47953   0.714931
 C 0.9009 0.6265 0.30383   -0.084492
 C 0.8665 0.6773 0.2221   -0.293744
 C 0.4595 0.564 0.7442   0.221875
 C 0.413 0.542 0.8202   -0.23856
 C 0.508 0.4863 0.87994   0.150505
 C 0.6455 0.4516 0.8574   -0.258821
 C 0.686 0.4772 0.7806   0.176027
 C 0.4649 0.4656 0.9657   -0.160245
 N 0.239 0.84578 0.5068   -0.355793
 N 0.0967 0.96638 0.72459   -0.354101
 N 0.261 0.34578 0.4932   -0.355793
 N 0.4033 0.46638 0.27541   -0.3541
 N 0.761 0.15422 0.4932   -0.355794
 N 0.9033 0.03362 0.27541   -0.3541
 N 0.739 0.65422 0.5068   -0.355794
 N 0.5967 0.53362 0.72459   -0.3541
 O 0.1426 0.78217 0.64524   -0.616469
 O 0.1343 0.64056 0.59393   -0.555708
 O 0.4274 0.56984 0.54811   -0.586622
 O 0.268 0.54697 0.41739   -0.589455
 O 0.3574 0.28217 0.35476   -0.616469
 O 0.3657 0.14056 0.40607   -0.555708
 O 0.0726 0.06984 0.45189   -0.586622
 O 0.232 0.04697 0.58261   -0.589455
 O 0.8574 0.21783 0.35476   -0.616469
 O 0.8657 0.35944 0.40607   -0.555708
 O 0.5726 0.43016 0.45189   -0.586622
 O 0.732 0.45303 0.58261   -0.589455
 O 0.6426 0.71783 0.64524   -0.616469
 O 0.6343 0.85944 0.59393   -0.555708
 O 0.9274 0.93016 0.54811   -0.586622
 O 0.768 0.95303 0.41739   -0.589455
