{'_ref': 'TBD', '_srcid': 'CAKYAQ_clean', 'submitters': [{'name': 'Dalar Nazarian Jeff Camp and David Sholl', 'email': 'dalar@gatech.edu jcamp6@gatech.edu'}], '_method': 'VASP DFT with PBE;DDEC'}
data_NiH18C24S2(N4O3)2
_symmetry_space_group_name_H-M   'P 1'
_cell_length_a   7.45940003
_cell_length_b   15.58870000
_cell_length_c   17.15150000
_cell_angle_alpha   90.00000000
_cell_angle_beta   91.64789753
_cell_angle_gamma   90.00000000
_symmetry_Int_Tables_number   1
_chemical_formula_structural   NiH18C24S2(N4O3)2
_chemical_formula_sum   'Ni2 H36 C48 S4 N16 O12'
_cell_volume   1993.59186992
_cell_formula_units_Z   2
loop_
 _symmetry_equiv_pos_site_id
 _symmetry_equiv_pos_as_xyz
  1  'x, y, z'
loop_
 _atom_site_label
 _atom_site_fract_x
 _atom_site_fract_y
 _atom_site_fract_z
 _atom_site_charge
 Ni 0.0 0.0 0.0   0.763338
 Ni 0.0 0.5 0.5   0.763338
 H 0.10996 0.84903 0.28789   0.111821
 H 0.47188 0.65507 0.28924   0.126305
 H 0.6288 0.72405 0.19105   0.125363
 H 0.37015 0.88771 0.03152   0.10424
 H 0.61352 0.95618 0.95849   0.263298
 H 0.81734 0.88263 0.16664   0.119039
 H 0.09567 0.58867 0.30816   0.143717
 H 0.01755 0.67981 0.52301   0.301021
 H 0.19435 0.78716 0.45155   0.129513
 H 0.89004 0.34903 0.21211   0.111821
 H 0.52812 0.15507 0.21076   0.126305
 H 0.3712 0.22405 0.30895   0.125363
 H 0.62985 0.38771 0.46848   0.10424
 H 0.38648 0.45618 0.54151   0.263298
 H 0.18266 0.38263 0.33336   0.119039
 H 0.90433 0.08867 0.19184   0.143717
 H 0.98245 0.17981 0.97699   0.301021
 H 0.80565 0.28716 0.04845   0.129513
 H 0.89004 0.15097 0.71211   0.111821
 H 0.52812 0.34493 0.71076   0.126306
 H 0.3712 0.27595 0.80895   0.125362
 H 0.62985 0.11229 0.96848   0.10424
 H 0.38648 0.04382 0.04151   0.263298
 H 0.18266 0.11737 0.83336   0.119039
 H 0.90433 0.41133 0.69184   0.143717
 H 0.98245 0.32019 0.47699   0.301021
 H 0.80565 0.21284 0.54845   0.129512
 H 0.10996 0.65097 0.78789   0.111821
 H 0.47188 0.84493 0.78924   0.126306
 H 0.6288 0.77595 0.69105   0.125362
 H 0.37015 0.61229 0.53152   0.10424
 H 0.61352 0.54382 0.45849   0.263298
 H 0.81734 0.61737 0.66664   0.119039
 H 0.09567 0.91133 0.80816   0.143717
 H 0.01755 0.82019 0.02301   0.301021
 H 0.19435 0.71284 0.95155   0.129512
 C 0.46259 0.82751 0.18115   0.126954
 C 0.30849 0.86463 0.20991   -0.237558
 C 0.21528 0.82366 0.26823   -0.070525
 C 0.27617 0.74557 0.29779   0.059874
 C 0.43027 0.70845 0.26903   -0.085321
 C 0.52348 0.74942 0.21071   -0.136699
 C 0.55983 0.87026 0.12031   -0.10718
 C 0.49066 0.89522 0.04967   -0.04372
 C 0.73621 0.89243 0.12386   0.055197
 C 0.17893 0.70282 0.35863   -0.083478
 C 0.09824 0.62476 0.35281   0.075904
 C 0.15242 0.73375 0.43154   -0.056592
 C 0.53741 0.32751 0.31885   0.126954
 C 0.69151 0.36463 0.29009   -0.237558
 C 0.78472 0.32366 0.23177   -0.070525
 C 0.72383 0.24557 0.20221   0.059874
 C 0.56973 0.20845 0.23097   -0.085321
 C 0.47652 0.24942 0.28929   -0.136699
 C 0.44017 0.37026 0.37969   -0.10718
 C 0.50934 0.39522 0.45033   -0.04372
 C 0.26379 0.39243 0.37614   0.055197
 C 0.82107 0.20282 0.14137   -0.083478
 C 0.90176 0.12476 0.14719   0.075904
 C 0.84758 0.23375 0.06846   -0.056592
 C 0.53741 0.17249 0.81885   0.126954
 C 0.69151 0.13537 0.79009   -0.237558
 C 0.78472 0.17634 0.73177   -0.070525
 C 0.72383 0.25443 0.70221   0.059874
 C 0.56973 0.29155 0.73097   -0.085321
 C 0.47652 0.25058 0.78929   -0.136699
 C 0.44017 0.12974 0.87969   -0.10718
 C 0.50934 0.10478 0.95033   -0.04372
 C 0.26379 0.10757 0.87614   0.055197
 C 0.82107 0.29718 0.64137   -0.083478
 C 0.90176 0.37524 0.64719   0.075904
 C 0.84758 0.26625 0.56846   -0.056592
 C 0.46259 0.67249 0.68115   0.126954
 C 0.30849 0.63537 0.70991   -0.237558
 C 0.21528 0.67634 0.76823   -0.070525
 C 0.27617 0.75443 0.79779   0.059874
 C 0.43027 0.79155 0.76903   -0.085321
 C 0.52348 0.75058 0.71071   -0.136699
 C 0.55983 0.62974 0.62031   -0.10718
 C 0.49066 0.60478 0.54967   -0.04372
 C 0.73621 0.60757 0.62386   0.055197
 C 0.17893 0.79718 0.85863   -0.083478
 C 0.09824 0.87524 0.85281   0.075904
 C 0.15242 0.76625 0.93154   -0.056592
 S 0.23096 0.96407 0.17226   1.284276
 S 0.76904 0.46407 0.32774   1.284276
 S 0.76904 0.03593 0.82774   1.284276
 S 0.23096 0.53593 0.67226   1.284276
 N 0.62429 0.93281 0.00956   -0.018925
 N 0.77605 0.93109 0.05542   -0.274237
 N 0.02185 0.60745 0.42212   -0.253658
 N 0.05534 0.67481 0.47078   -0.074994
 N 0.37571 0.43281 0.49044   -0.018925
 N 0.22395 0.43109 0.44458   -0.274237
 N 0.97815 0.10745 0.07788   -0.253658
 N 0.94466 0.17481 0.02922   -0.074994
 N 0.37571 0.06719 0.99044   -0.018925
 N 0.22395 0.06891 0.94458   -0.274237
 N 0.97815 0.39255 0.57788   -0.253658
 N 0.94466 0.32519 0.52922   -0.074994
 N 0.62429 0.56719 0.50956   -0.018925
 N 0.77605 0.56891 0.55542   -0.274237
 N 0.02185 0.89255 0.92212   -0.253658
 N 0.05534 0.82519 0.97078   -0.074994
 O 0.38911 0.02425 0.16259   -0.634407
 O 0.13686 0.94974 0.09356   -0.692896
 O 0.10009 0.00355 0.22833   -0.638
 O 0.61089 0.52425 0.33741   -0.634407
 O 0.86314 0.44974 0.40644   -0.692896
 O 0.89991 0.50355 0.27167   -0.638
 O 0.61089 0.97575 0.83741   -0.634407
 O 0.86314 0.05026 0.90644   -0.692896
 O 0.89991 0.99645 0.77167   -0.638
 O 0.38911 0.47575 0.66259   -0.634407
 O 0.13686 0.55026 0.59356   -0.692896
 O 0.10009 0.49645 0.72833   -0.638
