{'_ref': 'TBD', '_srcid': 'CAKYAQ_clean', 'submitters': [{'name': 'Dalar Nazarian Jeff Camp and David Sholl', 'email': 'dalar@gatech.edu jcamp6@gatech.edu'}], '_method': 'VASP DFT with PBE;DDEC'}
data_GdHC5(NO2)2
_symmetry_space_group_name_H-M   'P 1'
_cell_length_a   16.15699945
_cell_length_b   16.47079953
_cell_length_c   16.47080000
_cell_angle_alpha   76.08009934
_cell_angle_beta   60.62830031
_cell_angle_gamma   60.62830018
_symmetry_Int_Tables_number   1
_chemical_formula_structural   GdHC5(NO2)2
_chemical_formula_sum   'Gd16 H16 C80 N32 O64'
_cell_volume   3328.75009268
_cell_formula_units_Z   16
loop_
 _symmetry_equiv_pos_site_id
 _symmetry_equiv_pos_as_xyz
  1  'x, y, z'
loop_
 _atom_site_label
 _atom_site_fract_x
 _atom_site_fract_y
 _atom_site_fract_z
 _atom_site_charge
 Gd 0.20516 0.53227 0.37914   2.16825
 Gd 0.01219 0.52371 0.11351   2.176184
 Gd 0.61657 0.96773 0.12086   2.171712
 Gd 0.14941 0.97629 0.38649   2.174124
 Gd 0.5843 0.62086 0.03227   2.167001
 Gd 0.1257 0.88649 0.02371   2.175835
 Gd 0.73743 0.87914 0.46773   2.167735
 Gd 0.5359 0.61351 0.47629   2.175287
 Gd 0.79484 0.46773 0.62086   2.168249
 Gd 0.98781 0.47629 0.88649   2.176185
 Gd 0.38343 0.03227 0.87914   2.17171
 Gd 0.85059 0.02371 0.61351   2.174128
 Gd 0.4157 0.37914 0.96773   2.167
 Gd 0.8743 0.11351 0.97629   2.175835
 Gd 0.26257 0.12086 0.53227   2.167734
 Gd 0.4641 0.38649 0.52371   2.175288
 H 0.8064 0.7521 0.2507   0.033565
 H 0.0821 0.7827 0.3997   0.036724
 H 0.3092 0.7479 0.2493   0.033216
 H 0.7645 0.7173 0.1003   0.038583
 H 0.0571 0.7493 0.2521   0.034538
 H 0.4818 0.6003 0.2827   0.037962
 H 0.5585 0.7507 0.2479   0.033508
 H 0.8648 0.8997 0.2173   0.039092
 H 0.1936 0.2479 0.7493   0.033565
 H 0.9179 0.2173 0.6003   0.036724
 H 0.6908 0.2521 0.7507   0.033216
 H 0.2355 0.2827 0.8997   0.038583
 H 0.9429 0.2507 0.7479   0.034538
 H 0.5182 0.3997 0.7173   0.037962
 H 0.4415 0.2493 0.7521   0.033508
 H 0.1352 0.1003 0.7827   0.039092
 C 0.8533 0.7163 0.2767   0.396169
 C 0.9857 0.6055 0.2973   0.005862
 C 0.9267 0.6705 0.3685   -0.024035
 C 0.0793 0.5147 0.2763   0.770508
 C 0.9383 0.6786 0.449   0.755098
 C 0.1387 0.7595 0.4141   0.425634
 C 0.272 0.6626 0.4426   0.028895
 C 0.251 0.754 0.4514   0.030886
 C 0.3487 0.5696 0.4534   0.721387
 C 0.3051 0.7945 0.4693   0.743834
 C 0.3463 0.7837 0.2233   0.396843
 C 0.3885 0.8945 0.2027   0.003631
 C 0.4657 0.8295 0.1315   -0.022411
 C 0.3703 0.9853 0.2237   0.771575
 C 0.5659 0.8214 0.051   0.752522
 C 0.8123 0.7405 0.0859   0.421588
 C 0.8772 0.8374 0.0574   0.029686
 C 0.9564 0.746 0.0486   0.032186
 C 0.8717 0.9304 0.0466   0.722034
 C 0.0689 0.7055 0.0307   0.746206
 C 0.13 0.7233 0.2163   0.396436
 C 0.283 0.7027 0.1055   0.005987
 C 0.2952 0.6315 0.1705   -0.024712
 C 0.3556 0.7237 0.0147   0.767888
 C 0.3873 0.551 0.1786   0.755531
 C 0.5528 0.5859 0.2595   0.421132
 C 0.7146 0.5574 0.1626   0.026144
 C 0.7024 0.5486 0.254   0.029655
 C 0.8021 0.5466 0.0696   0.725634
 C 0.7744 0.5307 0.2945   0.74559
 C 0.5696 0.7767 0.2837   0.395648
 C 0.5912 0.7973 0.3945   0.005333
 C 0.5972 0.8685 0.3295   -0.022385
 C 0.594 0.7763 0.4853   0.766194
 C 0.6169 0.949 0.3214   0.756163
 C 0.8982 0.9141 0.2405   0.421306
 C 0.9346 0.9426 0.3374   0.028068
 C 0.005 0.9514 0.246   0.030933
 C 0.9183 0.9534 0.4304   0.720335
 C 0.0996 0.9693 0.2055   0.743585
 C 0.1467 0.2837 0.7233   0.396169
 C 0.0143 0.3945 0.7027   0.005862
 C 0.0733 0.3295 0.6315   -0.024035
 C 0.9207 0.4853 0.7237   0.770508
 C 0.0617 0.3214 0.551   0.755098
 C 0.8613 0.2405 0.5859   0.425634
 C 0.728 0.3374 0.5574   0.028895
 C 0.749 0.246 0.5486   0.030886
 C 0.6513 0.4304 0.5466   0.721386
 C 0.6949 0.2055 0.5307   0.743834
 C 0.6537 0.2163 0.7767   0.396843
 C 0.6115 0.1055 0.7973   0.003631
 C 0.5343 0.1705 0.8685   -0.022411
 C 0.6297 0.0147 0.7763   0.771575
 C 0.4341 0.1786 0.949   0.752522
 C 0.1877 0.2595 0.9141   0.421588
 C 0.1228 0.1626 0.9426   0.029687
 C 0.0436 0.254 0.9514   0.032186
 C 0.1283 0.0696 0.9534   0.722034
 C 0.9311 0.2945 0.9693   0.746206
 C 0.87 0.2767 0.7837   0.396436
 C 0.717 0.2973 0.8945   0.005987
 C 0.7048 0.3685 0.8295   -0.024712
 C 0.6444 0.2763 0.9853   0.767888
 C 0.6127 0.449 0.8214   0.755531
 C 0.4472 0.4141 0.7405   0.421132
 C 0.2854 0.4426 0.8374   0.026144
 C 0.2976 0.4514 0.746   0.029655
 C 0.1979 0.4534 0.9304   0.725634
 C 0.2256 0.4693 0.7055   0.745591
 C 0.4304 0.2233 0.7163   0.395648
 C 0.4088 0.2027 0.6055   0.005333
 C 0.4028 0.1315 0.6705   -0.022385
 C 0.406 0.2237 0.5147   0.766194
 C 0.3831 0.051 0.6786   0.756163
 C 0.1018 0.0859 0.7595   0.421306
 C 0.0654 0.0574 0.6626   0.028069
 C 0.995 0.0486 0.754   0.030933
 C 0.0817 0.0466 0.5696   0.720335
 C 0.9004 0.0307 0.7945   0.743585
 N 0.8416 0.7416 0.355   -0.609778
 N 0.9373 0.6359 0.2391   -0.562928
 N 0.1668 0.814 0.4322   -0.595733
 N 0.1992 0.6683 0.4183   -0.63833
 N 0.4382 0.7584 0.145   -0.609954
 N 0.3123 0.8641 0.2609   -0.562343
 N 0.913 0.686 0.0678   -0.595665
 N 0.7858 0.8317 0.0817   -0.637348
 N 0.1966 0.645 0.2416   -0.609713
 N 0.1764 0.7609 0.1359   -0.563697
 N 0.599 0.5678 0.314   -0.592505
 N 0.6175 0.5817 0.1683   -0.635184
 N 0.5832 0.855 0.2584   -0.608858
 N 0.5732 0.7391 0.3641   -0.562127
 N 0.9808 0.9322 0.186   -0.594552
 N 0.8675 0.9183 0.3317   -0.636125
 N 0.1584 0.2584 0.645   -0.609778
 N 0.0627 0.3641 0.7609   -0.562928
 N 0.8332 0.186 0.5678   -0.595733
 N 0.8008 0.3317 0.5817   -0.63833
 N 0.5618 0.2416 0.855   -0.609954
 N 0.6877 0.1359 0.7391   -0.562343
 N 0.087 0.314 0.9322   -0.595665
 N 0.2142 0.1683 0.9183   -0.637348
 N 0.8034 0.355 0.7584   -0.609713
 N 0.8236 0.2391 0.8641   -0.563697
 N 0.401 0.4322 0.686   -0.592505
 N 0.3825 0.4183 0.8317   -0.635184
 N 0.4168 0.145 0.7416   -0.608858
 N 0.4268 0.2609 0.6359   -0.562127
 N 0.0192 0.0678 0.814   -0.594552
 N 0.1325 0.0817 0.6683   -0.636125
 O 0.1322 0.4821 0.3215   -0.756569
 O 0.1048 0.4697 0.2077   -0.709477
 O 0.0226 0.6279 0.4545   -0.734664
 O 0.8593 0.7406 0.5082   -0.699605
 O 0.3482 0.5012 0.4312   -0.73727
 O 0.4128 0.5554 0.4856   -0.81682
 O 0.3757 0.744 0.495   -0.729355
 O 0.2723 0.8821 0.4573   -0.677705
 O 0.4358 0.0179 0.1785   -0.757841
 O 0.2822 0.0303 0.2923   -0.709235
 O 0.605 0.8721 0.0455   -0.733555
 O 0.6081 0.7594 0.9918   -0.698019
 O 0.7806 0.9988 0.0688   -0.737582
 O 0.9538 0.9446 0.0144   -0.817874
 O 0.1147 0.756 0.005   -0.73064
 O 0.1117 0.6179 0.0427   -0.678617
 O 0.4537 0.6785 0.9821   -0.756207
 O 0.3125 0.7923 0.9697   -0.708708
 O 0.4771 0.5455 0.1279   -0.734231
 O 0.3675 0.4918 0.2406   -0.700355
 O 0.7794 0.5688 0.0012   -0.739204
 O 0.8984 0.5144 0.0554   -0.818774
 O 0.8707 0.505 0.244   -0.730371
 O 0.7296 0.5427 0.3821   -0.678493
 O 0.6143 0.8215 0.5179   -0.754738
 O 0.5745 0.7077 0.5303   -0.708696
 O 0.6505 0.9545 0.3721   -0.735692
 O 0.5999 0.0082 0.2594   -0.699471
 O 0.8494 0.9312 0.4988   -0.737627
 O 0.9682 0.9856 0.4446   -0.816262
 O 0.1197 0.995 0.256   -0.728474
 O 0.1544 0.9573 0.1179   -0.678912
 O 0.8678 0.5179 0.6785   -0.756569
 O 0.8952 0.5303 0.7923   -0.709477
 O 0.9774 0.3721 0.5455   -0.734665
 O 0.1407 0.2594 0.4918   -0.699605
 O 0.6518 0.4988 0.5688   -0.73727
 O 0.5872 0.4446 0.5144   -0.81682
 O 0.6243 0.256 0.505   -0.729356
 O 0.7277 0.1179 0.5427   -0.677705
 O 0.5642 0.9821 0.8215   -0.757841
 O 0.7178 0.9697 0.7077   -0.709235
 O 0.395 0.1279 0.9545   -0.733555
 O 0.3919 0.2406 0.0082   -0.69802
 O 0.2194 0.0012 0.9312   -0.737582
 O 0.0462 0.0554 0.9856   -0.817874
 O 0.8853 0.244 0.995   -0.73064
 O 0.8883 0.3821 0.9573   -0.678617
 O 0.5463 0.3215 0.0179   -0.756207
 O 0.6875 0.2077 0.0303   -0.708708
 O 0.5229 0.4545 0.8721   -0.734231
 O 0.6325 0.5082 0.7594   -0.700355
 O 0.2206 0.4312 0.9988   -0.739203
 O 0.1016 0.4856 0.9446   -0.818774
 O 0.1293 0.495 0.756   -0.730371
 O 0.2704 0.4573 0.6179   -0.678493
 O 0.3857 0.1785 0.4821   -0.754739
 O 0.4255 0.2923 0.4697   -0.708696
 O 0.3495 0.0455 0.6279   -0.735692
 O 0.4001 0.9918 0.7406   -0.699471
 O 0.1506 0.0688 0.5012   -0.737627
 O 0.0318 0.0144 0.5554   -0.816262
 O 0.8803 0.005 0.744   -0.728475
 O 0.8456 0.0427 0.8821   -0.678912
