{'_ref': 'TBD', '_srcid': 'CAKYAQ_clean', 'submitters': [{'name': 'Dalar Nazarian Jeff Camp and David Sholl', 'email': 'dalar@gatech.edu jcamp6@gatech.edu'}], '_method': 'VASP DFT with PBE;DDEC'}
data_Sm(CO2)4
_symmetry_space_group_name_H-M   'P 1'
_cell_length_a   9.68849961
_cell_length_b   11.81700000
_cell_length_c   12.32600000
_cell_angle_alpha   90.00000000
_cell_angle_beta   99.25999859
_cell_angle_gamma   90.00000000
_symmetry_Int_Tables_number   1
_chemical_formula_structural   Sm(CO2)4
_chemical_formula_sum   'Sm4 C16 O32'
_cell_volume   1392.80119104
_cell_formula_units_Z   4
loop_
 _symmetry_equiv_pos_site_id
 _symmetry_equiv_pos_as_xyz
  1  'x, y, z'
loop_
 _atom_site_label
 _atom_site_fract_x
 _atom_site_fract_y
 _atom_site_fract_z
 _atom_site_charge
 Sm 0.78638 0.51645 0.66952   2.160408
 Sm 0.71362 0.01645 0.83048   2.160408
 Sm 0.21362 0.48355 0.33048   2.160408
 Sm 0.28638 0.98355 0.16952   2.160408
 C 0.495 0.5652 0.4992   0.578276
 C 0.7999 0.2469 0.7174   0.57257
 C 0.6997 0.2905 0.7948   0.564227
 C 0.0632 0.5009 0.5476   0.589772
 C 0.005 0.0652 0.000799999999998   0.578275
 C 0.7001 0.7469 0.7826   0.572569
 C 0.8003 0.7905 0.7052   0.564227
 C 0.4368 0.000900000000001 0.9524   0.589772
 C 0.505 0.4348 0.5008   0.578276
 C 0.2001 0.7531 0.2826   0.572569
 C 0.3003 0.7095 0.2052   0.564226
 C 0.9368 0.4991 0.4524   0.589771
 C 0.995 0.9348 0.9992   0.578276
 C 0.2999 0.2531 0.2174   0.572569
 C 0.1997 0.2095 0.2948   0.564226
 C 0.5632 0.9991 0.0476   0.589771
 O 0.583 0.6182 0.5658   -0.565803
 O 0.3989 0.6079 0.4322   -0.559681
 O 0.8666 0.32031 0.673   -0.559357
 O 0.807 0.1423 0.705   -0.560394
 O 0.64 0.2166 0.8438   -0.545034
 O 0.6862 0.3955 0.8011   -0.552032
 O 0.0336 0.5151 0.6424   -0.563561
 O 0.1814 0.4875 0.5225   -0.559389
 O 0.917 0.1182 0.9342   -0.565803
 O 0.1011 0.1079 0.0678   -0.559681
 O 0.6334 0.82031 0.827   -0.559357
 O 0.693 0.6423 0.795   -0.560394
 O 0.86 0.7166 0.6562   -0.545033
 O 0.8138 0.8955 0.6989   -0.552032
 O 0.4664 0.0151 0.8576   -0.563561
 O 0.3186 0.9875 0.9775   -0.559389
 O 0.417 0.3818 0.4342   -0.565803
 O 0.6011 0.3921 0.5678   -0.559681
 O 0.1334 0.67969 0.327   -0.559357
 O 0.193 0.8577 0.295   -0.560394
 O 0.36 0.7834 0.1562   -0.545033
 O 0.3138 0.6045 0.1989   -0.552032
 O 0.9664 0.4849 0.3576   -0.563561
 O 0.8186 0.5125 0.4775   -0.559389
 O 0.083 0.8818 0.0658   -0.565803
 O 0.8989 0.8921 0.9322   -0.559681
 O 0.3666 0.17969 0.173   -0.559357
 O 0.307 0.3577 0.205   -0.560394
 O 0.14 0.2834 0.3438   -0.545033
 O 0.1862 0.1045 0.3011   -0.552033
 O 0.5336 0.9849 0.1424   -0.563561
 O 0.6814 0.0125 0.0225   -0.559389
