{'_ref': 'TBD', '_srcid': 'CAKYAQ_clean', 'submitters': [{'name': 'Dalar Nazarian Jeff Camp and David Sholl', 'email': 'dalar@gatech.edu jcamp6@gatech.edu'}], '_method': 'VASP DFT with PBE;DDEC'}
data_DyHC5(NO2)2
_symmetry_space_group_name_H-M   'P 1'
_cell_length_a   16.00099988
_cell_length_b   16.37960024
_cell_length_c   16.37960000
_cell_angle_alpha   76.19740181
_cell_angle_beta   60.76170172
_cell_angle_gamma   60.76170119
_symmetry_Int_Tables_number   1
_chemical_formula_structural   DyHC5(NO2)2
_chemical_formula_sum   'Dy16 H16 C80 N32 O64'
_cell_volume   3268.73661687
_cell_formula_units_Z   16
loop_
 _symmetry_equiv_pos_site_id
 _symmetry_equiv_pos_as_xyz
  1  'x, y, z'
loop_
 _atom_site_label
 _atom_site_fract_x
 _atom_site_fract_y
 _atom_site_fract_z
 _atom_site_charge
 Dy 0.41765 0.37961 0.96619   2.254324
 Dy 0.87537 0.11309 0.97501   2.265627
 Dy 0.26345 0.12039 0.53381   2.254456
 Dy 0.46347 0.38691 0.52499   2.265396
 Dy 0.38384 0.03381 0.87961   2.254749
 Dy 0.85038 0.02499 0.61309   2.265398
 Dy 0.79726 0.46619 0.62039   2.255598
 Dy 0.98846 0.47501 0.88691   2.265663
 Dy 0.58235 0.62039 0.03381   2.254322
 Dy 0.12463 0.88691 0.02499   2.265627
 Dy 0.73655 0.87961 0.46619   2.254454
 Dy 0.53653 0.61309 0.47501   2.265396
 Dy 0.61616 0.96619 0.12039   2.254747
 Dy 0.14962 0.97501 0.38691   2.265398
 Dy 0.20274 0.53381 0.37961   2.255596
 Dy 0.01154 0.52499 0.11309   2.265663
 H 0.9462 0.2486 0.7452   0.033706
 H 0.5194 0.4004 0.7166   0.033312
 H 0.44 0.2514 0.7548   0.033542
 H 0.1364 0.0996 0.7834   0.034132
 H 0.6914 0.2548 0.7486   0.032504
 H 0.236 0.2834 0.9004   0.03317
 H 0.1948 0.2452 0.7514   0.033043
 H 0.9198 0.2166 0.5996   0.033957
 H 0.0538 0.7514 0.2548   0.033706
 H 0.4806 0.5996 0.2834   0.033312
 H 0.56 0.7486 0.2452   0.033542
 H 0.8636 0.9004 0.2166   0.034132
 H 0.3086 0.7452 0.2514   0.032504
 H 0.764 0.7166 0.0996   0.03317
 H 0.8052 0.7548 0.2486   0.033043
 H 0.0802 0.7834 0.4004   0.033957
 C 0.8728 0.2753 0.7819   0.402404
 C 0.7197 0.2958 0.8938   0.016611
 C 0.7075 0.3671 0.8281   -0.031654
 C 0.6459 0.2748 0.985   0.787458
 C 0.6156 0.4474 0.82   0.75409
 C 0.4477 0.4151 0.7401   0.442814
 C 0.2861 0.4444 0.837   0.033384
 C 0.298 0.4526 0.7454   0.025764
 C 0.1973 0.4547 0.9311   0.738667
 C 0.2253 0.4687 0.7063   0.756333
 C 0.43 0.2247 0.7181   0.402318
 C 0.4093 0.2042 0.6062   0.013875
 C 0.4027 0.1329 0.6719   -0.031228
 C 0.4057 0.2252 0.515   0.787751
 C 0.383 0.0526 0.68   0.755794
 C 0.1029 0.0849 0.7599   0.441832
 C 0.0675 0.0556 0.663   0.033732
 C 0.996 0.0474 0.7546   0.028689
 C 0.0831 0.0453 0.5689   0.736987
 C 0.9003 0.0313 0.7937   0.757295
 C 0.6547 0.2181 0.7753   0.404602
 C 0.6135 0.1062 0.7958   0.016465
 C 0.5356 0.1719 0.8671   -0.031222
 C 0.6309 0.015 0.7748   0.785766
 C 0.4356 0.18 0.9474   0.75441
 C 0.1878 0.2599 0.9151   0.444757
 C 0.1231 0.163 0.9444   0.033117
 C 0.0434 0.2546 0.9526   0.029616
 C 0.1284 0.0689 0.9547   0.740927
 C 0.9316 0.2937 0.9687   0.755326
 C 0.1481 0.2819 0.7247   0.400586
 C 0.0155 0.3938 0.7042   0.016574
 C 0.0746 0.3281 0.6329   -0.032791
 C 0.9207 0.485 0.7252   0.789661
 C 0.063 0.32 0.5526   0.757745
 C 0.8628 0.2401 0.5849   0.443413
 C 0.7305 0.337 0.5556   0.035495
 C 0.7506 0.2454 0.5474   0.02833
 C 0.652 0.4311 0.5453   0.735935
 C 0.694 0.2063 0.5313   0.755731
 C 0.1272 0.7247 0.2181   0.402404
 C 0.2803 0.7042 0.1062   0.016611
 C 0.2925 0.6329 0.1719   -0.031654
 C 0.3541 0.7252 0.015   0.787458
 C 0.3844 0.5526 0.18   0.75409
 C 0.5523 0.5849 0.2599   0.442814
 C 0.7139 0.5556 0.163   0.033384
 C 0.702 0.5474 0.2546   0.025764
 C 0.8027 0.5453 0.0689   0.738667
 C 0.7747 0.5313 0.2937   0.756333
 C 0.57 0.7753 0.2819   0.402318
 C 0.5907 0.7958 0.3938   0.013875
 C 0.5973 0.8671 0.3281   -0.031228
 C 0.5943 0.7748 0.485   0.787751
 C 0.617 0.9474 0.32   0.755794
 C 0.8971 0.9151 0.2401   0.441832
 C 0.9325 0.9444 0.337   0.033732
 C 0.004 0.9526 0.2454   0.028689
 C 0.9169 0.9547 0.4311   0.736987
 C 0.0997 0.9687 0.2063   0.757296
 C 0.3453 0.7819 0.2247   0.404602
 C 0.3865 0.8938 0.2042   0.016465
 C 0.4644 0.8281 0.1329   -0.031222
 C 0.3691 0.985 0.2252   0.785766
 C 0.5644 0.82 0.0526   0.75441
 C 0.8122 0.7401 0.0849   0.444757
 C 0.8769 0.837 0.0556   0.033117
 C 0.9566 0.7454 0.0474   0.029616
 C 0.8716 0.9311 0.0453   0.740927
 C 0.0684 0.7063 0.0313   0.755326
 C 0.8519 0.7181 0.2753   0.400586
 C 0.9845 0.6062 0.2958   0.016574
 C 0.9254 0.6719 0.3671   -0.032791
 C 0.0793 0.515 0.2748   0.789661
 C 0.937 0.68 0.4474   0.757745
 C 0.1372 0.7599 0.4151   0.443413
 C 0.2695 0.663 0.4444   0.035495
 C 0.2494 0.7546 0.4526   0.02833
 C 0.348 0.5689 0.4547   0.735935
 C 0.306 0.7937 0.4687   0.755731
 N 0.8064 0.3532 0.7572   -0.6175
 N 0.8258 0.2378 0.864   -0.580221
 N 0.4019 0.433 0.6856   -0.615957
 N 0.3838 0.4196 0.8318   -0.661901
 N 0.4168 0.1468 0.7428   -0.617993
 N 0.4276 0.2622 0.636   -0.577563
 N 0.0205 0.067 0.8144   -0.61834
 N 0.1352 0.0804 0.6682   -0.661953
 N 0.5636 0.2428 0.8532   -0.618448
 N 0.6898 0.136 0.7378   -0.580062
 N 0.0875 0.3144 0.933   -0.618943
 N 0.2156 0.1682 0.9196   -0.663217
 N 0.1596 0.2572 0.6468   -0.614323
 N 0.0636 0.364 0.7622   -0.580718
 N 0.8349 0.1856 0.567   -0.617539
 N 0.8034 0.3318 0.5804   -0.664363
 N 0.1936 0.6468 0.2428   -0.6175
 N 0.1742 0.7622 0.136   -0.580221
 N 0.5981 0.567 0.3144   -0.615957
 N 0.6162 0.5804 0.1682   -0.661901
 N 0.5832 0.8532 0.2572   -0.617993
 N 0.5724 0.7378 0.364   -0.577563
 N 0.9795 0.933 0.1856   -0.61834
 N 0.8648 0.9196 0.3318   -0.661953
 N 0.4364 0.7572 0.1468   -0.618448
 N 0.3102 0.864 0.2622   -0.580062
 N 0.9125 0.6856 0.067   -0.618943
 N 0.7844 0.8318 0.0804   -0.663217
 N 0.8404 0.7428 0.3532   -0.614323
 N 0.9364 0.636 0.2378   -0.580718
 N 0.1651 0.8144 0.433   -0.617539
 N 0.1966 0.6682 0.4196   -0.664363
 O 0.5468 0.3202 0.0174   -0.785947
 O 0.6903 0.2059 0.0287   -0.725692
 O 0.6342 0.5076 0.757   -0.716273
 O 0.5233 0.4557 0.8719   -0.75882
 O 0.2216 0.4321 0.9987   -0.760258
 O 0.1012 0.4869 0.9457   -0.846258
 O 0.2706 0.4563 0.6183   -0.69201
 O 0.1283 0.494 0.7566   -0.751728
 O 0.3844 0.1798 0.4826   -0.786054
 O 0.4249 0.2941 0.4713   -0.725613
 O 0.3988 0.9924 0.743   -0.716598
 O 0.3509 0.0443 0.6281   -0.759944
 O 0.1524 0.0679 0.5013   -0.761335
 O 0.0338 0.0131 0.5543   -0.843797
 O 0.8452 0.0437 0.8817   -0.691876
 O 0.8789 0.006 0.7434   -0.753224
 O 0.5642 0.9826 0.8202   -0.785703
 O 0.719 0.9713 0.7059   -0.724693
 O 0.3912 0.243 0.0076   -0.716139
 O 0.3952 0.1281 0.9557   -0.759725
 O 0.2203 0.0013 0.9321   -0.762372
 O 0.0469 0.0543 0.9869   -0.846899
 O 0.8889 0.3817 0.9563   -0.691845
 O 0.8849 0.2434 0.994   -0.752452
 O 0.867 0.5174 0.6798   -0.787847
 O 0.8962 0.5287 0.7941   -0.726033
 O 0.1418 0.257 0.4924   -0.717427
 O 0.979 0.3719 0.5443   -0.760705
 O 0.6537 0.4987 0.5679   -0.759522
 O 0.5881 0.4457 0.5131   -0.845228
 O 0.7269 0.1183 0.5437   -0.692227
 O 0.6223 0.2566 0.506   -0.752648
 O 0.4532 0.6798 0.9826   -0.785947
 O 0.3097 0.7941 0.9713   -0.725692
 O 0.3658 0.4924 0.243   -0.716273
 O 0.4767 0.5443 0.1281   -0.75882
 O 0.7784 0.5679 0.0013   -0.760258
 O 0.8988 0.5131 0.0543   -0.846258
 O 0.7294 0.5437 0.3817   -0.69201
 O 0.8717 0.506 0.2434   -0.751728
 O 0.6156 0.8202 0.5174   -0.786054
 O 0.5751 0.7059 0.5287   -0.725613
 O 0.6012 0.0076 0.257   -0.716598
 O 0.6491 0.9557 0.3719   -0.759944
 O 0.8476 0.9321 0.4987   -0.761335
 O 0.9662 0.9869 0.4457   -0.843797
 O 0.1548 0.9563 0.1183   -0.691876
 O 0.1211 0.994 0.2566   -0.753224
 O 0.4358 0.0174 0.1798   -0.785703
 O 0.281 0.0287 0.2941   -0.724693
 O 0.6088 0.757 0.9924   -0.716139
 O 0.6048 0.8719 0.0443   -0.759725
 O 0.7797 0.9987 0.0679   -0.762372
 O 0.9531 0.9457 0.0131   -0.846899
 O 0.1111 0.6183 0.0437   -0.691845
 O 0.1151 0.7566 0.006   -0.752452
 O 0.133 0.4826 0.3202   -0.787847
 O 0.1038 0.4713 0.2059   -0.726033
 O 0.8582 0.743 0.5076   -0.717427
 O 0.021 0.6281 0.4557   -0.760705
 O 0.3463 0.5013 0.4321   -0.759522
 O 0.4119 0.5543 0.4869   -0.845228
 O 0.2731 0.8817 0.4563   -0.692227
 O 0.3777 0.7434 0.494   -0.752648
