{'_ref': 'TBD', '_srcid': 'CAKYAQ_clean', 'submitters': [{'name': 'Dalar Nazarian Jeff Camp and David Sholl', 'email': 'dalar@gatech.edu jcamp6@gatech.edu'}], '_method': 'VASP DFT with PBE;DDEC'}
data_Gd(CO2)4
_symmetry_space_group_name_H-M   'P 1'
_cell_length_a   9.65899976
_cell_length_b   11.71800000
_cell_length_c   12.28100000
_cell_angle_alpha   90.00000000
_cell_angle_beta   99.19999788
_cell_angle_gamma   90.00000000
_symmetry_Int_Tables_number   1
_chemical_formula_structural   Gd(CO2)4
_chemical_formula_sum   'Gd4 C16 O32'
_cell_volume   1372.13388643
_cell_formula_units_Z   4
loop_
 _symmetry_equiv_pos_site_id
 _symmetry_equiv_pos_as_xyz
  1  'x, y, z'
loop_
 _atom_site_label
 _atom_site_fract_x
 _atom_site_fract_y
 _atom_site_fract_z
 _atom_site_charge
 Gd 0.78595 0.4852 0.66865   2.06627
 Gd 0.71405 0.9852 0.83135   2.06627
 Gd 0.21405 0.5148 0.33135   2.066272
 Gd 0.28595 0.0148 0.16865   2.066272
 C 0.8014 0.2108 0.7062   0.556197
 C 0.7006 0.2546 0.7832   0.569336
 C 0.0629 0.4995 0.5475   0.584857
 C 0.4947 0.434 0.5001   0.575366
 C 0.6986 0.7108 0.7938   0.556197
 C 0.7994 0.7546 0.7168   0.569336
 C 0.4371 0.9995 0.9525   0.584858
 C 0.0053 0.934 0.9999   0.575366
 C 0.1986 0.7892 0.2938   0.556197
 C 0.2994 0.7454 0.2168   0.569336
 C 0.9371 0.5005 0.4525   0.584852
 C 0.5053 0.566 0.4999   0.575374
 C 0.3014 0.2892 0.2062   0.556197
 C 0.2006 0.2454 0.2832   0.569337
 C 0.5629 0.000500000000002 0.0475   0.584853
 C 0.9947 0.066 0.000100000000003   0.575374
 O 0.8603 0.2857 0.6561   -0.53665
 O 0.8173 0.1053 0.701   -0.531766
 O 0.6916 0.3605 0.794   -0.547611
 O 0.6345 0.1809 0.8277   -0.543423
 O 0.0334 0.4875 0.6429   -0.545784
 O 0.1814 0.5118 0.5225   -0.550596
 O 0.5845 0.382 0.5663   -0.549399
 O 0.398 0.39 0.4342   -0.546799
 O 0.6397 0.7857 0.8439   -0.53665
 O 0.6827 0.6053 0.799   -0.531766
 O 0.8084 0.8605 0.706   -0.547611
 O 0.8655 0.6809 0.6723   -0.543424
 O 0.4666 0.9875 0.8571   -0.545784
 O 0.3186 0.0118 0.9775   -0.550596
 O 0.9155 0.882 0.9337   -0.549399
 O 0.102 0.89 0.0658   -0.546799
 O 0.1397 0.7143 0.3439   -0.53665
 O 0.1827 0.8947 0.299   -0.531766
 O 0.3084 0.6395 0.206   -0.547611
 O 0.3655 0.8191 0.1723   -0.543424
 O 0.9666 0.5125 0.3571   -0.545784
 O 0.8186 0.4882 0.4775   -0.550596
 O 0.4155 0.618 0.4337   -0.5494
 O 0.602 0.61 0.5658   -0.5468
 O 0.3603 0.2143 0.1561   -0.53665
 O 0.3173 0.3947 0.201   -0.531766
 O 0.1916 0.1395 0.294   -0.547611
 O 0.1345 0.3191 0.3277   -0.543424
 O 0.5334 0.0125 0.1429   -0.545784
 O 0.6814 0.9882 0.0225   -0.550596
 O 0.0845 0.118 0.0663   -0.5494
 O 0.898 0.11 0.9342   -0.5468
