{'_ref': 'TBD', '_srcid': 'CAKYAQ_clean', 'submitters': [{'name': 'Dalar Nazarian Jeff Camp and David Sholl', 'email': 'dalar@gatech.edu jcamp6@gatech.edu'}], '_method': 'VASP DFT with PBE;DDEC'}
data_Be2H3C5O6
_symmetry_space_group_name_H-M   'P 1'
_cell_length_a   10.37050000
_cell_length_b   11.24220000
_cell_length_c   18.40300000
_cell_angle_alpha   90.00000000
_cell_angle_beta   90.00000000
_cell_angle_gamma   90.00000000
_symmetry_Int_Tables_number   1
_chemical_formula_structural   Be2H3C5O6
_chemical_formula_sum   'Be16 H24 C40 O48'
_cell_volume   2145.55488755
_cell_formula_units_Z   8
loop_
 _symmetry_equiv_pos_site_id
 _symmetry_equiv_pos_as_xyz
  1  'x, y, z'
loop_
 _atom_site_label
 _atom_site_fract_x
 _atom_site_fract_y
 _atom_site_fract_z
 _atom_site_charge
 Be 0.25 0.25 0.3027   1.239605
 Be 0.75 0.75 0.3027   1.239605
 Be 0.75 0.25 0.1973   1.239605
 Be 0.25 0.75 0.1973   1.239605
 Be 0.75 0.75 0.6973   1.239605
 Be 0.25 0.25 0.6973   1.239605
 Be 0.25 0.75 0.8027   1.239605
 Be 0.75 0.25 0.8027   1.239605
 Be 0.0 0.2204 0.25   1.224855
 Be 0.0 0.7796 0.25   1.224855
 Be 0.5 0.7204 0.25   1.224855
 Be 0.5 0.2796 0.25   1.224855
 Be 0.0 0.7796 0.75   1.224855
 Be 0.0 0.2204 0.75   1.224855
 Be 0.5 0.2796 0.75   1.224855
 Be 0.5 0.7204 0.75   1.224855
 H 0.1338 0.3693 0.2357   0.475362
 H 0.8662 0.6307 0.2357   0.475362
 H 0.8662 0.3693 0.2643   0.475363
 H 0.1338 0.6307 0.2643   0.475363
 H 0.6338 0.8693 0.2357   0.475362
 H 0.3662 0.1307 0.2357   0.475362
 H 0.3662 0.8693 0.2643   0.475363
 H 0.6338 0.1307 0.2643   0.475363
 H 0.8662 0.6307 0.7643   0.475362
 H 0.1338 0.3693 0.7643   0.475362
 H 0.1338 0.6307 0.7357   0.475363
 H 0.8662 0.3693 0.7357   0.475363
 H 0.3662 0.1307 0.7643   0.475362
 H 0.6338 0.8693 0.7643   0.475362
 H 0.6338 0.1307 0.7357   0.475363
 H 0.3662 0.8693 0.7357   0.475363
 H 0.1448 0.1564 0.5   0.11738
 H 0.8552 0.8436 0.5   0.11738
 H 0.8552 0.1564 0.0   0.11738
 H 0.1448 0.8436 0.0   0.11738
 H 0.6448 0.6564 0.5   0.117378
 H 0.3552 0.3436 0.5   0.117378
 H 0.3552 0.6564 0.0   0.117378
 H 0.6448 0.3436 0.0   0.117378
 C 0.0861 0.0938 0.5   -0.038449
 C 0.9139 0.9062 0.5   -0.038449
 C 0.9139 0.0938 0.0   -0.038449
 C 0.0861 0.9062 0.0   -0.038449
 C 0.5861 0.5938 0.5   -0.038448
 C 0.4139 0.4062 0.5   -0.038449
 C 0.4139 0.5938 0.0   -0.038448
 C 0.5861 0.4062 0.0   -0.038449
 C 0.043 0.0479 0.43402   -0.093493
 C 0.957 0.9521 0.43402   -0.093496
 C 0.957 0.0479 0.06598   -0.093493
 C 0.043 0.9521 0.06598   -0.093496
 C 0.543 0.5479 0.43402   -0.093493
 C 0.457 0.4521 0.43402   -0.093496
 C 0.457 0.5479 0.06598   -0.093493
 C 0.543 0.4521 0.06598   -0.093496
 C 0.957 0.9521 0.56598   -0.093493
 C 0.043 0.0479 0.56598   -0.093496
 C 0.043 0.9521 0.93402   -0.093493
 C 0.957 0.0479 0.93402   -0.093496
 C 0.457 0.4521 0.56598   -0.093493
 C 0.543 0.5479 0.56598   -0.093496
 C 0.543 0.4521 0.93402   -0.093493
 C 0.457 0.5479 0.93402   -0.093496
 C 0.0795 0.112 0.36603   0.747688
 C 0.9205 0.888 0.36603   0.747688
 C 0.9205 0.112 0.13397   0.747688
 C 0.0795 0.888 0.13397   0.747688
 C 0.5795 0.612 0.36603   0.747688
 C 0.4205 0.388 0.36603   0.747688
 C 0.4205 0.612 0.13397   0.747688
 C 0.5795 0.388 0.13397   0.747688
 C 0.9205 0.888 0.63397   0.747688
 C 0.0795 0.112 0.63397   0.747688
 C 0.0795 0.888 0.86603   0.747688
 C 0.9205 0.112 0.86603   0.747688
 C 0.4205 0.388 0.63397   0.747688
 C 0.5795 0.612 0.63397   0.747688
 C 0.5795 0.388 0.86603   0.747688
 C 0.4205 0.612 0.86603   0.747688
 O 0.19449 0.14658 0.35995   -0.657287
 O 0.80551 0.85342 0.35995   -0.657287
 O 0.80551 0.14658 0.14005   -0.657287
 O 0.19449 0.85342 0.14005   -0.657287
 O 0.69449 0.64658 0.35995   -0.657287
 O 0.30551 0.35342 0.35995   -0.657287
 O 0.30551 0.64658 0.14005   -0.657287
 O 0.69449 0.35342 0.14005   -0.657287
 O 0.80551 0.85342 0.64005   -0.657287
 O 0.19449 0.14658 0.64005   -0.657287
 O 0.19449 0.85342 0.85995   -0.657287
 O 0.80551 0.14658 0.85995   -0.657287
 O 0.30551 0.35342 0.64005   -0.657287
 O 0.69449 0.64658 0.64005   -0.657287
 O 0.69449 0.35342 0.85995   -0.657287
 O 0.30551 0.64658 0.85995   -0.657287
 O 0.99042 0.13258 0.32197   -0.639266
 O 0.00958 0.86742 0.32197   -0.639266
 O 0.00958 0.13258 0.17803   -0.639266
 O 0.99042 0.86742 0.17803   -0.639266
 O 0.49042 0.63258 0.32197   -0.639266
 O 0.50958 0.36742 0.32197   -0.639266
 O 0.50958 0.63258 0.17803   -0.639266
 O 0.49042 0.36742 0.17803   -0.639266
 O 0.00958 0.86742 0.67803   -0.639266
 O 0.99042 0.13258 0.67803   -0.639266
 O 0.99042 0.86742 0.82197   -0.639266
 O 0.00958 0.13258 0.82197   -0.639266
 O 0.50958 0.36742 0.67803   -0.639266
 O 0.49042 0.63258 0.67803   -0.639266
 O 0.49042 0.36742 0.82197   -0.639266
 O 0.50958 0.63258 0.82197   -0.639266
 O 0.12905 0.29534 0.25815   -1.104698
 O 0.87095 0.70466 0.25815   -1.104698
 O 0.87095 0.29534 0.24185   -1.104699
 O 0.12905 0.70466 0.24185   -1.104699
 O 0.62905 0.79534 0.25815   -1.104698
 O 0.37095 0.20466 0.25815   -1.104698
 O 0.37095 0.79534 0.24185   -1.104699
 O 0.62905 0.20466 0.24185   -1.104699
 O 0.87095 0.70466 0.74185   -1.104698
 O 0.12905 0.29534 0.74185   -1.104698
 O 0.12905 0.70466 0.75815   -1.104699
 O 0.87095 0.29534 0.75815   -1.104699
 O 0.37095 0.20466 0.74185   -1.104698
 O 0.62905 0.79534 0.74185   -1.104698
 O 0.62905 0.20466 0.75815   -1.104699
 O 0.37095 0.79534 0.75815   -1.104699
