{'_ref': 'TBD', '_srcid': 'CAKYAQ_clean', 'submitters': [{'name': 'Dalar Nazarian Jeff Camp and David Sholl', 'email': 'dalar@gatech.edu jcamp6@gatech.edu'}], '_method': 'VASP DFT with PBE;DDEC'}
data_CdH25C26N9O4
_symmetry_space_group_name_H-M   'P 1'
_cell_length_a   12.25379975
_cell_length_b   12.25379975
_cell_length_c   23.07750000
_cell_angle_alpha   86.89910068
_cell_angle_beta   86.89910068
_cell_angle_gamma   66.51150135
_symmetry_Int_Tables_number   1
_chemical_formula_structural   CdH25C26N9O4
_chemical_formula_sum   'Cd4 H100 C104 N36 O16'
_cell_volume   3171.43211611
_cell_formula_units_Z   4
loop_
 _symmetry_equiv_pos_site_id
 _symmetry_equiv_pos_as_xyz
  1  'x, y, z'
loop_
 _atom_site_label
 _atom_site_fract_x
 _atom_site_fract_y
 _atom_site_fract_z
 _atom_site_charge
 Cd 0.47531 0.94675 0.26783   0.958886
 Cd 0.05325 0.52469 0.23217   0.958886
 Cd 0.52469 0.05325 0.73217   0.958886
 Cd 0.94675 0.47531 0.76783   0.958886
 H 0.4606 0.6436 0.1411   0.099169
 H 0.5004 0.5454 0.0556   0.08924
 H 0.6937 0.4557 0.0183   0.095739
 H 0.8484 0.467 0.0675   0.091607
 H 0.3453 0.8647 0.1578   0.077563
 H 0.2441 0.1841 0.208   0.113122
 H 0.0629 0.2865 0.1395   0.108619
 H 0.1418 0.2496 0.0824   0.10603
 H 0.8769 0.3029 0.1905   0.131069
 H 0.8433 0.1929 0.2026   0.114068
 H 0.9774 0.1752 0.1988   0.117073
 H 0.1081 0.2511 0.9785   0.131301
 H 0.1884 0.1344 0.0122   0.123172
 H 0.1255 0.1265 0.9561   0.113165
 H 0.6517 0.2365 0.9982   0.125675
 H 0.7358 0.1132 0.9735   0.120781
 H 0.6742 0.119 0.0353   0.118856
 H 0.6261 0.2579 0.1018   0.104746
 H 0.684 0.2784 0.1568   0.118405
 H 0.7339 0.8575 0.1815   0.080105
 H 0.5379 0.1857 0.2106   0.109231
 H 0.8827 0.0757 0.9344   0.076458
 H 0.0117 0.0733 0.9299   0.087206
 H 0.0342 0.228 0.8544   0.100794
 H 0.7067 0.4381 0.8398   0.085107
 H 0.3564 0.5394 0.3589   0.099169
 H 0.4546 0.4996 0.4444   0.08924
 H 0.5443 0.3063 0.4817   0.095739
 H 0.533 0.1516 0.4325   0.091607
 H 0.1353 0.6547 0.3422   0.077563
 H 0.8159 0.7559 0.292   0.113121
 H 0.7135 0.9371 0.3605   0.108619
 H 0.7504 0.8582 0.4176   0.10603
 H 0.6971 0.1231 0.3095   0.131069
 H 0.8071 0.1567 0.2974   0.114069
 H 0.8248 0.0226 0.3012   0.117075
 H 0.7489 0.8919 0.5215   0.131301
 H 0.8656 0.8116 0.4878   0.123172
 H 0.8735 0.8745 0.5439   0.113165
 H 0.7635 0.3483 0.5018   0.125675
 H 0.8868 0.2642 0.5265   0.120781
 H 0.881 0.3258 0.4647   0.118856
 H 0.7421 0.3739 0.3982   0.104746
 H 0.7216 0.316 0.3432   0.118405
 H 0.1425 0.2661 0.3185   0.080105
 H 0.8143 0.4621 0.2894   0.109231
 H 0.9243 0.1173 0.5656   0.076458
 H 0.9267 0.9883 0.5701   0.087206
 H 0.772 0.9658 0.6456   0.100794
 H 0.5619 0.2933 0.6602   0.085107
 H 0.5394 0.3564 0.8589   0.09917
 H 0.4996 0.4546 0.9444   0.089239
 H 0.3063 0.5443 0.9817   0.095739
 H 0.1516 0.533 0.9325   0.091609
 H 0.6547 0.1353 0.8422   0.077562
 H 0.7559 0.8159 0.792   0.113122
 H 0.9371 0.7135 0.8605   0.108619
 H 0.8582 0.7504 0.9176   0.106031
 H 0.1231 0.6971 0.8095   0.131069
 H 0.1567 0.8071 0.7974   0.114068
 H 0.0226 0.8248 0.8012   0.117073
 H 0.8919 0.7489 0.0215   0.131301
 H 0.8116 0.8656 0.9878   0.12317
 H 0.8745 0.8735 0.0439   0.113165
 H 0.3483 0.7635 0.0018   0.125674
 H 0.2642 0.8868 0.0265   0.12078
 H 0.3258 0.881 0.9647   0.118854
 H 0.3739 0.7421 0.8982   0.104746
 H 0.316 0.7216 0.8432   0.118405
 H 0.2661 0.1425 0.8185   0.080104
 H 0.4621 0.8143 0.7894   0.109231
 H 0.1173 0.9243 0.0656   0.076458
 H 0.9883 0.9267 0.0701   0.087206
 H 0.9658 0.772 0.1456   0.100793
 H 0.2933 0.5619 0.1602   0.085108
 H 0.6436 0.4606 0.6411   0.09917
 H 0.5454 0.5004 0.5556   0.089239
 H 0.4557 0.6937 0.5183   0.095739
 H 0.467 0.8484 0.5675   0.091609
 H 0.8647 0.3453 0.6578   0.077562
 H 0.1841 0.2441 0.708   0.113121
 H 0.2865 0.0629 0.6395   0.108619
 H 0.2496 0.1418 0.5824   0.106031
 H 0.3029 0.8769 0.6905   0.131069
 H 0.1929 0.8433 0.7026   0.114069
 H 0.1752 0.9774 0.6988   0.117075
 H 0.2511 0.1081 0.4785   0.131301
 H 0.1344 0.1884 0.5122   0.12317
 H 0.1265 0.1255 0.4561   0.113165
 H 0.2365 0.6517 0.4982   0.125674
 H 0.1132 0.7358 0.4735   0.12078
 H 0.119 0.6742 0.5353   0.118854
 H 0.2579 0.6261 0.6018   0.104746
 H 0.2784 0.684 0.6568   0.118405
 H 0.8575 0.7339 0.6815   0.080104
 H 0.1857 0.5379 0.7106   0.109231
 H 0.0757 0.8827 0.4344   0.076458
 H 0.0733 0.0117 0.4299   0.087206
 H 0.228 0.0342 0.3544   0.100793
 H 0.4381 0.7067 0.3398   0.085108
 C 0.6005 0.6755 0.2144   0.679247
 C 0.6321 0.6131 0.1576   -0.024873
 C 0.5387 0.6077 0.1267   -0.104055
 C 0.5626 0.5492 0.0755   -0.07335
 C 0.6784 0.4956 0.0529   -0.138326
 C 0.7709 0.5025 0.0826   -0.041218
 C 0.75 0.5616 0.1348   -0.160298
 C 0.8527 0.5647 0.1666   0.657778
 C 0.3042 0.9466 0.1603   0.270972
 C 0.2513 0.1171 0.1884   0.140878
 C 0.0997 0.2225 0.1127   -0.059914
 C 0.0027 0.1969 0.0856   -0.096889
 C 0.9041 0.2029 0.1198   0.108736
 C 0.9 0.22 0.1836   -0.360381
 C 0.8077 0.1935 0.0934   -0.121489
 C 0.8146 0.1688 0.0348   0.104302
 C 0.9176 0.1566 0.0012   -0.10599
 C 0.0103 0.1745 0.027   0.091258
 C 0.1179 0.1713 0.9901   -0.353503
 C 0.7095 0.1585 0.008   -0.357036
 C 0.6913 0.2209 0.128   -0.060925
 C 0.7033 0.9403 0.1799   0.282294
 C 0.5965 0.1169 0.1958   0.157731
 C 0.929 0.1228 0.9391   -0.050387
 C 0.9519 0.2633 0.8595   0.146537
 C 0.7751 0.3753 0.8523   0.268161
 C 0.3245 0.3995 0.2856   0.679247
 C 0.3869 0.3679 0.3424   -0.024873
 C 0.3923 0.4613 0.3733   -0.104055
 C 0.4508 0.4374 0.4245   -0.07335
 C 0.5044 0.3216 0.4471   -0.138326
 C 0.4975 0.2291 0.4174   -0.041218
 C 0.4384 0.25 0.3652   -0.160298
 C 0.4353 0.1473 0.3334   0.657778
 C 0.0534 0.6958 0.3397   0.270973
 C 0.8829 0.7487 0.3116   0.140878
 C 0.7775 0.9003 0.3873   -0.059914
 C 0.8031 0.9973 0.4144   -0.096889
 C 0.7971 0.0959 0.3802   0.108736
 C 0.78 0.1 0.3164   -0.360382
 C 0.8065 0.1923 0.4066   -0.121489
 C 0.8312 0.1854 0.4652   0.104302
 C 0.8434 0.0824 0.4988   -0.10599
 C 0.8255 0.9897 0.473   0.091258
 C 0.8287 0.8821 0.5099   -0.353503
 C 0.8415 0.2905 0.492   -0.357036
 C 0.7791 0.3087 0.372   -0.060925
 C 0.0597 0.2967 0.3201   0.282294
 C 0.8831 0.4035 0.3042   0.15773
 C 0.8772 0.071 0.5609   -0.050387
 C 0.7367 0.0481 0.6405   0.146537
 C 0.6247 0.2249 0.6477   0.268161
 C 0.3995 0.3245 0.7856   0.679247
 C 0.3679 0.3869 0.8424   -0.024873
 C 0.4613 0.3923 0.8733   -0.104055
 C 0.4374 0.4508 0.9245   -0.07335
 C 0.3216 0.5044 0.9471   -0.138326
 C 0.2291 0.4975 0.9174   -0.041219
 C 0.25 0.4384 0.8652   -0.160298
 C 0.1473 0.4353 0.8334   0.657778
 C 0.6958 0.0534 0.8397   0.270975
 C 0.7487 0.8829 0.8116   0.140878
 C 0.9003 0.7775 0.8873   -0.059914
 C 0.9973 0.8031 0.9144   -0.096889
 C 0.0959 0.7971 0.8802   0.108736
 C 0.1 0.78 0.8164   -0.360381
 C 0.1923 0.8065 0.9066   -0.121489
 C 0.1854 0.8312 0.9652   0.104301
 C 0.0824 0.8434 0.9988   -0.105989
 C 0.9897 0.8255 0.973   0.091258
 C 0.8821 0.8287 0.0099   -0.353503
 C 0.2905 0.8415 0.992   -0.357036
 C 0.3087 0.7791 0.872   -0.060925
 C 0.2967 0.0597 0.8201   0.282294
 C 0.4035 0.8831 0.8042   0.157731
 C 0.071 0.8772 0.0609   -0.050387
 C 0.0481 0.7367 0.1405   0.14654
 C 0.2249 0.6247 0.1477   0.268161
 C 0.6755 0.6005 0.7144   0.679247
 C 0.6131 0.6321 0.6576   -0.024873
 C 0.6077 0.5387 0.6267   -0.104055
 C 0.5492 0.5626 0.5755   -0.07335
 C 0.4956 0.6784 0.5529   -0.138326
 C 0.5025 0.7709 0.5826   -0.041219
 C 0.5616 0.75 0.6348   -0.160298
 C 0.5647 0.8527 0.6666   0.657778
 C 0.9466 0.3042 0.6603   0.270975
 C 0.1171 0.2513 0.6884   0.140878
 C 0.2225 0.0997 0.6127   -0.059914
 C 0.1969 0.0027 0.5856   -0.096889
 C 0.2029 0.9041 0.6198   0.108736
 C 0.22 0.9 0.6836   -0.360382
 C 0.1935 0.8077 0.5934   -0.121489
 C 0.1688 0.8146 0.5348   0.104301
 C 0.1566 0.9176 0.5012   -0.105989
 C 0.1745 0.0103 0.527   0.091258
 C 0.1713 0.1179 0.4901   -0.353503
 C 0.1585 0.7095 0.508   -0.357036
 C 0.2209 0.6913 0.628   -0.060925
 C 0.9403 0.7033 0.6799   0.282294
 C 0.1169 0.5965 0.6958   0.15773
 C 0.1228 0.929 0.4391   -0.050387
 C 0.2633 0.9519 0.3595   0.14654
 C 0.3753 0.7751 0.3523   0.268162
 N 0.3271 0.0093 0.2012   -0.408635
 N 0.2208 0.0086 0.1248   -0.351748
 N 0.186 0.1196 0.144   0.147846
 N 0.6061 0.0085 0.2111   -0.431238
 N 0.7511 0.0025 0.1469   -0.403266
 N 0.678 0.1166 0.1579   0.174466
 N 0.8895 0.2243 0.898   0.170061
 N 0.7723 0.2965 0.894   -0.360361
 N 0.8835 0.3569 0.83   -0.41548
 N 0.9907 0.6729 0.2988   -0.408635
 N 0.9914 0.7792 0.3752   -0.351748
 N 0.8804 0.814 0.356   0.147846
 N 0.9915 0.3939 0.2889   -0.431238
 N 0.9975 0.2489 0.3531   -0.403266
 N 0.8834 0.322 0.3421   0.174466
 N 0.7757 0.1105 0.602   0.170061
 N 0.7035 0.2277 0.606   -0.360361
 N 0.6431 0.1165 0.67   -0.41548
 N 0.6729 0.9907 0.7988   -0.408635
 N 0.7792 0.9914 0.8752   -0.351748
 N 0.814 0.8804 0.856   0.147846
 N 0.3939 0.9915 0.7889   -0.431238
 N 0.2489 0.9975 0.8531   -0.403266
 N 0.322 0.8834 0.8421   0.174466
 N 0.1105 0.7757 0.102   0.170061
 N 0.2277 0.7035 0.106   -0.360361
 N 0.1165 0.6431 0.17   -0.41548
 N 0.0093 0.3271 0.7012   -0.408635
 N 0.0086 0.2208 0.6248   -0.351748
 N 0.1196 0.186 0.644   0.147846
 N 0.0085 0.6061 0.7111   -0.431238
 N 0.0025 0.7511 0.6469   -0.403266
 N 0.1166 0.678 0.6579   0.174466
 N 0.2243 0.8895 0.398   0.170061
 N 0.2965 0.7723 0.394   -0.360361
 N 0.3569 0.8835 0.33   -0.41548
 O 0.5539 0.7869 0.2096   -0.637596
 O 0.6164 0.613 0.2608   -0.648356
 O 0.8347 0.6371 0.2051   -0.591942
 O 0.9559 0.4901 0.1537   -0.640199
 O 0.2131 0.4461 0.2904   -0.637596
 O 0.387 0.3836 0.2392   -0.648356
 O 0.3629 0.1653 0.2949   -0.591942
 O 0.5099 0.0441 0.3463   -0.640199
 O 0.4461 0.2131 0.7904   -0.637596
 O 0.3836 0.387 0.7392   -0.648356
 O 0.1653 0.3629 0.7949   -0.591942
 O 0.0441 0.5099 0.8463   -0.6402
 O 0.7869 0.5539 0.7096   -0.637596
 O 0.613 0.6164 0.7608   -0.648356
 O 0.6371 0.8347 0.7051   -0.591942
 O 0.4901 0.9559 0.6537   -0.640199
