{'_ref': 'TBD', '_srcid': 'CAKYAQ_clean', 'submitters': [{'name': 'Dalar Nazarian Jeff Camp and David Sholl', 'email': 'dalar@gatech.edu jcamp6@gatech.edu'}], '_method': 'VASP DFT with PBE;DDEC'}
data_ZnH4C8(N2O)2
_symmetry_space_group_name_H-M   'P 1'
_cell_length_a   7.93320000
_cell_length_b   9.90099985
_cell_length_c   17.21630000
_cell_angle_alpha   104.07000059
_cell_angle_beta   90.00000000
_cell_angle_gamma   113.61700302
_symmetry_Int_Tables_number   1
_chemical_formula_structural   ZnH4C8(N2O)2
_chemical_formula_sum   'Zn4 H16 C32 N16 O8'
_cell_volume   1194.61069469
_cell_formula_units_Z   4
loop_
 _symmetry_equiv_pos_site_id
 _symmetry_equiv_pos_as_xyz
  1  'x, y, z'
loop_
 _atom_site_label
 _atom_site_fract_x
 _atom_site_fract_y
 _atom_site_fract_z
 _atom_site_charge
 Zn 0.18685 0.83268 0.75572   0.996391
 Zn 0.33371 0.50092 0.7566   0.902925
 Zn 0.35417 0.16732 0.24428   0.996756
 Zn 0.83279 0.49908 0.2434   0.90204
 H 0.8767 0.7862 0.6063   0.083559
 H 0.8249 0.685 0.4674   0.096143
 H 0.4779 0.2822 0.495   0.107145
 H 0.5425 0.3728 0.6335   0.093527
 H 0.1465 0.0666 0.8972   0.080365
 H 0.2464 0.1448 0.0325   0.08051
 H 0.6878 0.4964 0.9982   0.103912
 H 0.5824 0.422 0.8639   0.095097
 H 0.0905 0.2138 0.3937   0.083366
 H 0.1399 0.315 0.5326   0.095095
 H 0.1957 0.7178 0.505   0.107441
 H 0.1697 0.6272 0.3665   0.094489
 H 0.0799 0.9334 0.1028   0.080691
 H 0.1016 0.8552 0.9675   0.079717
 H 0.1914 0.5036 0.0018   0.104037
 H 0.1604 0.578 0.1361   0.094781
 C 0.741 0.6592 0.7216   0.378655
 C 0.7145 0.5922 0.6345   -0.066355
 C 0.7988 0.6838 0.5844   -0.068003
 C 0.7676 0.6232 0.5011   -0.012374
 C 0.6521 0.472 0.4688   -0.156723
 C 0.5629 0.3822 0.5178   -0.027252
 C 0.5966 0.4372 0.6006   -0.092694
 C 0.6072 0.4064 0.3766   0.726045
 C 0.2837 0.1874 0.7794   0.372598
 C 0.3531 0.2422 0.8673   -0.051155
 C 0.254 0.1546 0.9177   -0.094429
 C 0.317 0.1996 0.9983   0.003942
 C 0.4774 0.3202 0.0289   -0.155457
 C 0.5791 0.4096 0.9778   -0.026315
 C 0.5143 0.3658 0.898   -0.088987
 C 0.5541 0.3618 0.1169   0.749523
 C 0.0818 0.3408 0.2784   0.377051
 C 0.1223 0.4078 0.3655   -0.063438
 C 0.115 0.3162 0.4156   -0.070082
 C 0.1444 0.3768 0.4989   -0.009436
 C 0.1801 0.528 0.5312   -0.157926
 C 0.1807 0.6178 0.4822   -0.028254
 C 0.1594 0.5628 0.3994   -0.094069
 C 0.2008 0.5936 0.6234   0.727006
 C 0.0963 0.8126 0.2206   0.374022
 C 0.1109 0.7578 0.1327   -0.051754
 C 0.0994 0.8454 0.0823   -0.095305
 C 0.1174 0.8004 0.0017   0.004689
 C 0.1572 0.6798 0.9711   -0.156463
 C 0.1695 0.5904 0.0222   -0.025514
 C 0.1485 0.6342 0.102   -0.088109
 C 0.1923 0.6382 0.8831   0.750123
 N 0.6046 0.6344 0.7694   -0.338162
 N 0.6811 0.724 0.8443   -0.097422
 N 0.8575 0.8 0.8422   -0.042492
 N 0.8975 0.7596 0.7651   -0.33563
 N 0.2829 0.2774 0.7344   -0.303745
 N 0.1994 0.1794 0.6604   -0.064578
 N 0.1529 0.0406 0.6621   -0.040789
 N 0.2086 0.04 0.7384   -0.368651
 N 0.9702 0.3656 0.2306   -0.338044
 N 0.9571 0.276 0.1557   -0.095991
 N 0.0575 0.2 0.1578   -0.044103
 N 0.1379 0.2404 0.2349   -0.334157
 N 0.0055 0.7226 0.2656   -0.303687
 N 0.02 0.8206 0.3396   -0.064047
 N 0.1123 0.9594 0.3379   -0.0421
 N 0.1686 0.96 0.2616   -0.368611
 O 0.4907 0.2808 0.3516   -0.568016
 O 0.7008 0.4972 0.3362   -0.633678
 O 0.4645 0.2722 0.1547   -0.664725
 O 0.7023 0.4692 0.1411   -0.57261
 O 0.2099 0.7192 0.6484   -0.567612
 O 0.2036 0.5028 0.6638   -0.634668
 O 0.1923 0.7278 0.8453   -0.665137
 O 0.2331 0.5308 0.8589   -0.572895
