{'_ref': 'TBD', '_srcid': 'CAKYAQ_clean', 'submitters': [{'name': 'Dalar Nazarian Jeff Camp and David Sholl', 'email': 'dalar@gatech.edu jcamp6@gatech.edu'}], '_method': 'VASP DFT with PBE;DDEC'}
data_Dy2H30C45(SO8)3
_symmetry_space_group_name_H-M   'P 1'
_cell_length_a   9.19989984
_cell_length_b   15.57799994
_cell_length_c   22.14200000
_cell_angle_alpha   102.85999836
_cell_angle_beta   101.55000266
_cell_angle_gamma   104.51999845
_symmetry_Int_Tables_number   1
_chemical_formula_structural   Dy2H30C45(SO8)3
_chemical_formula_sum   'Dy4 H60 C90 S6 O48'
_cell_volume   2882.59024911
_cell_formula_units_Z   2
loop_
 _symmetry_equiv_pos_site_id
 _symmetry_equiv_pos_as_xyz
  1  'x, y, z'
loop_
 _atom_site_label
 _atom_site_fract_x
 _atom_site_fract_y
 _atom_site_fract_z
 _atom_site_charge
 Dy 0.51411 0.86223 0.80432   2.337013
 Dy 0.02917 0.91285 0.85774   2.352831
 Dy 0.48589 0.13777 0.19568   2.337014
 Dy 0.97083 0.08715 0.14226   2.352833
 H 0.8656 0.8336 0.6656   0.107136
 H 0.7423 0.8343 0.5667   0.136367
 H 0.283 0.9183 0.6311   0.124866
 H 0.6651 0.7896 0.4523   0.093407
 H 0.6702 0.8921 0.4812   0.067853
 H 0.6799 0.8585 0.4103   0.08946
 H 0.9837 0.849 0.3681   0.107041
 H 0.9674 0.9098 0.2806   0.09955
 H 0.4325 0.0105 0.3305   0.098026
 H 0.4512 0.9547 0.4187   0.104003
 H 0.9986 0.6652 0.9085   0.10196
 H 0.936 0.5215 0.9251   0.099455
 H 0.2716 0.4612 0.8472   0.103219
 H 0.3345 0.6079 0.8318   0.121073
 H 0.1156 0.2606 0.0189   0.135904
 H 0.5104 0.192 0.0287   0.114976
 H 0.5969 0.299 0.977   0.140055
 H 0.6756 0.4472 0.965   0.074474
 H 0.6079 0.3733 0.8973   0.078011
 H 0.6155 0.4767 0.9038   0.093265
 H 0.5935 0.5647 0.8037   0.135388
 H 0.9899 0.5637 0.7054   0.130454
 H 0.9274 0.6983 0.7337   0.112344
 H 0.949 0.3966 0.649   0.08286
 H 0.079 0.4444 0.7143   0.066037
 H 0.0051 0.3364 0.6912   0.092374
 H 0.2575 0.2715 0.7916   0.106175
 H 0.2259 0.1574 0.8423   0.107389
 H 0.5966 0.098 0.7944   0.107449
 H 0.6227 0.2093 0.741   0.106672
 H 0.1344 0.1664 0.3344   0.107136
 H 0.2577 0.1657 0.4333   0.136367
 H 0.717 0.0817 0.3689   0.124866
 H 0.3349 0.2104 0.5477   0.093406
 H 0.3298 0.1079 0.5188   0.067853
 H 0.3201 0.1415 0.5897   0.08946
 H 0.0163 0.151 0.6319   0.107041
 H 0.0326 0.0902 0.7194   0.09955
 H 0.5675 0.9895 0.6695   0.098026
 H 0.5488 0.0453 0.5813   0.104003
 H 0.0014 0.3348 0.0915   0.10196
 H 0.064 0.4785 0.0749   0.099455
 H 0.7284 0.5388 0.1528   0.103219
 H 0.6655 0.3921 0.1682   0.121073
 H 0.8844 0.7394 0.9811   0.135904
 H 0.4896 0.808 0.9713   0.114976
 H 0.4031 0.701 0.023   0.140055
 H 0.3244 0.5528 0.035   0.074474
 H 0.3921 0.6267 0.1027   0.078011
 H 0.3845 0.5233 0.0962   0.093265
 H 0.4065 0.4353 0.1963   0.135388
 H 0.0101 0.4363 0.2946   0.130454
 H 0.0726 0.3017 0.2663   0.112344
 H 0.051 0.6034 0.351   0.082859
 H 0.921 0.5556 0.2857   0.066037
 H 0.9949 0.6636 0.3088   0.092374
 H 0.7425 0.7285 0.2084   0.106175
 H 0.7741 0.8426 0.1577   0.107389
 H 0.4034 0.902 0.2056   0.107449
 H 0.3773 0.7907 0.259   0.106672
 C 0.1684 0.8767 0.7242   0.816847
 C 0.0904 0.8786 0.6591   -0.202076
 C 0.9238 0.8513 0.6382   0.014747
 C 0.8507 0.8512 0.5794   -0.230266
 C 0.936 0.8763 0.5367   0.217841
 C 0.099 0.9021 0.5564   0.112929
 C 0.1747 0.9021 0.6182   -0.090412
 C 0.7089 0.8527 0.453   -0.01596
 C 0.2174 0.8953 0.4022   -0.211613
 C 0.0744 0.8821 0.3607   -0.024937
 C 0.0643 0.918 0.3077   -0.017349
 C 0.1994 0.9654 0.2962   -0.141126
 C 0.3417 0.9781 0.3382   -0.033804
 C 0.3541 0.9447 0.3911   -0.023615
 C 0.1908 0.0043 0.24   0.825538
 C 0.2057 0.7462 0.8558   0.811948
 C 0.1723 0.651 0.8692   -0.149447
 C 0.0537 0.6247 0.8964   -0.026677
 C 0.0157 0.5388 0.9061   -0.020447
 C 0.096 0.4776 0.8875   -0.23076
 C 0.2173 0.5021 0.8595   -0.021523
 C 0.2542 0.5898 0.8505   -0.036252
 C 0.2615 0.3306 0.979   0.128473
 C 0.2123 0.2684 0.0103   -0.106212
 C 0.3055 0.2155 0.0302   -0.190281
 C 0.4483 0.2273 0.0165   0.042038
 C 0.4995 0.291 0.9849   -0.250435
 C 0.4079 0.3434 0.9645   0.207384
 C 0.2518 0.1527 0.0677   0.796632
 C 0.5988 0.4281 0.9243   -0.022941
 C 0.7045 0.7297 0.7896   0.734585
 C 0.7536 0.6441 0.7716   -0.169144
 C 0.6738 0.5644 0.7841   -0.114654
 C 0.7152 0.4852 0.7671   0.121303
 C 0.8345 0.4842 0.7366   0.211493
 C 0.9101 0.5641 0.7253   -0.229154
 C 0.8737 0.645 0.7419   0.010091
 C 0.9849 0.3942 0.6922   -0.001753
 C 0.4453 0.2514 0.7628   -0.227595
 C 0.3246 0.2357 0.7923   -0.033567
 C 0.3055 0.1679 0.8222   -0.020261
 C 0.4069 0.1136 0.8225   -0.141266
 C 0.527 0.1321 0.793   -0.020713
 C 0.5449 0.1993 0.762   -0.022953
 C 0.39 0.0384 0.8561   0.818239
 C 0.8316 0.1233 0.2758   0.816847
 C 0.9096 0.1214 0.3409   -0.202076
 C 0.0762 0.1487 0.3618   0.014747
 C 0.1493 0.1488 0.4206   -0.230266
 C 0.064 0.1237 0.4633   0.217841
 C 0.901 0.0979 0.4436   0.112929
 C 0.8253 0.0979 0.3818   -0.090412
 C 0.2911 0.1473 0.547   -0.01596
 C 0.7826 0.1047 0.5978   -0.211613
 C 0.9256 0.1179 0.6393   -0.024937
 C 0.9357 0.082 0.6923   -0.017349
 C 0.8006 0.0346 0.7038   -0.141126
 C 0.6583 0.0219 0.6618   -0.033804
 C 0.6459 0.0553 0.6089   -0.023615
 C 0.8092 0.9957 0.76   0.825538
 C 0.7943 0.2538 0.1442   0.811948
 C 0.8277 0.349 0.1308   -0.149447
 C 0.9463 0.3753 0.1036   -0.026677
 C 0.9843 0.4612 0.0939   -0.020447
 C 0.904 0.5224 0.1125   -0.23076
 C 0.7827 0.4979 0.1405   -0.021523
 C 0.7458 0.4102 0.1495   -0.036252
 C 0.7385 0.6694 0.021   0.128473
 C 0.7877 0.7316 0.9897   -0.106212
 C 0.6945 0.7845 0.9698   -0.190281
 C 0.5517 0.7727 0.9835   0.042038
 C 0.5005 0.709 0.0151   -0.250435
 C 0.5921 0.6566 0.0355   0.207384
 C 0.7482 0.8473 0.9323   0.796632
 C 0.4012 0.5719 0.0757   -0.022941
 C 0.2955 0.2703 0.2104   0.734585
 C 0.2464 0.3559 0.2284   -0.169144
 C 0.3262 0.4356 0.2159   -0.114654
 C 0.2848 0.5148 0.2329   0.121303
 C 0.1655 0.5158 0.2634   0.211493
 C 0.0899 0.4359 0.2747   -0.229154
 C 0.1263 0.355 0.2581   0.010091
 C 0.0151 0.6058 0.3078   -0.001752
 C 0.5547 0.7486 0.2372   -0.227595
 C 0.6754 0.7643 0.2077   -0.033567
 C 0.6945 0.8321 0.1778   -0.020261
 C 0.5931 0.8864 0.1775   -0.141266
 C 0.473 0.8679 0.207   -0.020713
 C 0.4551 0.8007 0.238   -0.022953
 C 0.61 0.9616 0.1439   0.818239
 S 0.2288 0.8511 0.46785   1.251351
 S 0.0493 0.3678 0.90019   1.257971
 S 0.475 0.3438 0.72928   1.245805
 S 0.7712 0.1489 0.53215   1.251351
 S 0.9507 0.6322 0.09981   1.257971
 S 0.525 0.6562 0.27072   1.245805
 O 0.0881 0.8599 0.7625   -0.752953
 O 0.3157 0.8935 0.7384   -0.821889
 O 0.8771 0.8797 0.4759   -0.235767
 O 0.1857 0.9282 0.5151   -0.338089
 O 0.1077 0.7648 0.4523   -0.553229
 O 0.3869 0.8568 0.4955   -0.561846
 O 0.0585 0.0013 0.209   -0.749265
 O 0.3164 0.036 0.2265   -0.825994
 O 0.1291 0.7949 0.8753   -0.753976
 O 0.3097 0.7656 0.8265   -0.780712
 O 0.9009 0.3479 0.9136   -0.562805
 O 0.0798 0.3018 0.8532   -0.545133
 O 0.1783 0.3918 0.9671   -0.353794
 O 0.4997 0.0032 0.8656   -0.705335
 O 0.2674 0.0171 0.8734   -0.829154
 O 0.1175 0.1425 0.0747   -0.793886
 O 0.3459 0.1136 0.0933   -0.796522
 O 0.3597 0.3905 0.7361   -0.560215
 O 0.6382 0.406 0.7805   -0.340148
 O 0.5712 0.7192 0.8018   -0.712728
 O 0.4457 0.4092 0.9341   -0.228949
 O 0.7891 0.8072 0.7916   -0.826892
 O 0.8682 0.4018 0.7251   -0.247233
 O 0.5002 0.317 0.6681   -0.548594
 O 0.9119 0.1401 0.2375   -0.752953
 O 0.6843 0.1065 0.2616   -0.821889
 O 0.1229 0.1203 0.5241   -0.235767
 O 0.8143 0.0718 0.4849   -0.338089
 O 0.8923 0.2352 0.5477   -0.553229
 O 0.6131 0.1432 0.5045   -0.561846
 O 0.9415 0.9987 0.791   -0.749265
 O 0.6836 0.964 0.7735   -0.825994
 O 0.8709 0.2051 0.1247   -0.753977
 O 0.6903 0.2344 0.1735   -0.780712
 O 0.0991 0.6521 0.0864   -0.562805
 O 0.9202 0.6982 0.1468   -0.545133
 O 0.8217 0.6082 0.0329   -0.353794
 O 0.5003 0.9968 0.1344   -0.705335
 O 0.7326 0.9829 0.1266   -0.829155
 O 0.8825 0.8575 0.9253   -0.793886
 O 0.6541 0.8864 0.9067   -0.796522
 O 0.6403 0.6095 0.2639   -0.560215
 O 0.3618 0.594 0.2195   -0.340148
 O 0.4288 0.2808 0.1982   -0.712728
 O 0.5543 0.5908 0.0659   -0.228949
 O 0.2109 0.1928 0.2084   -0.826892
 O 0.1318 0.5982 0.2749   -0.247234
 O 0.4998 0.683 0.3319   -0.548594
