{'_ref': 'TBD', '_srcid': 'CAKYAQ_clean', 'submitters': [{'name': 'Dalar Nazarian Jeff Camp and David Sholl', 'email': 'dalar@gatech.edu jcamp6@gatech.edu'}], '_method': 'VASP DFT with PBE;DDEC'}
data_NaPH11C9BrN3O8
_symmetry_space_group_name_H-M   'P 1'
_cell_length_a   4.73300000
_cell_length_b   17.30500000
_cell_length_c   19.24300000
_cell_angle_alpha   90.00000000
_cell_angle_beta   90.00000000
_cell_angle_gamma   90.00000000
_symmetry_Int_Tables_number   1
_chemical_formula_structural   NaPH11C9BrN3O8
_chemical_formula_sum   'Na4 P4 H44 C36 Br4 N12 O32'
_cell_volume   1576.08954429
_cell_formula_units_Z   4
loop_
 _symmetry_equiv_pos_site_id
 _symmetry_equiv_pos_as_xyz
  1  'x, y, z'
loop_
 _atom_site_label
 _atom_site_fract_x
 _atom_site_fract_y
 _atom_site_fract_z
 _atom_site_charge
 Na 0.9691 0.6761 0.5498   0.94262
 Na 0.5309 0.3239 0.0498   0.94262
 Na 0.0309 0.1761 0.9502   0.942627
 Na 0.4691 0.8239 0.4502   0.942627
 P 0.9927 0.44757 0.10162   1.491116
 P 0.5073 0.55243 0.60162   1.491116
 P 0.0073 0.94757 0.39838   1.491117
 P 0.4927 0.05243 0.89838   1.491117
 H 0.77 0.79 0.233   0.310098
 H 0.77 0.81 0.311   0.345584
 H 0.08 0.606 0.228   0.103951
 H 0.76 0.592 0.395   0.057821
 H 0.22 0.514 0.413   0.082957
 H 0.77 0.507 0.486   0.371317
 H 0.21 0.478 0.297   0.068608
 H 0.01 0.352 0.39   0.384319
 H 0.63 0.434 0.319   0.060764
 H 0.56 0.461 0.203   0.104514
 H 0.79 0.376 0.22   0.076736
 H 0.73 0.21 0.733   0.310098
 H 0.73 0.19 0.811   0.345584
 H 0.42 0.394 0.728   0.103951
 H 0.74 0.408 0.895   0.057821
 H 0.28 0.486 0.913   0.082957
 H 0.73 0.493 0.986   0.371317
 H 0.29 0.522 0.797   0.068608
 H 0.49 0.648 0.89   0.384319
 H 0.87 0.566 0.819   0.060764
 H 0.94 0.539 0.703   0.104514
 H 0.71 0.624 0.72   0.076736
 H 0.23 0.29 0.267   0.310098
 H 0.23 0.31 0.189   0.345583
 H 0.92 0.106 0.272   0.103951
 H 0.24 0.092 0.105   0.057821
 H 0.78 0.014 0.087   0.082957
 H 0.23 0.007 0.014   0.371317
 H 0.79 0.978 0.203   0.068608
 H 0.99 0.852 0.11   0.384319
 H 0.37 0.934 0.181   0.060764
 H 0.44 0.961 0.297   0.104514
 H 0.21 0.876 0.28   0.076736
 H 0.27 0.71 0.767   0.310098
 H 0.27 0.69 0.689   0.345583
 H 0.58 0.894 0.772   0.103951
 H 0.26 0.908 0.605   0.057821
 H 0.72 0.986 0.587   0.082957
 H 0.27 0.993 0.514   0.371317
 H 0.71 0.022 0.703   0.068608
 H 0.51 0.148 0.61   0.384319
 H 0.13 0.066 0.681   0.060764
 H 0.06 0.039 0.797   0.104514
 H 0.29 0.124 0.78   0.076736
 C 0.1927 0.683 0.379   0.74984
 C 0.4775 0.7348 0.2917   0.555396
 C 0.3536 0.6854 0.2416   -0.225826
 C 0.153 0.6346 0.2628   0.136719
 C 0.8698 0.5746 0.3584   0.265753
 C 0.0177 0.5056 0.3924   0.063455
 C 0.0485 0.4519 0.3301   0.144213
 C 0.763 0.4625 0.2955   0.108887
 C 0.7387 0.44 0.2199   0.032432
 C 0.3073 0.317 0.879   0.74984
 C 0.0225 0.2652 0.7917   0.555396
 C 0.1464 0.3146 0.7416   -0.225826
 C 0.347 0.3654 0.7628   0.136719
 C 0.6302 0.4254 0.8584   0.265753
 C 0.4823 0.4944 0.8924   0.063455
 C 0.4515 0.5481 0.8301   0.144213
 C 0.737 0.5375 0.7955   0.108887
 C 0.7613 0.56 0.7199   0.032432
 C 0.8073 0.183 0.121   0.74984
 C 0.5225 0.2348 0.2083   0.555396
 C 0.6464 0.1854 0.2584   -0.225826
 C 0.847 0.1346 0.2372   0.136718
 C 0.1302 0.0746 0.1416   0.265753
 C 0.9823 0.0056 0.1076   0.063455
 C 0.9515 0.9519 0.1699   0.144213
 C 0.237 0.9625 0.2045   0.108887
 C 0.2613 0.94 0.2801   0.032432
 C 0.6927 0.817 0.621   0.74984
 C 0.9775 0.7652 0.7083   0.555396
 C 0.8536 0.8146 0.7584   -0.225826
 C 0.653 0.8654 0.7372   0.136718
 C 0.3698 0.9254 0.6416   0.265753
 C 0.5177 0.9944 0.6076   0.063455
 C 0.5485 0.0481 0.6699   0.144213
 C 0.263 0.0375 0.7045   0.108887
 C 0.2387 0.06 0.7801   0.032432
 Br 0.4765 0.68664 0.1487   0.06308
 Br 0.0235 0.31336 0.6487   0.06308
 Br 0.5235 0.18664 0.3513   0.063077
 Br 0.9765 0.81336 0.8513   0.063077
 N 0.0775 0.6321 0.331   -0.208523
 N 0.3956 0.7331 0.3579   -0.708483
 N 0.6882 0.7841 0.275   -0.637963
 N 0.4225 0.3679 0.831   -0.208523
 N 0.1044 0.2669 0.8579   -0.708483
 N 0.8118 0.2159 0.775   -0.637963
 N 0.9225 0.1321 0.169   -0.208523
 N 0.6044 0.2331 0.1421   -0.708482
 N 0.3118 0.2841 0.225   -0.637963
 N 0.5775 0.8679 0.669   -0.208523
 N 0.8956 0.7669 0.6421   -0.708482
 N 0.1882 0.7159 0.725   -0.637963
 O 0.1138 0.6808 0.4402   -0.717381
 O 0.8299 0.4691 0.4396   -0.531066
 O 0.1103 0.3738 0.3445   -0.543416
 O 0.7077 0.5449 0.3031   -0.331623
 O 0.9492 0.4789 0.1791   -0.487875
 O 0.7162 0.4531 0.0631   -0.760192
 O 0.118 0.3688 0.1042   -0.872548
 O 0.2045 0.5091 0.0719   -0.495285
 O 0.3862 0.3192 0.9402   -0.717381
 O 0.6701 0.5309 0.9396   -0.531066
 O 0.3897 0.6262 0.8445   -0.543416
 O 0.7923 0.4551 0.8031   -0.331623
 O 0.5508 0.5211 0.6791   -0.487875
 O 0.7838 0.5469 0.5631   -0.760192
 O 0.382 0.6312 0.6042   -0.872548
 O 0.2955 0.4909 0.5719   -0.495284
 O 0.8862 0.1808 0.0598   -0.717382
 O 0.1701 0.9691 0.0604   -0.531066
 O 0.8897 0.8738 0.1555   -0.543416
 O 0.2923 0.0449 0.1969   -0.331623
 O 0.0508 0.9789 0.3209   -0.487875
 O 0.2838 0.9531 0.4369   -0.760193
 O 0.882 0.8688 0.3958   -0.87255
 O 0.7955 0.0091 0.4281   -0.495285
 O 0.6138 0.8192 0.5598   -0.717382
 O 0.3299 0.0309 0.5604   -0.531066
 O 0.6103 0.1262 0.6555   -0.543416
 O 0.2077 0.9551 0.6969   -0.331623
 O 0.4492 0.0211 0.8209   -0.487875
 O 0.2162 0.0469 0.9369   -0.760193
 O 0.618 0.1312 0.8958   -0.87255
 O 0.7045 0.9909 0.9281   -0.495284
