{'_ref': 'TBD', '_srcid': 'CAKYAQ_clean', 'submitters': [{'name': 'Dalar Nazarian Jeff Camp and David Sholl', 'email': 'dalar@gatech.edu jcamp6@gatech.edu'}], '_method': 'VASP DFT with PBE;DDEC'}
data_Gd2Cu3H24(C4O5)6
_symmetry_space_group_name_H-M   'P 1'
_cell_length_a   14.71700000
_cell_length_b   14.71700011
_cell_length_c   15.16900000
_cell_angle_alpha   90.00000000
_cell_angle_beta   90.00000000
_cell_angle_gamma   119.99999974
_symmetry_Int_Tables_number   1
_chemical_formula_structural   Gd2Cu3H24(C4O5)6
_chemical_formula_sum   'Gd4 Cu6 H48 C48 O60'
_cell_volume   2845.28757457
_cell_formula_units_Z   2
loop_
 _symmetry_equiv_pos_site_id
 _symmetry_equiv_pos_as_xyz
  1  'x, y, z'
loop_
 _atom_site_label
 _atom_site_fract_x
 _atom_site_fract_y
 _atom_site_fract_z
 _atom_site_charge
 Gd 0.33333 0.66666 0.25   2.021184
 Gd 0.66667 0.33334 0.25   2.021184
 Gd 0.66667 0.33334 0.75   2.020874
 Gd 0.33333 0.66666 0.75   2.020873
 Cu 0.5 0.5 0.0   1.125383
 Cu 0.0 0.5 0.0   1.134719
 Cu 0.5 0.0 0.0   1.092336
 Cu 0.0 0.5 0.5   1.125371
 Cu 0.5 0.5 0.5   1.13474
 Cu 0.5 0.0 0.5   1.092341
 H 0.7943 0.1588 0.8396   0.092214
 H 0.7152 0.0864 0.7667   0.083296
 H 0.3645 0.2057 0.8396   0.092115
 H 0.3712 0.2848 0.7667   0.083695
 H 0.8412 0.6355 0.8396   0.092896
 H 0.9136 0.6288 0.7667   0.083426
 H 0.2057 0.8412 0.8396   0.092811
 H 0.2848 0.9136 0.7667   0.083347
 H 0.6355 0.7943 0.8396   0.092724
 H 0.6288 0.7152 0.7667   0.083747
 H 0.1588 0.3645 0.8396   0.093496
 H 0.0864 0.3712 0.7667   0.083478
 H 0.6355 0.8412 0.6604   0.092373
 H 0.6288 0.9136 0.7333   0.083528
 H 0.1588 0.7943 0.6604   0.092303
 H 0.0864 0.7152 0.7333   0.083932
 H 0.2057 0.3645 0.6604   0.093088
 H 0.2848 0.3712 0.7333   0.083692
 H 0.3645 0.1588 0.6604   0.092955
 H 0.3712 0.0864 0.7333   0.083573
 H 0.8412 0.2057 0.6604   0.092876
 H 0.9136 0.2848 0.7333   0.083976
 H 0.7943 0.6355 0.6604   0.093674
 H 0.7152 0.6288 0.7333   0.083737
 H 0.2057 0.8412 0.1604   0.092527
 H 0.2848 0.9136 0.2333   0.083358
 H 0.6355 0.7943 0.1604   0.092427
 H 0.6288 0.7152 0.2333   0.083756
 H 0.1588 0.3645 0.1604   0.093224
 H 0.0864 0.3712 0.2333   0.083497
 H 0.7943 0.1588 0.1604   0.093113
 H 0.7152 0.0864 0.2333   0.083409
 H 0.3645 0.2057 0.1604   0.093022
 H 0.3712 0.2848 0.2333   0.083807
 H 0.8412 0.6355 0.1604   0.093809
 H 0.9136 0.6288 0.2333   0.083547
 H 0.3645 0.1588 0.3396   0.092693
 H 0.3712 0.0864 0.2667   0.083591
 H 0.8412 0.2057 0.3396   0.092613
 H 0.9136 0.2848 0.2667   0.083993
 H 0.7943 0.6355 0.3396   0.093414
 H 0.7152 0.6288 0.2667   0.083762
 H 0.6355 0.8412 0.3396   0.093263
 H 0.6288 0.9136 0.2667   0.083635
 H 0.1588 0.7943 0.3396   0.093175
 H 0.0864 0.7152 0.2667   0.084036
 H 0.2057 0.3645 0.3396   0.093985
 H 0.2848 0.3712 0.2667   0.083806
 C 0.1296 0.6447 0.361   0.717122
 C 0.8524 0.2647 0.6967   -0.052467
 C 0.5151 0.8704 0.361   0.715043
 C 0.4123 0.1476 0.6967   -0.0517
 C 0.3553 0.4849 0.361   0.72012
 C 0.7353 0.5877 0.6967   -0.055937
 C 0.8704 0.3553 0.361   0.717067
 C 0.1476 0.7353 0.6967   -0.052252
 C 0.4849 0.1296 0.361   0.714992
 C 0.5877 0.8524 0.6967   -0.051482
 C 0.6447 0.5151 0.361   0.720066
 C 0.2647 0.4123 0.6967   -0.055717
 C 0.4849 0.3553 0.139   0.717086
 C 0.5877 0.7353 0.8033   -0.052312
 C 0.6447 0.1296 0.139   0.715093
 C 0.2647 0.8524 0.8033   -0.051615
 C 0.8704 0.5151 0.139   0.720081
 C 0.1476 0.4123 0.8033   -0.055727
 C 0.5151 0.6447 0.139   0.717028
 C 0.4123 0.2647 0.8033   -0.052081
 C 0.3553 0.8704 0.139   0.715041
 C 0.7353 0.1476 0.8033   -0.051389
 C 0.1296 0.4849 0.139   0.720027
 C 0.8524 0.5877 0.8033   -0.0555
 C 0.8704 0.3553 0.639   0.716763
 C 0.1476 0.7353 0.3033   -0.052952
 C 0.4849 0.1296 0.639   0.714665
 C 0.5877 0.8524 0.3033   -0.052198
 C 0.6447 0.5151 0.639   0.71972
 C 0.2647 0.4123 0.3033   -0.056506
 C 0.1296 0.6447 0.639   0.716707
 C 0.8524 0.2647 0.3033   -0.052741
 C 0.5151 0.8704 0.639   0.714613
 C 0.4123 0.1476 0.3033   -0.051985
 C 0.3553 0.4849 0.639   0.719665
 C 0.7353 0.5877 0.3033   -0.056291
 C 0.5151 0.6447 0.861   0.71674
 C 0.4123 0.2647 0.1967   -0.052794
 C 0.3553 0.8704 0.861   0.714731
 C 0.7353 0.1476 0.1967   -0.052113
 C 0.1296 0.4849 0.861   0.719683
 C 0.8524 0.5877 0.1967   -0.056293
 C 0.4849 0.3553 0.861   0.71668
 C 0.5877 0.7353 0.1967   -0.052568
 C 0.6447 0.1296 0.861   0.714679
 C 0.2647 0.8524 0.1967   -0.051891
 C 0.8704 0.5151 0.861   0.719628
 C 0.1476 0.4123 0.1967   -0.056071
 O 0.1941 0.61304 0.35658   -0.669501
 O 0.0511 0.6097 0.41   -0.621901
 O 0.41894 0.8059 0.35658   -0.666238
 O 0.5586 0.9489 0.41   -0.614804
 O 0.38696 0.58106 0.35658   -0.673315
 O 0.3903 0.4414 0.41   -0.628074
 O 0.8059 0.38696 0.35658   -0.66951
 O 0.9489 0.3903 0.41   -0.62192
 O 0.58106 0.1941 0.35658   -0.666246
 O 0.4414 0.0511 0.41   -0.614807
 O 0.61304 0.41894 0.35658   -0.673322
 O 0.6097 0.5586 0.41   -0.628076
 O 0.58106 0.38696 0.14342   -0.669496
 O 0.4414 0.3903 0.09   -0.621937
 O 0.61304 0.1941 0.14342   -0.666249
 O 0.6097 0.0511 0.09   -0.614801
 O 0.8059 0.41894 0.14342   -0.673293
 O 0.9489 0.5586 0.09   -0.628094
 O 0.41894 0.61304 0.14342   -0.669505
 O 0.5586 0.6097 0.09   -0.621956
 O 0.38696 0.8059 0.14342   -0.666258
 O 0.3903 0.9489 0.09   -0.614803
 O 0.1941 0.58106 0.14342   -0.6733
 O 0.0511 0.4414 0.09   -0.628096
 O 0.8059 0.38696 0.64342   -0.669467
 O 0.9489 0.3903 0.59   -0.621963
 O 0.58106 0.1941 0.64342   -0.666201
 O 0.4414 0.0511 0.59   -0.614816
 O 0.61304 0.41894 0.64342   -0.673278
 O 0.6097 0.5586 0.59   -0.628124
 O 0.1941 0.61304 0.64342   -0.669476
 O 0.0511 0.6097 0.59   -0.621982
 O 0.41894 0.8059 0.64342   -0.666209
 O 0.5586 0.9489 0.59   -0.614818
 O 0.38696 0.58106 0.64342   -0.673285
 O 0.3903 0.4414 0.59   -0.628126
 O 0.41894 0.61304 0.85658   -0.669462
 O 0.5586 0.6097 0.91   -0.621996
 O 0.38696 0.8059 0.85658   -0.666214
 O 0.3903 0.9489 0.91   -0.614818
 O 0.1941 0.58106 0.85658   -0.673254
 O 0.0511 0.4414 0.91   -0.628144
 O 0.58106 0.38696 0.85658   -0.669471
 O 0.4414 0.3903 0.91   -0.622015
 O 0.61304 0.1941 0.85658   -0.666222
 O 0.6097 0.0511 0.91   -0.614821
 O 0.8059 0.41894 0.85658   -0.673261
 O 0.9489 0.5586 0.91   -0.628146
 O 0.7641 0.2359 0.75   -0.331103
 O 0.4718 0.2359 0.75   -0.331133
 O 0.7641 0.5282 0.75   -0.329678
 O 0.2359 0.7641 0.75   -0.331101
 O 0.5282 0.7641 0.75   -0.33113
 O 0.2359 0.4718 0.75   -0.329676
 O 0.2359 0.7641 0.25   -0.330969
 O 0.5282 0.7641 0.25   -0.330999
 O 0.2359 0.4718 0.25   -0.329524
 O 0.7641 0.2359 0.25   -0.330967
 O 0.4718 0.2359 0.25   -0.330996
 O 0.7641 0.5282 0.25   -0.329523
