{'_ref': 'TBD', '_srcid': 'CAKYAQ_clean', 'submitters': [{'name': 'Dalar Nazarian Jeff Camp and David Sholl', 'email': 'dalar@gatech.edu jcamp6@gatech.edu'}], '_method': 'VASP DFT with PBE;DDEC'}
data_BaVH2C4O7
_symmetry_space_group_name_H-M   'P 1'
_cell_length_a   7.79690034
_cell_length_b   8.50169991
_cell_length_c   9.01790000
_cell_angle_alpha   78.66899839
_cell_angle_beta   68.37199857
_cell_angle_gamma   83.63399753
_symmetry_Int_Tables_number   1
_chemical_formula_structural   BaVH2C4O7
_chemical_formula_sum   'Ba2 V2 H4 C8 O14'
_cell_volume   544.36725
_cell_formula_units_Z   2
loop_
 _symmetry_equiv_pos_site_id
 _symmetry_equiv_pos_as_xyz
  1  'x, y, z'
loop_
 _atom_site_label
 _atom_site_fract_x
 _atom_site_fract_y
 _atom_site_fract_z
 _atom_site_charge
 Ba 0.40382 0.85107 0.27183   1.687553
 Ba 0.59618 0.14893 0.72817   1.687559
 V 0.96696 0.31852 0.88245   1.890991
 V 0.03304 0.68148 0.11755   1.890989
 H 0.7999 0.683 0.7173   0.070081
 H 0.9811 0.861 0.7248   0.03492
 H 0.2001 0.317 0.2827   0.070081
 H 0.0189 0.139 0.2752   0.03492
 C 0.0561 0.5882 0.6342   0.744047
 C 0.8856 0.6418 0.7667   0.065228
 C 0.9489 0.7709 0.8331   0.052897
 C 0.7822 0.8199 0.9697   0.734891
 C 0.9439 0.4118 0.3658   0.744046
 C 0.1144 0.3582 0.2333   0.065229
 C 0.0511 0.2291 0.1669   0.052897
 C 0.2178 0.1801 0.0303   0.734891
 O 0.1278 0.677 0.5059   -0.724403
 O 0.6407 0.8807 0.9454   -0.720468
 O 0.1162 0.4433 0.6709   -0.705453
 O 0.7923 0.7837 0.1112   -0.746669
 O 0.8119 0.512 0.8908   -0.720502
 O 0.0923 0.7115 0.8885   -0.71272
 O 0.1347 0.8156 0.1565   -0.950395
 O 0.8722 0.323 0.4941   -0.724403
 O 0.3593 0.1193 0.0546   -0.720468
 O 0.8838 0.5567 0.3291   -0.705453
 O 0.2077 0.2163 0.8888   -0.746669
 O 0.1881 0.488 0.1092   -0.720501
 O 0.9077 0.2885 0.1115   -0.712721
 O 0.8653 0.1844 0.8435   -0.950395
