{'_ref': 'TBD', '_srcid': 'CAKYAQ_clean', 'submitters': [{'name': 'Dalar Nazarian Jeff Camp and David Sholl', 'email': 'dalar@gatech.edu jcamp6@gatech.edu'}], '_method': 'VASP DFT with PBE;DDEC'}
data_CoH18(C10N3)2
_symmetry_space_group_name_H-M   'P 1'
_cell_length_a   15.16400000
_cell_length_b   16.99200000
_cell_length_c   17.48900000
_cell_angle_alpha   90.00000000
_cell_angle_beta   90.00000000
_cell_angle_gamma   90.00000000
_symmetry_Int_Tables_number   1
_chemical_formula_structural   CoH18(C10N3)2
_chemical_formula_sum   'Co8 H144 C160 N48'
_cell_volume   4506.33270643
_cell_formula_units_Z   8
loop_
 _symmetry_equiv_pos_site_id
 _symmetry_equiv_pos_as_xyz
  1  'x, y, z'
loop_
 _atom_site_label
 _atom_site_fract_x
 _atom_site_fract_y
 _atom_site_fract_z
 _atom_site_charge
 Co 0.98696 0.81716 0.54816   0.245198
 Co 0.51304 0.31716 0.45184   0.245198
 Co 0.98696 0.31716 0.95184   0.245198
 Co 0.51304 0.81716 0.04816   0.245198
 Co 0.01304 0.68284 0.04816   0.245198
 Co 0.48696 0.18284 0.95184   0.245198
 Co 0.01304 0.18284 0.45184   0.245198
 Co 0.48696 0.68284 0.54816   0.245198
 H 0.798 0.497 0.7014   0.288188
 H 0.177 0.653 0.239   0.284465
 H 0.5501 0.3614 0.6266   0.06081
 H 0.6448 0.4386 0.6958   0.13032
 H 0.8019 0.4489 0.511   0.140943
 H 0.7011 0.3726 0.4474   0.034903
 H 0.9516 0.7162 0.6873   0.056828
 H 0.8873 0.6016 0.7261   0.128051
 H 0.7795 0.5808 0.5167   0.12821
 H 0.8482 0.6967 0.4846   0.059457
 H 0.4009 0.6724 0.0807   0.067785
 H 0.2948 0.6238 0.1596   0.12904
 H 0.2881 0.8341 0.2655   0.124717
 H 0.3979 0.8742 0.1853   0.050448
 H 0.1645 0.8289 0.4743   0.053634
 H 0.2474 0.7953 0.3712   0.131424
 H 0.052 0.6494 0.3069   0.126539
 H 0.9752 0.6899 0.4116   0.054002
 H 0.702 0.997 0.2986   0.288188
 H 0.323 0.153 0.761   0.284465
 H 0.9499 0.8614 0.3734   0.06081
 H 0.8552 0.9386 0.3042   0.13032
 H 0.6981 0.9489 0.489   0.140943
 H 0.7989 0.8726 0.5526   0.034903
 H 0.5484 0.2162 0.3127   0.056828
 H 0.6127 0.1016 0.2739   0.128051
 H 0.7205 0.0808 0.4833   0.12821
 H 0.6518 0.1967 0.5154   0.059457
 H 0.0991 0.1724 0.9193   0.067785
 H 0.2052 0.1238 0.8404   0.12904
 H 0.2119 0.3341 0.7345   0.124717
 H 0.1021 0.3742 0.8147   0.050448
 H 0.3355 0.3289 0.5257   0.053634
 H 0.2526 0.2953 0.6288   0.131424
 H 0.448 0.1494 0.6931   0.126539
 H 0.5248 0.1899 0.5884   0.054002
 H 0.798 0.997 0.7986   0.288187
 H 0.177 0.153 0.261   0.284465
 H 0.5501 0.8614 0.8734   0.06081
 H 0.6448 0.9386 0.8042   0.13032
 H 0.8019 0.9489 0.989   0.140943
 H 0.7011 0.8726 0.0526   0.034903
 H 0.9516 0.2162 0.8127   0.056828
 H 0.8873 0.1016 0.7739   0.128051
 H 0.7795 0.0808 0.9833   0.12821
 H 0.8482 0.1967 0.0154   0.059457
 H 0.4009 0.1724 0.4193   0.067785
 H 0.2948 0.1238 0.3404   0.129039
 H 0.2881 0.3341 0.2345   0.124716
 H 0.3979 0.3742 0.3147   0.050448
 H 0.1645 0.3289 0.0257   0.053634
 H 0.2474 0.2953 0.1288   0.131424
 H 0.052 0.1494 0.1931   0.126539
 H 0.9752 0.1899 0.0884   0.054002
 H 0.702 0.497 0.2014   0.288187
 H 0.323 0.653 0.739   0.284465
 H 0.9499 0.3614 0.1266   0.06081
 H 0.8552 0.4386 0.1958   0.13032
 H 0.6981 0.4489 0.011   0.140943
 H 0.7989 0.3726 0.9474   0.034903
 H 0.5484 0.7162 0.1873   0.056828
 H 0.6127 0.6016 0.2261   0.128051
 H 0.7205 0.5808 0.0167   0.12821
 H 0.6518 0.6967 0.9846   0.059457
 H 0.0991 0.6724 0.5807   0.067785
 H 0.2052 0.6238 0.6596   0.129039
 H 0.2119 0.8341 0.7655   0.124716
 H 0.1021 0.8742 0.6853   0.050448
 H 0.3355 0.8289 0.9743   0.053634
 H 0.2526 0.7953 0.8712   0.131424
 H 0.448 0.6494 0.8069   0.126539
 H 0.5248 0.6899 0.9116   0.054002
 H 0.202 0.003 0.2014   0.288183
 H 0.823 0.847 0.739   0.284464
 H 0.4499 0.1386 0.1266   0.060809
 H 0.3552 0.0614 0.1958   0.130315
 H 0.1981 0.0511 0.011   0.140939
 H 0.2989 0.1274 0.9474   0.034903
 H 0.0484 0.7838 0.1873   0.056829
 H 0.1127 0.8984 0.2261   0.128048
 H 0.2205 0.9192 0.0167   0.128208
 H 0.1518 0.8033 0.9846   0.059456
 H 0.5991 0.8276 0.5807   0.067784
 H 0.7052 0.8762 0.6596   0.129034
 H 0.7119 0.6659 0.7655   0.124714
 H 0.6021 0.6258 0.6853   0.050444
 H 0.8355 0.6711 0.9743   0.053633
 H 0.7526 0.7047 0.8712   0.131423
 H 0.948 0.8506 0.8069   0.126535
 H 0.0248 0.8101 0.9116   0.054001
 H 0.298 0.503 0.7986   0.288183
 H 0.677 0.347 0.261   0.284464
 H 0.0501 0.6386 0.8734   0.060809
 H 0.1448 0.5614 0.8042   0.130315
 H 0.3019 0.5511 0.989   0.140939
 H 0.2011 0.6274 0.0526   0.034903
 H 0.4516 0.2838 0.8127   0.056829
 H 0.3873 0.3984 0.7739   0.128047
 H 0.2795 0.4192 0.9833   0.128208
 H 0.3482 0.3033 0.0154   0.059456
 H 0.9009 0.3276 0.4193   0.067784
 H 0.7948 0.3762 0.3404   0.129034
 H 0.7881 0.1659 0.2345   0.124714
 H 0.8979 0.1258 0.3147   0.050444
 H 0.6645 0.1711 0.0257   0.053633
 H 0.7474 0.2047 0.1288   0.131423
 H 0.552 0.3506 0.1931   0.126535
 H 0.4752 0.3101 0.0884   0.054001
 H 0.202 0.503 0.2986   0.288183
 H 0.823 0.347 0.761   0.284464
 H 0.4499 0.6386 0.3734   0.060809
 H 0.3552 0.5614 0.3042   0.130314
 H 0.1981 0.5511 0.489   0.140939
 H 0.2989 0.6274 0.5526   0.034903
 H 0.0484 0.2838 0.3127   0.056829
 H 0.1127 0.3984 0.2739   0.128048
 H 0.2205 0.4192 0.4833   0.128208
 H 0.1518 0.3033 0.5154   0.059456
 H 0.5991 0.3276 0.9193   0.067784
 H 0.7052 0.3762 0.8404   0.129033
 H 0.7119 0.1659 0.7345   0.124713
 H 0.6021 0.1258 0.8147   0.050444
 H 0.8355 0.1711 0.5257   0.053633
 H 0.7526 0.2047 0.6288   0.131423
 H 0.948 0.3506 0.6931   0.126535
 H 0.0248 0.3101 0.5884   0.054001
 H 0.298 0.003 0.7014   0.288183
 H 0.677 0.847 0.239   0.284464
 H 0.0501 0.1386 0.6266   0.060809
 H 0.1448 0.0614 0.6958   0.130314
 H 0.3019 0.0511 0.511   0.140939
 H 0.2011 0.1274 0.4474   0.034903
 H 0.4516 0.7838 0.6873   0.056829
 H 0.3873 0.8984 0.7261   0.128047
 H 0.2795 0.9192 0.5167   0.128208
 H 0.3482 0.8033 0.4846   0.059456
 H 0.9009 0.8276 0.0807   0.067784
 H 0.7948 0.8762 0.1596   0.129033
 H 0.7881 0.6659 0.2655   0.124713
 H 0.8979 0.6258 0.1853   0.050444
 H 0.6645 0.6711 0.4743   0.053633
 H 0.7474 0.7047 0.3712   0.131423
 H 0.552 0.8506 0.3069   0.126535
 H 0.4752 0.8101 0.4116   0.054001
 C 0.6008 0.3802 0.6028   0.14972
 C 0.657 0.427 0.6449   -0.309607
 C 0.732 0.4566 0.6099   0.250689
 C 0.7501 0.4333 0.5352   -0.290351
 C 0.6895 0.3866 0.4978   0.13923
 C 0.9178 0.6882 0.6522   0.151234
 C 0.8791 0.6192 0.6762   -0.325064
 C 0.8271 0.5754 0.6254   0.279212
 C 0.815 0.6065 0.5522   -0.320854
 C 0.857 0.6766 0.5335   0.161329
 C 0.378 0.7052 0.1184   0.154347
 C 0.3134 0.6757 0.165   -0.315048
 C 0.2753 0.7243 0.2212   0.260708
 C 0.3095 0.8 0.2283   -0.301449
 C 0.3757 0.8236 0.1794   0.141916
 C 0.1409 0.7933 0.4395   0.142645
 C 0.1917 0.7732 0.3775   -0.307228
 C 0.1595 0.7196 0.3242   0.257786
 C 0.076 0.6871 0.3393   -0.320754
 C 0.0305 0.7119 0.4029   0.149526
 C 0.8992 0.8802 0.3972   0.14972
 C 0.843 0.927 0.3551   -0.309607
 C 0.768 0.9566 0.3901   0.250689
 C 0.7499 0.9333 0.4648   -0.290351
 C 0.8105 0.8866 0.5022   0.139231
 C 0.5822 0.1882 0.3478   0.151234
 C 0.6209 0.1192 0.3238   -0.325064
 C 0.6729 0.0754 0.3746   0.279212
 C 0.685 0.1065 0.4478   -0.320854
 C 0.643 0.1766 0.4665   0.16133
 C 0.122 0.2052 0.8816   0.154347
 C 0.1866 0.1757 0.835   -0.315048
 C 0.2247 0.2243 0.7788   0.260708
 C 0.1905 0.3 0.7717   -0.301449
 C 0.1243 0.3236 0.8206   0.141916
 C 0.3591 0.2933 0.5605   0.142645
 C 0.3083 0.2732 0.6225   -0.307228
 C 0.3405 0.2196 0.6758   0.257786
 C 0.424 0.1871 0.6607   -0.320754
 C 0.4695 0.2119 0.5971   0.149526
 C 0.6008 0.8802 0.8972   0.14972
 C 0.657 0.927 0.8551   -0.309607
 C 0.732 0.9566 0.8901   0.250689
 C 0.7501 0.9333 0.9648   -0.290351
 C 0.6895 0.8866 0.0022   0.139231
 C 0.9178 0.1882 0.8478   0.151234
 C 0.8791 0.1192 0.8238   -0.325065
 C 0.8271 0.0754 0.8746   0.279212
 C 0.815 0.1065 0.9478   -0.320854
 C 0.857 0.1766 0.9665   0.161329
 C 0.378 0.2052 0.3816   0.154347
 C 0.3134 0.1757 0.335   -0.315047
 C 0.2753 0.2243 0.2788   0.260707
 C 0.3095 0.3 0.2717   -0.301449
 C 0.3757 0.3236 0.3206   0.141916
 C 0.1409 0.2933 0.0605   0.142646
 C 0.1917 0.2732 0.1225   -0.307228
 C 0.1595 0.2196 0.1758   0.257786
 C 0.076 0.1871 0.1607   -0.320754
 C 0.0305 0.2119 0.0971   0.149525
 C 0.8992 0.3802 0.1028   0.14972
 C 0.843 0.427 0.1449   -0.309607
 C 0.768 0.4566 0.1099   0.250689
 C 0.7499 0.4333 0.0352   -0.290351
 C 0.8105 0.3866 0.9978   0.139231
 C 0.5822 0.6882 0.1522   0.151234
 C 0.6209 0.6192 0.1762   -0.325064
 C 0.6729 0.5754 0.1254   0.279212
 C 0.685 0.6065 0.0522   -0.320854
 C 0.643 0.6766 0.0335   0.16133
 C 0.122 0.7052 0.6184   0.154347
 C 0.1866 0.6757 0.665   -0.315047
 C 0.2247 0.7243 0.7212   0.260707
 C 0.1905 0.8 0.7283   -0.301449
 C 0.1243 0.8236 0.6794   0.141916
 C 0.3591 0.7933 0.9395   0.142646
 C 0.3083 0.7732 0.8775   -0.307228
 C 0.3405 0.7196 0.8242   0.257786
 C 0.424 0.6871 0.8393   -0.320754
 C 0.4695 0.7119 0.9029   0.149526
 C 0.3992 0.1198 0.1028   0.14972
 C 0.343 0.073 0.1449   -0.309605
 C 0.268 0.0434 0.1099   0.250688
 C 0.2499 0.0667 0.0352   -0.290349
 C 0.3105 0.1134 0.9978   0.13923
 C 0.0822 0.8118 0.1522   0.151234
 C 0.1209 0.8808 0.1762   -0.325063
 C 0.1729 0.9246 0.1254   0.279211
 C 0.185 0.8935 0.0522   -0.320853
 C 0.143 0.8234 0.0335   0.16133
 C 0.622 0.7948 0.6184   0.154347
 C 0.6866 0.8243 0.665   -0.315045
 C 0.7247 0.7757 0.7212   0.260707
 C 0.6905 0.7 0.7283   -0.301448
 C 0.6243 0.6764 0.6794   0.141918
 C 0.8591 0.7067 0.9395   0.142645
 C 0.8083 0.7268 0.8775   -0.307227
 C 0.8405 0.7804 0.8242   0.257786
 C 0.924 0.8129 0.8393   -0.320753
 C 0.9695 0.7881 0.9029   0.149525
 C 0.1008 0.6198 0.8972   0.14972
 C 0.157 0.573 0.8551   -0.309605
 C 0.232 0.5434 0.8901   0.250688
 C 0.2501 0.5667 0.9648   -0.290349
 C 0.1895 0.6134 0.0022   0.13923
 C 0.4178 0.3118 0.8478   0.151234
 C 0.3791 0.3808 0.8238   -0.325063
 C 0.3271 0.4246 0.8746   0.279211
 C 0.315 0.3935 0.9478   -0.320853
 C 0.357 0.3234 0.9665   0.16133
 C 0.878 0.2948 0.3816   0.154347
 C 0.8134 0.3243 0.335   -0.315045
 C 0.7753 0.2757 0.2788   0.260707
 C 0.8095 0.2 0.2717   -0.301448
 C 0.8757 0.1764 0.3206   0.141918
 C 0.6409 0.2067 0.0605   0.142645
 C 0.6917 0.2268 0.1225   -0.307227
 C 0.6595 0.2804 0.1758   0.257786
 C 0.576 0.3129 0.1607   -0.320753
 C 0.5305 0.2881 0.0971   0.149525
 C 0.3992 0.6198 0.3972   0.14972
 C 0.343 0.573 0.3551   -0.309605
 C 0.268 0.5434 0.3901   0.250688
 C 0.2499 0.5667 0.4648   -0.290349
 C 0.3105 0.6134 0.5022   0.13923
 C 0.0822 0.3118 0.3478   0.151234
 C 0.1209 0.3808 0.3238   -0.325063
 C 0.1729 0.4246 0.3746   0.279211
 C 0.185 0.3935 0.4478   -0.320853
 C 0.143 0.3234 0.4665   0.16133
 C 0.622 0.2948 0.8816   0.154347
 C 0.6866 0.3243 0.835   -0.315045
 C 0.7247 0.2757 0.7788   0.260707
 C 0.6905 0.2 0.7717   -0.301448
 C 0.6243 0.1764 0.8206   0.141917
 C 0.8591 0.2067 0.5605   0.142646
 C 0.8083 0.2268 0.6225   -0.307227
 C 0.8405 0.2804 0.6758   0.257786
 C 0.924 0.3129 0.6607   -0.320752
 C 0.9695 0.2881 0.5971   0.149525
 C 0.1008 0.1198 0.6028   0.14972
 C 0.157 0.073 0.6449   -0.309605
 C 0.232 0.0434 0.6099   0.250688
 C 0.2501 0.0667 0.5352   -0.290349
 C 0.1895 0.1134 0.4978   0.13923
 C 0.4178 0.8118 0.6522   0.151234
 C 0.3791 0.8808 0.6762   -0.325063
 C 0.3271 0.9246 0.6254   0.279211
 C 0.315 0.8935 0.5522   -0.320853
 C 0.357 0.8234 0.5335   0.16133
 C 0.878 0.7948 0.1184   0.154347
 C 0.8134 0.8243 0.165   -0.315045
 C 0.7753 0.7757 0.2212   0.260707
 C 0.8095 0.7 0.2283   -0.301448
 C 0.8757 0.6764 0.1794   0.141917
 C 0.6409 0.7067 0.4395   0.142646
 C 0.6917 0.7268 0.3775   -0.307227
 C 0.6595 0.7804 0.3242   0.257786
 C 0.576 0.8129 0.3393   -0.320753
 C 0.5305 0.7881 0.4029   0.149525
 N 0.9096 0.71747 0.581   -0.313192
 N 0.6148 0.3601 0.5297   -0.328922
 N 0.7879 0.5076 0.6516   -0.399413
 N 0.0596 0.7654 0.4535   -0.302319
 N 0.2046 0.6934 0.2604   -0.372846
 N 0.4103 0.7786 0.1237   -0.326243
 N 0.5904 0.21747 0.419   -0.313192
 N 0.8852 0.8601 0.4703   -0.328922
 N 0.7121 0.0076 0.3484   -0.399413
 N 0.4404 0.2654 0.5465   -0.302319
 N 0.2954 0.1934 0.7396   -0.372846
 N 0.0897 0.2786 0.8763   -0.326243
 N 0.9096 0.21747 0.919   -0.313192
 N 0.6148 0.8601 0.9703   -0.328922
 N 0.7879 0.0076 0.8484   -0.399413
 N 0.0596 0.2654 0.0465   -0.302319
 N 0.2046 0.1934 0.2396   -0.372846
 N 0.4103 0.2786 0.3763   -0.326243
 N 0.5904 0.71747 0.081   -0.313192
 N 0.8852 0.3601 0.0297   -0.328922
 N 0.7121 0.5076 0.1516   -0.399413
 N 0.4404 0.7654 0.9535   -0.302319
 N 0.2954 0.6934 0.7604   -0.372846
 N 0.0897 0.7786 0.6237   -0.326243
 N 0.0904 0.78253 0.081   -0.313191
 N 0.3852 0.1399 0.0297   -0.328922
 N 0.2121 0.9924 0.1516   -0.399411
 N 0.9404 0.7346 0.9535   -0.302319
 N 0.7954 0.8066 0.7604   -0.372845
 N 0.5897 0.7214 0.6237   -0.326244
 N 0.4096 0.28253 0.919   -0.313191
 N 0.1148 0.6399 0.9703   -0.328922
 N 0.2879 0.4924 0.8484   -0.399411
 N 0.5596 0.2346 0.0465   -0.302319
 N 0.7046 0.3066 0.2396   -0.372845
 N 0.9103 0.2214 0.3763   -0.326244
 N 0.0904 0.28253 0.419   -0.313191
 N 0.3852 0.6399 0.4703   -0.328922
 N 0.2121 0.4924 0.3484   -0.39941
 N 0.9404 0.2346 0.5465   -0.302319
 N 0.7954 0.3066 0.7396   -0.372845
 N 0.5897 0.2214 0.8763   -0.326243
 N 0.4096 0.78253 0.581   -0.313191
 N 0.1148 0.1399 0.5297   -0.328922
 N 0.2879 0.9924 0.6516   -0.39941
 N 0.5596 0.7346 0.4535   -0.302319
 N 0.7046 0.8066 0.2604   -0.372845
 N 0.9103 0.7214 0.1237   -0.326244
