{'_ref': 'TBD', '_srcid': 'CAKYAQ_clean', 'submitters': [{'name': 'Dalar Nazarian Jeff Camp and David Sholl', 'email': 'dalar@gatech.edu jcamp6@gatech.edu'}], '_method': 'VASP DFT with PBE;DDEC'}
data_CdH12C14(NO)4
_symmetry_space_group_name_H-M   'P 1'
_cell_length_a   11.59850000
_cell_length_b   13.64781315
_cell_length_c   14.24840000
_cell_angle_alpha   102.16707814
_cell_angle_beta   90.00000000
_cell_angle_gamma   115.14522523
_symmetry_Int_Tables_number   1
_chemical_formula_structural   CdH12C14(NO)4
_chemical_formula_sum   'Cd4 H48 C56 N16 O16'
_cell_volume   1985.58913317
_cell_formula_units_Z   4
loop_
 _symmetry_equiv_pos_site_id
 _symmetry_equiv_pos_as_xyz
  1  'x, y, z'
loop_
 _atom_site_label
 _atom_site_fract_x
 _atom_site_fract_y
 _atom_site_fract_z
 _atom_site_charge
 Cd 0.55514 0.55404 0.13575   0.971678
 Cd 0.9989 0.55404 0.63575   0.971439
 Cd 0.0011 0.44596 0.36425   0.971439
 Cd 0.44486 0.44596 0.86425   0.971678
 H 0.8062 0.7896 0.414   0.105023
 H 0.9119 0.7604 0.3651   0.094264
 H 0.8708 0.7122 0.5156   0.119328
 H 0.7334 0.6238 0.47   0.128774
 H 0.7302 0.8094 0.1377   0.092983
 H 0.7276 0.9762 0.1328   0.136642
 H 0.3454 0.8252 0.1179   0.147596
 H 0.3572 0.6616 0.1218   0.090309
 H 0.7894 0.2948 0.1202   0.146588
 H 0.7653 0.4548 0.1259   0.104085
 H 0.4012 0.3022 0.1489   0.079577
 H 0.4133 0.1366 0.1411   0.133872
 H 0.9834 0.7896 0.914   0.104834
 H 0.8485 0.7604 0.8651   0.094712
 H 0.8414 0.7122 0.0156   0.119071
 H 0.8904 0.6238 0.97   0.128682
 H 0.0792 0.8094 0.6377   0.093475
 H 0.2486 0.9762 0.6328   0.136316
 H 0.4798 0.8252 0.6179   0.147
 H 0.3044 0.6616 0.6218   0.089885
 H 0.5054 0.2948 0.6202   0.146193
 H 0.6895 0.4548 0.6259   0.103893
 H 0.901 0.3022 0.6489   0.08004
 H 0.7233 0.1366 0.6411   0.133752
 H 0.0166 0.2104 0.086   0.104838
 H 0.1515 0.2396 0.1349   0.094714
 H 0.1586 0.2878 0.9844   0.11907
 H 0.1096 0.3762 0.03   0.128681
 H 0.9208 0.1906 0.3623   0.093474
 H 0.7514 0.0238 0.3672   0.136321
 H 0.5202 0.1748 0.3821   0.147001
 H 0.6956 0.3384 0.3782   0.089886
 H 0.4946 0.7052 0.3798   0.146194
 H 0.3105 0.5452 0.3741   0.103892
 H 0.099 0.6978 0.3511   0.080041
 H 0.2767 0.8634 0.3589   0.133753
 H 0.1938 0.2104 0.586   0.105028
 H 0.0881 0.2396 0.6349   0.094266
 H 0.1292 0.2878 0.4844   0.119329
 H 0.2666 0.3762 0.53   0.128774
 H 0.2698 0.1906 0.8623   0.092986
 H 0.2724 0.0238 0.8672   0.136647
 H 0.6546 0.1748 0.8821   0.147596
 H 0.6428 0.3384 0.8782   0.090309
 H 0.2106 0.7052 0.8798   0.146589
 H 0.2347 0.5452 0.8741   0.104085
 H 0.5988 0.6978 0.8511   0.079579
 H 0.5867 0.8634 0.8589   0.133873
 C 0.73453 0.66426 0.2924   0.692868
 C 0.82535 0.7285 0.3833   -0.258574
 C 0.82118 0.66176 0.4561   -0.282884
 C 0.87246 0.57712 0.4227   0.696804
 C 0.65204 0.81288 0.1335   0.179908
 C 0.65139 0.91318 0.1307   -0.228991
 C 0.53578 0.91776 0.1248   0.229815
 C 0.42449 0.82338 0.1217   -0.23253
 C 0.43247 0.72554 0.1243   0.183838
 C 0.60248 0.19856 0.1304   0.20921
 C 0.70935 0.2945 0.1253   -0.206714
 C 0.69361 0.38982 0.1281   0.193244
 C 0.47969 0.29998 0.1413   0.183943
 C 0.48622 0.20044 0.1381   -0.23699
 C 0.92973 0.66426 0.7924   0.693999
 C 0.90315 0.7285 0.8833   -0.259368
 C 0.84058 0.66176 0.9561   -0.282139
 C 0.70466 0.57712 0.9227   0.69669
 C 0.16084 0.81288 0.6335   0.178432
 C 0.26179 0.91318 0.6307   -0.228739
 C 0.38198 0.91776 0.6248   0.230548
 C 0.39889 0.82338 0.6217   -0.231013
 C 0.29307 0.72554 0.6243   0.182743
 C 0.59608 0.19856 0.6304   0.21086
 C 0.58515 0.2945 0.6253   -0.206769
 C 0.69621 0.38982 0.6281   0.193193
 C 0.82029 0.29998 0.6413   0.184635
 C 0.71422 0.20044 0.6381   -0.238094
 C 0.07027 0.33574 0.2076   0.693999
 C 0.09685 0.2715 0.1167   -0.259371
 C 0.15942 0.33824 0.0439   -0.282138
 C 0.29534 0.42288 0.0773   0.69669
 C 0.83916 0.18712 0.3665   0.178433
 C 0.73821 0.08682 0.3693   -0.228741
 C 0.61802 0.08224 0.3752   0.230548
 C 0.60111 0.17662 0.3783   -0.231014
 C 0.70693 0.27446 0.3757   0.182742
 C 0.40392 0.80144 0.3696   0.210859
 C 0.41485 0.7055 0.3747   -0.20677
 C 0.30379 0.61018 0.3719   0.193193
 C 0.17971 0.70002 0.3587   0.184634
 C 0.28578 0.79956 0.3619   -0.238094
 C 0.26547 0.33574 0.7076   0.692868
 C 0.17465 0.2715 0.6167   -0.258577
 C 0.17882 0.33824 0.5439   -0.282884
 C 0.12754 0.42288 0.5773   0.696804
 C 0.34796 0.18712 0.8665   0.179908
 C 0.34861 0.08682 0.8693   -0.228993
 C 0.46422 0.08224 0.8752   0.229815
 C 0.57551 0.17662 0.8783   -0.23253
 C 0.56753 0.27446 0.8757   0.183837
 C 0.39752 0.80144 0.8696   0.209209
 C 0.29065 0.7055 0.8747   -0.206714
 C 0.30639 0.61018 0.8719   0.193244
 C 0.52031 0.70002 0.8587   0.183943
 C 0.51378 0.79956 0.8619   -0.23699
 N 0.54325 0.7197 0.1302   -0.333042
 N 0.52182 0.01804 0.1245   -0.143758
 N 0.62009 0.09938 0.1276   -0.130857
 N 0.58019 0.39298 0.1339   -0.319699
 N 0.17645 0.7197 0.6302   -0.331217
 N 0.49622 0.01804 0.6245   -0.144816
 N 0.47929 0.09938 0.6276   -0.130694
 N 0.81279 0.39298 0.6339   -0.320471
 N 0.82355 0.2803 0.3698   -0.331217
 N 0.50378 0.98196 0.3755   -0.144816
 N 0.52071 0.90062 0.3724   -0.130694
 N 0.18721 0.60702 0.3661   -0.320471
 N 0.45675 0.2803 0.8698   -0.333042
 N 0.47818 0.98196 0.8755   -0.143758
 N 0.37991 0.90062 0.8724   -0.130857
 N 0.41981 0.60702 0.8661   -0.319698
 O 0.62069 0.60318 0.30228   -0.637496
 O 0.77155 0.6759 0.2112   -0.65731
 O 0.87531 0.54242 0.33597   -0.586289
 O 0.91435 0.5435 0.48417   -0.665073
 O 0.98249 0.60318 0.80228   -0.638407
 O 0.90435 0.6759 0.7112   -0.657209
 O 0.66711 0.54242 0.83597   -0.586608
 O 0.62915 0.5435 0.98417   -0.664997
 O 0.01751 0.39682 0.19772   -0.638407
 O 0.09565 0.3241 0.2888   -0.657209
 O 0.33289 0.45758 0.16403   -0.586608
 O 0.37085 0.4565 0.01583   -0.664997
 O 0.37931 0.39682 0.69772   -0.637496
 O 0.22845 0.3241 0.7888   -0.65731
 O 0.12469 0.45758 0.66403   -0.586289
 O 0.08565 0.4565 0.51583   -0.665073
