{'_ref': 'TBD', '_srcid': 'CAKYAQ_clean', 'submitters': [{'name': 'Dalar Nazarian Jeff Camp and David Sholl', 'email': 'dalar@gatech.edu jcamp6@gatech.edu'}], '_method': 'VASP DFT with PBE;DDEC'}
data_CdH18C18(NO)4
_symmetry_space_group_name_H-M   'P 1'
_cell_length_a   11.91439995
_cell_length_b   14.01460030
_cell_length_c   15.76855748
_cell_angle_alpha   91.90170451
_cell_angle_beta   112.19662318
_cell_angle_gamma   89.99999992
_symmetry_Int_Tables_number   1
_chemical_formula_structural   CdH18C18(NO)4
_chemical_formula_sum   'Cd4 H72 C72 N16 O16'
_cell_volume   2436.27588303
_cell_formula_units_Z   4
loop_
 _symmetry_equiv_pos_site_id
 _symmetry_equiv_pos_as_xyz
  1  'x, y, z'
loop_
 _atom_site_label
 _atom_site_fract_x
 _atom_site_fract_y
 _atom_site_fract_z
 _atom_site_charge
 Cd 0.99344 0.62754 0.54548   0.97031
 Cd 0.44796 0.87246 0.45452   0.970753
 Cd 0.00656 0.37246 0.45452   0.97031
 Cd 0.55204 0.12754 0.54548   0.970752
 H 0.0696 0.5901 0.759   0.086427
 H 0.2285 0.5925 0.8974   0.123822
 H 0.4519 0.6169 0.7626   0.127723
 H 0.2856 0.6141 0.6282   0.085906
 H 0.648 0.6276 0.0   0.136592
 H 0.5984 0.6792 0.9066   0.142559
 H 0.6065 0.5676 0.9074   0.14097
 H 0.329 0.6303 0.1008   0.135324
 H 0.3769 0.6927 0.192   0.146533
 H 0.3771 0.5811 0.1956   0.145872
 H 0.5325 0.6297 0.339   0.132168
 H 0.704 0.6347 0.4688   0.0993
 H 0.9074 0.66 0.329   0.076433
 H 0.7437 0.6515 0.1944   0.110354
 H 0.8181 0.8139 0.7156   0.095873
 H 0.9459 0.8627 0.7434   0.097111
 H 0.8115 0.9784 0.6756   0.119784
 H 0.8674 0.9478 0.6036   0.131356
 H 0.3106 0.9099 0.241   0.086163
 H 0.3311 0.9075 0.1026   0.123248
 H 0.6893 0.8831 0.2374   0.127363
 H 0.6574 0.8859 0.3718   0.086245
 H 0.648 0.8724 0.0   0.136866
 H 0.6918 0.8208 0.0934   0.142861
 H 0.6991 0.9324 0.0926   0.141507
 H 0.2282 0.8697 0.8992   0.135055
 H 0.1849 0.8073 0.808   0.146827
 H 0.1815 0.9189 0.8044   0.146568
 H 0.1935 0.8703 0.661   0.132163
 H 0.2352 0.8653 0.5312   0.09916
 H 0.5784 0.84 0.671   0.077076
 H 0.5493 0.8485 0.8056   0.110425
 H 0.1025 0.6861 0.2844   0.0964
 H 0.2025 0.6373 0.2566   0.097666
 H 0.1359 0.5216 0.3244   0.119932
 H 0.2638 0.5522 0.3964   0.131707
 H 0.9304 0.4099 0.241   0.086429
 H 0.7715 0.4075 0.1026   0.123823
 H 0.5481 0.3831 0.2374   0.127724
 H 0.7144 0.3859 0.3718   0.085906
 H 0.352 0.3724 0.0   0.136593
 H 0.4016 0.3208 0.0934   0.142559
 H 0.3935 0.4324 0.0926   0.140971
 H 0.671 0.3697 0.8992   0.135324
 H 0.6231 0.3073 0.808   0.146533
 H 0.6229 0.4189 0.8044   0.145873
 H 0.4675 0.3703 0.661   0.132169
 H 0.296 0.3653 0.5312   0.099302
 H 0.0926 0.34 0.671   0.076433
 H 0.2563 0.3485 0.8056   0.110355
 H 0.1819 0.1861 0.2844   0.095874
 H 0.0541 0.1373 0.2566   0.097111
 H 0.1885 0.0216 0.3244   0.119787
 H 0.1326 0.0522 0.3964   0.13136
 H 0.6894 0.0901 0.759   0.086165
 H 0.6689 0.0925 0.8974   0.123249
 H 0.3107 0.1169 0.7626   0.127364
 H 0.3426 0.1141 0.6282   0.086245
 H 0.352 0.1276 0.0   0.136867
 H 0.3082 0.1792 0.9066   0.142861
 H 0.3009 0.0676 0.9074   0.141508
 H 0.7718 0.1303 0.1008   0.135056
 H 0.8151 0.1927 0.192   0.146827
 H 0.8185 0.0811 0.1956   0.146569
 H 0.8065 0.1297 0.339   0.132164
 H 0.7648 0.1347 0.4688   0.099162
 H 0.4216 0.16 0.329   0.077076
 H 0.4507 0.1515 0.1944   0.110425
 H 0.8975 0.3139 0.7156   0.0964
 H 0.7975 0.3627 0.7434   0.097666
 H 0.8641 0.4784 0.6756   0.119934
 H 0.7362 0.4478 0.6036   0.13171
 C 0.14788 0.597 0.76016   0.154317
 C 0.24254 0.5986 0.84368   -0.158112
 C 0.35899 0.6094 0.84638   0.027799
 C 0.37456 0.6131 0.76372   -0.189846
 C 0.2741 0.611 0.6832   0.176128
 C 0.4645 0.6171 0.937   0.306402
 C 0.59069 0.6234 0.93778   -0.418635
 C 0.3878 0.6344 0.1626   -0.433101
 C 0.51062 0.6331 0.16124   0.317596
 C 0.61791 0.6389 0.25022   0.003956
 C 0.60802 0.6347 0.33484   -0.17152
 C 0.71179 0.6379 0.41238   0.188154
 C 0.83071 0.6521 0.33062   0.159928
 C 0.73292 0.6481 0.24964   -0.179827
 C 0.91184 0.7625 0.63748   0.689045
 C 0.87464 0.8409 0.69168   -0.258484
 C 0.8162 0.9266 0.6348   -0.288624
 C 0.69158 0.905 0.56536   0.696051
 C 0.38772 0.903 0.23984   0.153544
 C 0.39886 0.9014 0.15632   -0.156043
 C 0.51261 0.8906 0.15362   0.026242
 C 0.61084 0.8869 0.23628   -0.189168
 C 0.5909 0.889 0.3168   0.176077
 C 0.5275 0.8829 0.063   0.306615
 C 0.65291 0.8766 0.06222   -0.419879
 C 0.2252 0.8656 0.8374   -0.434063
 C 0.34938 0.8669 0.83876   0.31885
 C 0.36769 0.8611 0.74978   0.00335
 C 0.27318 0.8653 0.66516   -0.170966
 C 0.29941 0.8621 0.58762   0.187677
 C 0.50009 0.8479 0.66938   0.159239
 C 0.48328 0.8519 0.75036   -0.179342
 C 0.27436 0.7375 0.36252   0.689976
 C 0.18296 0.6591 0.30832   -0.260335
 C 0.1814 0.5734 0.3652   -0.288841
 C 0.12622 0.595 0.43464   0.694567
 C 0.85212 0.403 0.23984   0.154317
 C 0.75746 0.4014 0.15632   -0.158112
 C 0.64101 0.3906 0.15362   0.027799
 C 0.62544 0.3869 0.23628   -0.189847
 C 0.7259 0.389 0.3168   0.176127
 C 0.5355 0.3829 0.063   0.306402
 C 0.40931 0.3766 0.06222   -0.418636
 C 0.6122 0.3656 0.8374   -0.433102
 C 0.48938 0.3669 0.83876   0.317596
 C 0.38209 0.3611 0.74978   0.003956
 C 0.39198 0.3653 0.66516   -0.17152
 C 0.28821 0.3621 0.58762   0.188154
 C 0.16929 0.3479 0.66938   0.159928
 C 0.26708 0.3519 0.75036   -0.179827
 C 0.08816 0.2375 0.36252   0.689045
 C 0.12536 0.1591 0.30832   -0.258483
 C 0.1838 0.0734 0.3652   -0.288626
 C 0.30842 0.095 0.43464   0.696052
 C 0.61228 0.097 0.76016   0.153543
 C 0.60114 0.0986 0.84368   -0.156043
 C 0.48739 0.1094 0.84638   0.026242
 C 0.38916 0.1131 0.76372   -0.189169
 C 0.4091 0.111 0.6832   0.176077
 C 0.4725 0.1171 0.937   0.306615
 C 0.34709 0.1234 0.93778   -0.41988
 C 0.7748 0.1344 0.1626   -0.434063
 C 0.65062 0.1331 0.16124   0.318849
 C 0.63231 0.1389 0.25022   0.00335
 C 0.72682 0.1347 0.33484   -0.170966
 C 0.70059 0.1379 0.41238   0.187676
 C 0.49991 0.1521 0.33062   0.159238
 C 0.51672 0.1481 0.24964   -0.179342
 C 0.72564 0.2625 0.63748   0.689976
 C 0.81704 0.3409 0.69168   -0.260335
 C 0.8186 0.4266 0.6348   -0.288843
 C 0.87378 0.405 0.56536   0.694568
 N 0.16185 0.6049 0.6803   -0.335537
 N 0.43525 0.6201 0.0075   -0.261147
 N 0.53634 0.6285 0.09088   -0.267789
 N 0.82189 0.6454 0.41198   -0.315762
 N 0.48155 0.8951 0.3197   -0.335244
 N 0.42775 0.8799 0.9925   -0.261505
 N 0.44546 0.8715 0.90912   -0.267646
 N 0.40991 0.8546 0.58802   -0.31625
 N 0.83815 0.3951 0.3197   -0.335537
 N 0.56475 0.3799 0.9925   -0.261147
 N 0.46366 0.3715 0.90912   -0.267789
 N 0.17811 0.3546 0.58802   -0.315762
 N 0.51845 0.1049 0.6803   -0.335243
 N 0.57225 0.1201 0.0075   -0.261505
 N 0.55454 0.1285 0.09088   -0.267646
 N 0.59009 0.1454 0.41198   -0.31625
 O 0.96902 0.7869 0.58964   -0.639759
 O 0.88921 0.6771 0.64522   -0.656457
 O 0.65829 0.8218 0.53818   -0.590199
 O 0.62022 0.9731 0.53724   -0.659377
 O 0.37938 0.7131 0.41036   -0.640537
 O 0.24399 0.8229 0.35478   -0.656325
 O 0.12011 0.6782 0.46182   -0.589369
 O 0.08298 0.5269 0.46276   -0.658237
 O 0.03098 0.2131 0.41036   -0.639759
 O 0.11079 0.3229 0.35478   -0.656457
 O 0.34171 0.1782 0.46182   -0.590199
 O 0.37978 0.0269 0.46276   -0.659378
 O 0.62062 0.2869 0.58964   -0.640537
 O 0.75601 0.1771 0.64522   -0.656325
 O 0.87989 0.3218 0.53818   -0.589369
 O 0.91702 0.4731 0.53724   -0.658237
