{'_ref': 'TBD', '_srcid': 'CAKYAQ_clean', 'submitters': [{'name': 'Dalar Nazarian Jeff Camp and David Sholl', 'email': 'dalar@gatech.edu jcamp6@gatech.edu'}], '_method': 'VASP DFT with PBE;DDEC'}
data_NaH6C2(SO2)2
_symmetry_space_group_name_H-M   'P 1'
_cell_length_a   5.73279967
_cell_length_b   10.91520000
_cell_length_c   11.26650000
_cell_angle_alpha   90.00000000
_cell_angle_beta   97.10599763
_cell_angle_gamma   90.00000000
_symmetry_Int_Tables_number   1
_chemical_formula_structural   NaH6C2(SO2)2
_chemical_formula_sum   'Na4 H24 C8 S8 O16'
_cell_volume   699.582261044
_cell_formula_units_Z   4
loop_
 _symmetry_equiv_pos_site_id
 _symmetry_equiv_pos_as_xyz
  1  'x, y, z'
loop_
 _atom_site_label
 _atom_site_fract_x
 _atom_site_fract_y
 _atom_site_fract_z
 _atom_site_charge
 Na 0.772 0.90558 0.74548   0.947325
 Na 0.02409 0.59468 0.76522   0.95086
 Na 0.272 0.09442 0.74548   0.947325
 Na 0.52409 0.40532 0.76522   0.95086
 H 0.7599 0.5415 0.0457   0.16249
 H 0.6117 0.6286 0.1224   0.130923
 H 0.0269 0.6551 0.17   0.096301
 H 0.0405 0.7017 0.0368   0.109011
 H 0.9246 0.7063 0.3894   0.082424
 H 0.7586 0.775 0.4721   0.105528
 H 0.1568 0.8853 0.3847   0.12495
 H 0.9898 0.9549 0.4668   0.163611
 H 0.184 0.916 0.898   0.483123
 H 0.074 0.014 0.928   0.457867
 H 0.609 0.594 0.612   0.455024
 H 0.703 0.512 0.569   0.466365
 H 0.2599 0.4585 0.0457   0.162487
 H 0.1117 0.3714 0.1224   0.130923
 H 0.5269 0.3449 0.17   0.096302
 H 0.5405 0.2983 0.0368   0.109011
 H 0.4246 0.2937 0.3894   0.082425
 H 0.2586 0.225 0.4721   0.105528
 H 0.6568 0.1147 0.3847   0.124949
 H 0.4898 0.0451 0.4668   0.16361
 H 0.684 0.084 0.898   0.483122
 H 0.574 0.986 0.928   0.457866
 H 0.109 0.406 0.612   0.455024
 H 0.203 0.488 0.569   0.466365
 C 0.7162 0.6278 0.0587   -0.430717
 C 0.9399 0.7002 0.1022   -0.067062
 C 0.8571 0.7868 0.4068   -0.059167
 C 0.0557 0.8741 0.449   -0.440565
 C 0.2162 0.3722 0.0587   -0.430715
 C 0.4399 0.2998 0.1022   -0.067063
 C 0.3571 0.2132 0.4068   -0.059168
 C 0.5557 0.1259 0.449   -0.440564
 S 0.55708 0.68535 0.92415   1.458104
 S 0.89874 0.85686 0.14969   -0.042953
 S 0.67117 0.84017 0.27364   -0.048022
 S 0.22768 0.81676 0.57943   1.471717
 S 0.05708 0.31465 0.92415   1.458104
 S 0.39874 0.14314 0.14969   -0.04295
 S 0.17117 0.15983 0.27364   -0.048021
 S 0.72768 0.18324 0.57943   1.471717
 O 0.404 0.58456 0.87786   -0.81736
 O 0.7313 0.71614 0.84467   -0.798795
 O 0.424 0.79128 0.95658   -0.678711
 O 0.0636 0.78428 0.66323   -0.809415
 O 0.3898 0.91483 0.62452   -0.800839
 O 0.3523 0.71 0.53982   -0.699755
 O 0.0935 0.9664 0.88078   -1.007599
 O 0.6935 0.54154 0.6298   -0.964663
 O 0.904 0.41544 0.87786   -0.81736
 O 0.2313 0.28386 0.84467   -0.798795
 O 0.924 0.20872 0.95658   -0.678711
 O 0.5636 0.21572 0.66323   -0.809415
 O 0.8898 0.08517 0.62452   -0.800839
 O 0.8523 0.29 0.53982   -0.699755
 O 0.5935 0.0336 0.88078   -1.007598
 O 0.1935 0.45846 0.6298   -0.964663
