{'_ref': 'TBD', '_srcid': 'CAKYAQ_clean', 'submitters': [{'name': 'Dalar Nazarian Jeff Camp and David Sholl', 'email': 'dalar@gatech.edu jcamp6@gatech.edu'}], '_method': 'VASP DFT with PBE;DDEC'}
data_Zn3H14C14(N2O3)3
_symmetry_space_group_name_H-M   'P 1'
_cell_length_a   11.69000000
_cell_length_b   14.17300036
_cell_length_c   17.99800000
_cell_angle_alpha   90.00000000
_cell_angle_beta   90.00000000
_cell_angle_gamma   111.01299952
_symmetry_Int_Tables_number   1
_chemical_formula_structural   Zn3H14C14(N2O3)3
_chemical_formula_sum   'Zn12 H56 C56 N24 O36'
_cell_volume   2783.64890417
_cell_formula_units_Z   4
loop_
 _symmetry_equiv_pos_site_id
 _symmetry_equiv_pos_as_xyz
  1  'x, y, z'
loop_
 _atom_site_label
 _atom_site_fract_x
 _atom_site_fract_y
 _atom_site_fract_z
 _atom_site_charge
 Zn 0.93659 0.11334 0.16658   0.901226
 Zn 0.84906 0.86125 0.14486   1.025613
 Zn 0.87185 0.39412 0.40581   0.908945
 Zn 0.56341 0.38666 0.66658   0.901226
 Zn 0.65094 0.63875 0.64486   1.025613
 Zn 0.62815 0.10588 0.90581   0.908945
 Zn 0.06341 0.88666 0.83342   0.901225
 Zn 0.15094 0.13875 0.85514   1.025613
 Zn 0.12815 0.60588 0.59419   0.908945
 Zn 0.43659 0.61334 0.33342   0.901225
 Zn 0.34906 0.36125 0.35514   1.025613
 Zn 0.37185 0.89412 0.09419   0.908945
 H 0.9125 0.984 0.2451   0.418621
 H 0.8035 0.2531 0.2522   0.054038
 H 0.9912 0.5754 0.4244   0.286957
 H 0.8017 0.5752 0.4445   0.089607
 H 0.7762 0.5618 0.359   0.081187
 H 0.1417 0.1187 0.0381   0.052475
 H 0.9395 0.5477 0.276   0.088188
 H 0.0639 0.5533 0.3119   0.112288
 H 0.8192 0.728 0.3898   0.114393
 H 0.944 0.7347 0.4261   0.107288
 H 0.1105 0.722 0.3419   0.106584
 H 0.082 0.708 0.2564   0.119945
 H 0.979 0.7997 0.3112   0.31405
 H 0.8923 0.7082 0.2782   0.289975
 H 0.5875 0.516 0.7451   0.418621
 H 0.6965 0.2469 0.7522   0.054038
 H 0.5088 0.9246 0.9244   0.286957
 H 0.6983 0.9248 0.9445   0.089607
 H 0.7238 0.9382 0.859   0.081187
 H 0.3583 0.3813 0.5381   0.052475
 H 0.5605 0.9523 0.776   0.088188
 H 0.4361 0.9467 0.8119   0.112288
 H 0.6808 0.772 0.8898   0.114393
 H 0.556 0.7653 0.9261   0.107288
 H 0.3895 0.778 0.8419   0.106584
 H 0.418 0.792 0.7564   0.119945
 H 0.521 0.7003 0.8112   0.31405
 H 0.6077 0.7918 0.7782   0.289975
 H 0.0875 0.016 0.7549   0.418621
 H 0.1965 0.7469 0.7478   0.054038
 H 0.0088 0.4246 0.5756   0.286957
 H 0.1983 0.4248 0.5555   0.089607
 H 0.2238 0.4382 0.641   0.081187
 H 0.8583 0.8813 0.9619   0.052475
 H 0.0605 0.4523 0.724   0.088189
 H 0.9361 0.4467 0.6881   0.112288
 H 0.1808 0.272 0.6102   0.114393
 H 0.056 0.2653 0.5739   0.107288
 H 0.8895 0.278 0.6581   0.106584
 H 0.918 0.292 0.7436   0.119945
 H 0.021 0.2003 0.6888   0.31405
 H 0.1077 0.2918 0.7218   0.289975
 H 0.4125 0.484 0.2549   0.418621
 H 0.3035 0.7531 0.2478   0.054038
 H 0.4912 0.0754 0.0756   0.286957
 H 0.3017 0.0752 0.0555   0.089607
 H 0.2762 0.0618 0.141   0.081187
 H 0.6417 0.6187 0.4619   0.052475
 H 0.4395 0.0477 0.224   0.088189
 H 0.5639 0.0533 0.1881   0.112288
 H 0.3192 0.228 0.1102   0.114393
 H 0.444 0.2347 0.0739   0.107288
 H 0.6105 0.222 0.1581   0.106584
 H 0.582 0.208 0.2436   0.119945
 H 0.479 0.2997 0.1888   0.31405
 H 0.3923 0.2082 0.2218   0.289975
 C 0.0574 0.249 0.2853   -0.033492
 C 0.88 0.2607 0.2716   0.296075
 C 0.1047 0.3609 0.4084   0.647462
 C 0.0382 0.3097 0.3414   -0.015886
 C 0.8975 0.1444 0.8638   0.670429
 C 0.9371 0.1347 0.9411   -0.029007
 C 0.8393 0.5918 0.3959   -0.011651
 C 0.1543 0.2109 0.2613   0.661293
 C 0.0699 0.1228 0.0186   0.309973
 C 0.997 0.5783 0.3157   -0.006058
 C 0.8866 0.7035 0.3865   -0.068654
 C 0.0465 0.6914 0.3056   -0.070437
 C 0.7759 0.1351 0.0462   0.666622
 C 0.8892 0.1288 0.0118   -0.018621
 C 0.4426 0.251 0.7853   -0.033492
 C 0.62 0.2393 0.7716   0.296075
 C 0.3953 0.1391 0.9084   0.647462
 C 0.4618 0.1903 0.8414   -0.015886
 C 0.6025 0.3556 0.3638   0.670429
 C 0.5629 0.3653 0.4411   -0.029007
 C 0.6607 0.9082 0.8959   -0.011651
 C 0.3457 0.2891 0.7613   0.661293
 C 0.4301 0.3772 0.5186   0.309973
 C 0.503 0.9217 0.8157   -0.006058
 C 0.6134 0.7965 0.8865   -0.068654
 C 0.4535 0.8086 0.8056   -0.070437
 C 0.7241 0.3649 0.5462   0.666622
 C 0.6108 0.3712 0.5118   -0.018621
 C 0.9426 0.751 0.7147   -0.033492
 C 0.12 0.7393 0.7284   0.296075
 C 0.8953 0.6391 0.5916   0.647462
 C 0.9618 0.6903 0.6586   -0.015886
 C 0.1025 0.8556 0.1362   0.67043
 C 0.0629 0.8653 0.0589   -0.029007
 C 0.1607 0.4082 0.6041   -0.011651
 C 0.8457 0.7891 0.7387   0.661293
 C 0.9301 0.8772 0.9814   0.309973
 C 0.003 0.4217 0.6843   -0.006058
 C 0.1134 0.2965 0.6135   -0.068654
 C 0.9535 0.3086 0.6944   -0.070437
 C 0.2241 0.8649 0.9538   0.666622
 C 0.1108 0.8712 0.9882   -0.018621
 C 0.5574 0.749 0.2147   -0.033492
 C 0.38 0.7607 0.2284   0.296075
 C 0.6047 0.8609 0.0916   0.647462
 C 0.5382 0.8097 0.1586   -0.015886
 C 0.3975 0.6444 0.6362   0.67043
 C 0.4371 0.6347 0.5589   -0.029007
 C 0.3393 0.0918 0.1041   -0.011651
 C 0.6543 0.7109 0.2387   0.661293
 C 0.5699 0.6228 0.4814   0.309973
 C 0.497 0.0783 0.1843   -0.006058
 C 0.3866 0.2035 0.1135   -0.068654
 C 0.5465 0.1914 0.1944   -0.070437
 C 0.2759 0.6351 0.4538   0.666622
 C 0.3892 0.6288 0.4882   -0.018621
 N 0.9543 0.2181 0.2415   -0.416372
 N 0.0515 0.1307 0.9469   -0.431918
 N 0.9258 0.3147 0.3318   -0.410868
 N 0.9343 0.5469 0.3886   -0.421541
 N 0.9476 0.7319 0.3148   -0.142763
 N 0.9751 0.1213 0.0598   -0.420655
 N 0.5457 0.2819 0.7415   -0.416372
 N 0.4485 0.3693 0.4469   -0.431918
 N 0.5742 0.1853 0.8318   -0.410868
 N 0.5657 0.9531 0.8886   -0.421541
 N 0.5524 0.7681 0.8148   -0.142763
 N 0.5249 0.3787 0.5598   -0.420655
 N 0.0457 0.7819 0.7585   -0.416372
 N 0.9485 0.8693 0.0531   -0.431918
 N 0.0742 0.6853 0.6682   -0.410868
 N 0.0657 0.4531 0.6114   -0.421541
 N 0.0524 0.2681 0.6852   -0.142763
 N 0.0249 0.8787 0.9402   -0.420655
 N 0.4543 0.7181 0.2585   -0.416372
 N 0.5515 0.6307 0.5531   -0.431918
 N 0.4258 0.8147 0.1682   -0.410868
 N 0.4343 0.0469 0.1114   -0.421541
 N 0.4476 0.2319 0.1852   -0.142763
 N 0.4751 0.6213 0.4402   -0.420655
 O 0.8676 0.9778 0.2065   -0.922797
 O 0.1291 0.1501 0.2088   -0.587499
 O 0.2074 0.3569 0.4234   -0.617298
 O 0.0486 0.4007 0.4491   -0.565586
 O 0.6908 0.1432 0.0072   -0.623089
 O 0.2591 0.2408 0.2935   -0.658263
 O 0.792 0.1417 0.8495   -0.624109
 O 0.9766 0.1534 0.8138   -0.655098
 O 0.7727 0.1315 0.1147   -0.571572
 O 0.6324 0.5222 0.7065   -0.922797
 O 0.3709 0.3499 0.7088   -0.587499
 O 0.2926 0.1431 0.9234   -0.617298
 O 0.4514 0.0993 0.9491   -0.565586
 O 0.8092 0.3568 0.5072   -0.623089
 O 0.2409 0.2592 0.7935   -0.658263
 O 0.708 0.3583 0.3495   -0.624109
 O 0.5234 0.3466 0.3138   -0.655098
 O 0.7273 0.3685 0.6147   -0.571572
 O 0.1324 0.0222 0.7935   -0.922797
 O 0.8709 0.8499 0.7912   -0.587499
 O 0.7926 0.6431 0.5766   -0.617298
 O 0.9514 0.5993 0.5509   -0.565586
 O 0.3092 0.8568 0.9928   -0.623089
 O 0.7409 0.7592 0.7065   -0.658263
 O 0.208 0.8583 0.1505   -0.624109
 O 0.0234 0.8466 0.1862   -0.655098
 O 0.2273 0.8685 0.8853   -0.571572
 O 0.3676 0.4778 0.2935   -0.922797
 O 0.6291 0.6501 0.2912   -0.587499
 O 0.7074 0.8569 0.0766   -0.617298
 O 0.5486 0.9007 0.0509   -0.565586
 O 0.1908 0.6432 0.4928   -0.623089
 O 0.7591 0.7408 0.2065   -0.658263
 O 0.292 0.6417 0.6505   -0.624109
 O 0.4766 0.6534 0.6862   -0.655098
 O 0.2727 0.6315 0.3853   -0.571572
