{'_ref': 'TBD', '_srcid': 'CAKYAQ_clean', 'submitters': [{'name': 'Dalar Nazarian Jeff Camp and David Sholl', 'email': 'dalar@gatech.edu jcamp6@gatech.edu'}], '_method': 'VASP DFT with PBE;DDEC'}
data_CuH10C10(NO2)2
_symmetry_space_group_name_H-M   'P 1'
_cell_length_a   6.64440000
_cell_length_b   7.90039966
_cell_length_c   24.94200000
_cell_angle_alpha   90.00000000
_cell_angle_beta   90.00000000
_cell_angle_gamma   91.71300048
_symmetry_Int_Tables_number   1
_chemical_formula_structural   CuH10C10(NO2)2
_chemical_formula_sum   'Cu4 H40 C40 N8 O16'
_cell_volume   1308.70565212
_cell_formula_units_Z   4
loop_
 _symmetry_equiv_pos_site_id
 _symmetry_equiv_pos_as_xyz
  1  'x, y, z'
loop_
 _atom_site_label
 _atom_site_fract_x
 _atom_site_fract_y
 _atom_site_fract_z
 _atom_site_charge
 Cu 0.62824 0.24638 0.68867   0.921036
 Cu 0.12907 0.71551 0.76725   0.870863
 Cu 0.37176 0.75362 0.18867   0.921036
 Cu 0.87093 0.28449 0.26725   0.870863
 H 0.6114 0.4124 0.5804   0.086355
 H 0.8143 0.4482 0.505   0.131272
 H 0.2454 0.1889 0.5822   0.130305
 H 0.0391 0.1713 0.6558   0.099565
 H 0.124 0.3961 0.4562   0.111476
 H 0.3889 0.1807 0.5047   0.110993
 H 0.7095 0.1384 0.4567   0.127923
 H 0.9072 0.166 0.3822   0.083598
 H 0.4665 0.3661 0.3011   0.089954
 H 0.2549 0.3568 0.3766   0.134844
 H 0.0941 0.6029 0.6259   0.065018
 H 0.1967 0.8783 0.6104   0.125297
 H 0.3904 0.7637 0.6098   0.140794
 H 0.5842 0.3185 0.832   0.071183
 H 0.8438 0.1309 0.8495   0.133916
 H 0.6416 0.0261 0.8357   0.126452
 H 0.901 0.63 0.703   0.303563
 H 0.398 0.308 0.771   0.31513
 H 0.941 0.826 0.697   0.308105
 H 0.425 0.113 0.761   0.317374
 H 0.3886 0.5876 0.0804   0.086355
 H 0.1857 0.5518 0.005   0.131271
 H 0.7546 0.8111 0.0822   0.130305
 H 0.9609 0.8287 0.1558   0.099565
 H 0.876 0.6039 0.9562   0.111475
 H 0.6111 0.8193 0.0047   0.110993
 H 0.2905 0.8616 0.9567   0.127923
 H 0.0928 0.834 0.8822   0.083598
 H 0.5335 0.6339 0.8011   0.089954
 H 0.7451 0.6432 0.8766   0.134844
 H 0.9059 0.3971 0.1259   0.065018
 H 0.8033 0.1217 0.1104   0.125297
 H 0.6096 0.2363 0.1098   0.140794
 H 0.4158 0.6815 0.332   0.071183
 H 0.1562 0.8691 0.3495   0.133915
 H 0.3584 0.9739 0.3357   0.126452
 H 0.099 0.37 0.203   0.303563
 H 0.602 0.692 0.271   0.31513
 H 0.059 0.174 0.197   0.308105
 H 0.575 0.887 0.261   0.317374
 C 0.7418 0.3663 0.5803   0.163454
 C 0.8615 0.3867 0.535   -0.228871
 C 0.0492 0.3173 0.5338   0.12097
 C 0.1153 0.2354 0.5809   -0.190216
 C 0.9917 0.2237 0.6242   0.156477
 C 0.171 0.3268 0.4844   -0.111131
 C 0.3402 0.2469 0.476   -0.113778
 C 0.4599 0.2508 0.4265   0.124805
 C 0.6566 0.1897 0.4255   -0.2284
 C 0.7725 0.2028 0.3806   0.159833
 C 0.5167 0.3209 0.3335   0.16928
 C 0.3877 0.3161 0.3789   -0.197934
 C 0.3004 0.537 0.6858   0.615132
 C 0.1618 0.6644 0.6563   0.109524
 C 0.2857 0.8106 0.6333   -0.380617
 C 0.3893 0.9301 0.6738   0.741299
 C 0.8064 0.3904 0.7784   0.631983
 C 0.6515 0.2649 0.8007   0.074662
 C 0.7487 0.1009 0.8202   -0.380136
 C 0.86 0.0017 0.7787   0.73506
 C 0.2582 0.6337 0.0803   0.163454
 C 0.1385 0.6133 0.035   -0.228871
 C 0.9508 0.6827 0.0338   0.120969
 C 0.8847 0.7646 0.0809   -0.190216
 C 0.0083 0.7763 0.1242   0.156477
 C 0.829 0.6732 0.9844   -0.11113
 C 0.6598 0.7531 0.976   -0.113778
 C 0.5401 0.7492 0.9265   0.124805
 C 0.3434 0.8103 0.9255   -0.2284
 C 0.2275 0.7972 0.8806   0.159832
 C 0.4833 0.6791 0.8335   0.16928
 C 0.6123 0.6839 0.8789   -0.197934
 C 0.6996 0.463 0.1858   0.615132
 C 0.8382 0.3356 0.1563   0.109524
 C 0.7143 0.1894 0.1333   -0.380617
 C 0.6107 0.0699 0.1738   0.741299
 C 0.1936 0.6096 0.2784   0.631983
 C 0.3485 0.7351 0.3007   0.074662
 C 0.2513 0.8991 0.3202   -0.380135
 C 0.14 0.9983 0.2787   0.73506
 N 0.8037 0.284 0.6237   -0.296178
 N 0.7042 0.2657 0.334   -0.311431
 N 0.004 0.7165 0.6944   -0.636287
 N 0.4962 0.2239 0.7598   -0.650575
 N 0.1963 0.716 0.1237   -0.296178
 N 0.2958 0.7343 0.834   -0.311431
 N 0.996 0.2835 0.1944   -0.636287
 N 0.5038 0.7761 0.2598   -0.650575
 O 0.411 0.4497 0.65772   -0.599146
 O 0.291 0.5335 0.73701   -0.573601
 O 0.4878 0.0548 0.65066   -0.665735
 O 0.3756 0.9028 0.7213   -0.603091
 O 0.7944 0.4176 0.7279   -0.598214
 O 0.9244 0.4632 0.80807   -0.595303
 O 0.8673 0.0445 0.73102   -0.61115
 O 0.9415 0.8713 0.79877   -0.635701
 O 0.589 0.5503 0.15772   -0.599146
 O 0.709 0.4665 0.23701   -0.573601
 O 0.5122 0.9452 0.15066   -0.665735
 O 0.6244 0.0972 0.2213   -0.603091
 O 0.2056 0.5824 0.2279   -0.598214
 O 0.0756 0.5368 0.30807   -0.595303
 O 0.1327 0.9555 0.23102   -0.61115
 O 0.0585 0.1287 0.29877   -0.635701
