{'_ref': 'TBD', '_srcid': 'CAKYAQ_clean', 'submitters': [{'name': 'Dalar Nazarian Jeff Camp and David Sholl', 'email': 'dalar@gatech.edu jcamp6@gatech.edu'}], '_method': 'VASP DFT with PBE;DDEC'}
data_Zn4H28C28N8O5
_symmetry_space_group_name_H-M   'P 1'
_cell_length_a   11.52280000
_cell_length_b   11.52280000
_cell_length_c   25.76920000
_cell_angle_alpha   90.00000000
_cell_angle_beta   90.00000000
_cell_angle_gamma   90.00000000
_symmetry_Int_Tables_number   1
_chemical_formula_structural   Zn4H28C28N8O5
_chemical_formula_sum   'Zn8 H56 C56 N16 O10'
_cell_volume   3421.50346434
_cell_formula_units_Z   2
loop_
 _symmetry_equiv_pos_site_id
 _symmetry_equiv_pos_as_xyz
  1  'x, y, z'
loop_
 _atom_site_label
 _atom_site_fract_x
 _atom_site_fract_y
 _atom_site_fract_z
 _atom_site_charge
 Zn 0.59861 0.59861 0.79218   0.870959
 Zn 0.40139 0.40139 0.79218   0.870959
 Zn 0.40139 0.59861 0.29218   0.870959
 Zn 0.59861 0.40139 0.29218   0.870959
 Zn 0.40139 0.59861 0.70782   0.870959
 Zn 0.59861 0.40139 0.70782   0.87096
 Zn 0.59861 0.59861 0.20782   0.870959
 Zn 0.40139 0.40139 0.20782   0.87096
 H 0.9095 0.7159 0.8128   0.124159
 H 0.8278 0.6451 0.8498   0.123413
 H 0.9588 0.6106 0.8444   0.130911
 H 0.0905 0.2841 0.8128   0.124159
 H 0.1722 0.3549 0.8498   0.123413
 H 0.0412 0.3894 0.8444   0.130911
 H 0.2841 0.9095 0.3128   0.124159
 H 0.3549 0.8278 0.3498   0.123413
 H 0.3894 0.9588 0.3444   0.130911
 H 0.7159 0.0905 0.3128   0.124159
 H 0.6451 0.1722 0.3498   0.123413
 H 0.6106 0.0412 0.3444   0.130911
 H 0.0905 0.7159 0.6872   0.124159
 H 0.1722 0.6451 0.6502   0.123413
 H 0.0412 0.6106 0.6556   0.130911
 H 0.9095 0.2841 0.6872   0.12416
 H 0.8278 0.3549 0.6502   0.123413
 H 0.9588 0.3894 0.6556   0.130911
 H 0.7159 0.9095 0.1872   0.124159
 H 0.6451 0.8278 0.1502   0.123413
 H 0.6106 0.9588 0.1556   0.130911
 H 0.2841 0.0905 0.1872   0.12416
 H 0.3549 0.1722 0.1502   0.123413
 H 0.3894 0.0412 0.1556   0.130911
 H 0.0905 0.2841 0.1872   0.12416
 H 0.1722 0.3549 0.1502   0.123412
 H 0.0412 0.3894 0.1556   0.130912
 H 0.9095 0.7159 0.1872   0.12416
 H 0.8278 0.6451 0.1502   0.123412
 H 0.9588 0.6106 0.1556   0.130912
 H 0.7159 0.0905 0.6872   0.12416
 H 0.6451 0.1722 0.6502   0.123412
 H 0.6106 0.0412 0.6556   0.130912
 H 0.2841 0.9095 0.6872   0.12416
 H 0.3549 0.8278 0.6502   0.123412
 H 0.3894 0.9588 0.6556   0.130912
 H 0.9095 0.2841 0.3128   0.12416
 H 0.8278 0.3549 0.3498   0.123412
 H 0.9588 0.3894 0.3444   0.130912
 H 0.0905 0.7159 0.3128   0.12416
 H 0.1722 0.6451 0.3498   0.123412
 H 0.0412 0.6106 0.3444   0.130912
 H 0.2841 0.0905 0.8128   0.12416
 H 0.3549 0.1722 0.8498   0.123412
 H 0.3894 0.0412 0.8444   0.130912
 H 0.7159 0.9095 0.8128   0.12416
 H 0.6451 0.8278 0.8498   0.123412
 H 0.6106 0.9588 0.8444   0.130912
 H 0.6211 0.6211 0.9556   0.09857
 H 0.3789 0.3789 0.9556   0.09857
 H 0.3789 0.6211 0.4556   0.09857
 H 0.6211 0.3789 0.4556   0.09857
 H 0.3789 0.6211 0.5444   0.098565
 H 0.6211 0.3789 0.5444   0.098565
 H 0.6211 0.6211 0.0444   0.098565
 H 0.3789 0.3789 0.0444   0.098565
 C 0.8923 0.6401 0.8263   -0.372399
 C 0.8625 0.561 0.78278   0.241529
 C 0.1077 0.3599 0.8263   -0.372399
 C 0.1375 0.439 0.78278   0.241529
 C 0.3599 0.8923 0.3263   -0.372399
 C 0.439 0.8625 0.28278   0.241529
 C 0.6401 0.1077 0.3263   -0.372399
 C 0.561 0.1375 0.28278   0.241529
 C 0.1077 0.6401 0.6737   -0.372399
 C 0.1375 0.561 0.71722   0.241527
 C 0.8923 0.3599 0.6737   -0.372399
 C 0.8625 0.439 0.71722   0.241527
 C 0.6401 0.8923 0.1737   -0.372399
 C 0.561 0.8625 0.21722   0.241527
 C 0.3599 0.1077 0.1737   -0.372399
 C 0.439 0.1375 0.21722   0.241527
 C 0.1077 0.3599 0.1737   -0.3724
 C 0.1375 0.439 0.21722   0.241529
 C 0.8923 0.6401 0.1737   -0.3724
 C 0.8625 0.561 0.21722   0.241529
 C 0.6401 0.1077 0.6737   -0.3724
 C 0.561 0.1375 0.71722   0.241529
 C 0.3599 0.8923 0.6737   -0.3724
 C 0.439 0.8625 0.71722   0.241529
 C 0.8923 0.3599 0.3263   -0.3724
 C 0.8625 0.439 0.28278   0.241527
 C 0.1077 0.6401 0.3263   -0.3724
 C 0.1375 0.561 0.28278   0.241528
 C 0.3599 0.1077 0.8263   -0.3724
 C 0.439 0.1375 0.78278   0.241528
 C 0.6401 0.8923 0.8263   -0.3724
 C 0.561 0.8625 0.78278   0.241527
 C 0.5714 0.5714 0.9733   -0.060072
 C 0.4286 0.4286 0.9733   -0.060072
 C 0.4286 0.5714 0.4733   -0.060072
 C 0.5714 0.4286 0.4733   -0.060072
 C 0.4286 0.5714 0.5267   -0.060037
 C 0.5714 0.4286 0.5267   -0.060037
 C 0.5714 0.5714 0.0267   -0.060037
 C 0.4286 0.4286 0.0267   -0.060037
 C 0.9352 0.5 0.75   -0.199419
 C 0.0648 0.5 0.75   -0.199418
 C 0.5 0.9352 0.25   -0.199419
 C 0.5 0.0648 0.25   -0.199418
 C 0.0648 0.5 0.25   -0.199419
 C 0.9352 0.5 0.25   -0.199418
 C 0.5 0.0648 0.75   -0.199419
 C 0.5 0.9352 0.75   -0.199418
 C 0.5 0.5 0.8881   0.708741
 C 0.5 0.5 0.946   -0.124564
 C 0.5 0.5 0.3881   0.708741
 C 0.5 0.5 0.446   -0.124564
 C 0.5 0.5 0.6119   0.708743
 C 0.5 0.5 0.554   -0.124578
 C 0.5 0.5 0.1119   0.708743
 C 0.5 0.5 0.054   -0.124578
 N 0.7523 0.5385 0.77058   -0.328402
 N 0.2477 0.4615 0.77058   -0.328402
 N 0.4615 0.7523 0.27058   -0.328402
 N 0.5385 0.2477 0.27058   -0.328402
 N 0.2477 0.5385 0.72942   -0.328392
 N 0.7523 0.4615 0.72942   -0.328392
 N 0.5385 0.7523 0.22942   -0.328392
 N 0.4615 0.2477 0.22942   -0.328392
 N 0.2477 0.4615 0.22942   -0.328402
 N 0.7523 0.5385 0.22942   -0.328402
 N 0.5385 0.2477 0.72942   -0.328402
 N 0.4615 0.7523 0.72942   -0.328402
 N 0.7523 0.4615 0.27058   -0.328392
 N 0.2477 0.5385 0.27058   -0.328392
 N 0.4615 0.2477 0.77058   -0.328392
 N 0.5385 0.7523 0.77058   -0.328392
 O 0.5684 0.5684 0.86619   -0.59637
 O 0.4316 0.4316 0.86619   -0.59637
 O 0.4316 0.5684 0.36619   -0.59637
 O 0.5684 0.4316 0.36619   -0.59637
 O 0.4316 0.5684 0.63381   -0.596371
 O 0.5684 0.4316 0.63381   -0.596371
 O 0.5684 0.5684 0.13381   -0.596371
 O 0.4316 0.4316 0.13381   -0.596371
 O 0.5 0.5 0.75   -0.976798
 O 0.5 0.5 0.25   -0.976798
