{'_ref': 'TBD', '_srcid': 'CAKYAQ_clean', 'submitters': [{'name': 'Dalar Nazarian Jeff Camp and David Sholl', 'email': 'dalar@gatech.edu jcamp6@gatech.edu'}], '_method': 'VASP DFT with PBE;DDEC'}
data_CuH12C11NO4
_symmetry_space_group_name_H-M   'P 1'
_cell_length_a   9.12910007
_cell_length_b   12.56410010
_cell_length_c   12.56410000
_cell_angle_alpha   66.24900219
_cell_angle_beta   78.18600247
_cell_angle_gamma   78.18609989
_symmetry_Int_Tables_number   1
_chemical_formula_structural   CuH12C11NO4
_chemical_formula_sum   'Cu4 H48 C44 N4 O16'
_cell_volume   1279.01357197
_cell_formula_units_Z   4
loop_
 _symmetry_equiv_pos_site_id
 _symmetry_equiv_pos_as_xyz
  1  'x, y, z'
loop_
 _atom_site_label
 _atom_site_fract_x
 _atom_site_fract_y
 _atom_site_fract_z
 _atom_site_charge
 Cu 0.18491 0.08262 0.51876   0.843388
 Cu 0.33158 0.06735 0.32203   0.828031
 Cu 0.81509 0.48124 0.91738   0.843396
 Cu 0.66842 0.67797 0.93265   0.828012
 H 0.9897 0.843 0.3708   0.084881
 H 0.7731 0.812 0.513   0.075605
 H 0.8047 0.9115 0.5509   0.077965
 H 0.0093 0.7016 0.5708   0.115771
 H 0.0316 0.7992 0.6152   0.13151
 H 0.8843 0.0274 0.235   0.100289
 H 0.7737 0.0529 0.3411   0.115446
 H 0.7543 0.9471 0.3073   0.106719
 H 0.5357 0.7523 0.6373   0.130387
 H 0.497 0.7059 0.5463   0.111032
 H 0.259 0.6684 0.6582   0.072431
 H 0.2936 0.7182 0.7478   0.072772
 H 0.3283 0.5109 0.8371   0.105576
 H 0.4988 0.3948 0.7442   0.095702
 H 0.5319 0.5107 0.6315   0.103718
 H 0.3673 0.4708 0.6668   0.103784
 H 0.0901 0.9213 0.7791   0.076281
 H 0.8867 0.9104 0.9182   0.11479
 H 0.7376 0.9025 0.0621   0.130744
 H 0.5526 0.9024 0.2226   0.085983
 H 0.4474 0.2399 0.0851   0.083994
 H 0.6051 0.2494 0.9112   0.117004
 H 0.756 0.2475 0.7595   0.122603
 H 0.9316 0.2477 0.6081   0.075317
 H 0.0103 0.6292 0.157   0.084882
 H 0.2269 0.487 0.188   0.075594
 H 0.1953 0.4491 0.0885   0.077966
 H 0.9907 0.4292 0.2984   0.115777
 H 0.9684 0.3848 0.2008   0.131513
 H 0.1157 0.765 0.9726   0.100289
 H 0.2263 0.6589 0.9471   0.115448
 H 0.2457 0.6927 0.0529   0.106717
 H 0.4643 0.3627 0.2477   0.130387
 H 0.503 0.4537 0.2941   0.111031
 H 0.741 0.3418 0.3316   0.072432
 H 0.7064 0.2522 0.2818   0.072771
 H 0.6717 0.1629 0.4891   0.105574
 H 0.5012 0.2558 0.6052   0.095703
 H 0.4681 0.3685 0.4893   0.103715
 H 0.6327 0.3332 0.5292   0.103784
 H 0.9099 0.2209 0.0787   0.076279
 H 0.1133 0.0818 0.0896   0.114792
 H 0.2624 0.9379 0.0975   0.13074
 H 0.4474 0.7774 0.0976   0.085982
 H 0.5526 0.9149 0.7601   0.083995
 H 0.3949 0.0888 0.7506   0.11701
 H 0.244 0.2405 0.7525   0.122602
 H 0.0684 0.3919 0.7523   0.075314
 C 0.0596 0.97419 0.39899   0.661815
 C 0.9391 0.9064 0.4   -0.110535
 C 0.8536 0.85012 0.51972   -0.072475
 C 0.9551 0.7596 0.605   -0.336173
 C 0.8719 0.696 0.7234   0.711438
 C 0.8274 0.9914 0.3126   -0.304365
 C 0.3828 0.86884 0.53164   0.729206
 C 0.4527 0.7469 0.6007   -0.327651
 C 0.3403 0.6752 0.6956   -0.07982
 C 0.4098 0.54713 0.77353   -0.118266
 C 0.5375 0.55215 0.83175   0.656065
 C 0.456 0.4744 0.6972   -0.30644
 C 0.0168 0.9887 0.7713   0.172811
 C 0.9031 0.9843 0.8581   -0.188709
 C 0.8101 0.08134 0.86374   0.106228
 C 0.6967 0.07766 0.96746   0.073815
 C 0.6772 0.97374 0.06194   -0.192722
 C 0.5664 0.9747 0.1587   0.145081
 C 0.5019 0.1693 0.0785   0.179415
 C 0.6021 0.1763 0.9757   -0.183392
 C 0.8236 0.1776 0.765   -0.199805
 C 0.9286 0.1772 0.6758   0.171513
 C 0.9404 0.60101 0.02581   0.66181
 C 0.0609 0.6 0.0936   -0.110531
 C 0.1464 0.48028 0.14988   -0.072461
 C 0.0449 0.395 0.2404   -0.336197
 C 0.1281 0.2766 0.304   0.711447
 C 0.1726 0.6874 0.0086   -0.30437
 C 0.6172 0.46836 0.13116   0.729218
 C 0.5473 0.3993 0.2531   -0.32765
 C 0.6597 0.3044 0.3248   -0.079818
 C 0.5902 0.22647 0.45287   -0.118265
 C 0.4625 0.16825 0.44785   0.656065
 C 0.544 0.3028 0.5256   -0.306439
 C 0.9832 0.2287 0.0113   0.172816
 C 0.0969 0.1419 0.0157   -0.188709
 C 0.1899 0.13626 0.91866   0.106228
 C 0.3033 0.03254 0.92234   0.073828
 C 0.3228 0.93806 0.02626   -0.192724
 C 0.4336 0.8413 0.0253   0.145083
 C 0.4981 0.9215 0.8307   0.179422
 C 0.3979 0.0243 0.8237   -0.183417
 C 0.1764 0.235 0.8224   -0.199795
 C 0.0714 0.3242 0.8228   0.171509
 N 0.0307 0.08568 0.67328   -0.336567
 N 0.4807 0.0718 0.164   -0.318948
 N 0.9693 0.32672 0.91432   -0.336568
 N 0.5193 0.836 0.9282   -0.318944
 O 0.171 0.98405 0.32005   -0.571295
 O 0.0379 0.01799 0.47599   -0.573921
 O 0.7874 0.753 0.7792   -0.568841
 O 0.8928 0.5839 0.75894   -0.591249
 O 0.2891 0.92075 0.58695   -0.586232
 O 0.4236 0.91239 0.42449   -0.589032
 O 0.6436 0.46792 0.85232   -0.561388
 O 0.5299 0.64128 0.85508   -0.571281
 O 0.829 0.67995 0.01595   -0.571289
 O 0.9621 0.52401 0.98201   -0.573923
 O 0.2126 0.2208 0.247   -0.568847
 O 0.1072 0.24106 0.4161   -0.591239
 O 0.7109 0.41305 0.07925   -0.586225
 O 0.5764 0.57551 0.08761   -0.589044
 O 0.3564 0.14768 0.53208   -0.561389
 O 0.4701 0.14492 0.35872   -0.571283
