{'_ref': 'TBD', '_srcid': 'CAKYAQ_clean', 'submitters': [{'name': 'Dalar Nazarian Jeff Camp and David Sholl', 'email': 'dalar@gatech.edu jcamp6@gatech.edu'}], '_method': 'VASP DFT with PBE;DDEC'}
data_CoH9C9(NO2)2
_symmetry_space_group_name_H-M   'P 1'
_cell_length_a   6.91490000
_cell_length_b   7.72090000
_cell_length_c   22.11300000
_cell_angle_alpha   90.00000000
_cell_angle_beta   90.00000000
_cell_angle_gamma   90.00000000
_symmetry_Int_Tables_number   1
_chemical_formula_structural   CoH9C9(NO2)2
_chemical_formula_sum   'Co4 H36 C36 N8 O16'
_cell_volume   1180.59651643
_cell_formula_units_Z   4
loop_
 _symmetry_equiv_pos_site_id
 _symmetry_equiv_pos_as_xyz
  1  'x, y, z'
loop_
 _atom_site_label
 _atom_site_fract_x
 _atom_site_fract_y
 _atom_site_fract_z
 _atom_site_charge
 Co 0.5417 0.75775 0.28748   0.970585
 Co 0.4583 0.75775 0.71252   0.970585
 Co 0.0417 0.24225 0.21252   0.970585
 Co 0.9583 0.24225 0.78748   0.970585
 H 0.3371 0.8608 0.1964   0.323737
 H 0.3885 0.6754 0.1847   0.323498
 H 0.5574 0.8981 0.1254   0.069313
 H 0.6479 0.6186 0.1123   0.119307
 H 0.8412 0.7264 0.1235   0.143785
 H 0.492 0.6623 0.4242   0.074246
 H 0.6806 0.6369 0.5116   0.121903
 H 0.1568 0.7734 0.416   0.130414
 H 0.9682 0.7988 0.3286   0.097268
 H 0.6629 0.8608 0.8036   0.323737
 H 0.6115 0.6754 0.8153   0.323498
 H 0.4426 0.8981 0.8746   0.069313
 H 0.3521 0.6186 0.8877   0.119307
 H 0.1588 0.7264 0.8765   0.143786
 H 0.508 0.6623 0.5758   0.074246
 H 0.3194 0.6369 0.4884   0.121904
 H 0.8432 0.7734 0.584   0.130414
 H 0.0318 0.7988 0.6714   0.097268
 H 0.8371 0.1392 0.3036   0.323737
 H 0.8885 0.3246 0.3153   0.323498
 H 0.0574 0.1019 0.3746   0.069313
 H 0.1479 0.3814 0.3877   0.119307
 H 0.3412 0.2736 0.3765   0.143785
 H 0.992 0.3377 0.0758   0.074246
 H 0.1806 0.3631 0.9884   0.121904
 H 0.6568 0.2266 0.084   0.130414
 H 0.4682 0.2012 0.1714   0.097268
 H 0.1629 0.1392 0.6964   0.323737
 H 0.1115 0.3246 0.6847   0.323498
 H 0.9426 0.1019 0.6254   0.069313
 H 0.8521 0.3814 0.6123   0.119307
 H 0.6588 0.2736 0.6235   0.143786
 H 0.008 0.3377 0.9242   0.074246
 H 0.8194 0.3631 0.0116   0.121904
 H 0.3432 0.2266 0.916   0.130414
 H 0.5318 0.2012 0.8286   0.097268
 C 0.7313 0.9592 0.1987   0.618986
 C 0.6042 0.8364 0.1624   0.093451
 C 0.7222 0.683 0.1433   -0.395224
 C 0.784 0.5504 0.1945   0.734368
 C 0.627 0.6849 0.4226   0.166334
 C 0.739 0.6697 0.4745   -0.21149
 C 0.9365 0.7027 0.472   0.084214
 C 0.0219 0.7508 0.4177   -0.201158
 C 0.91 0.766 0.3658   0.152878
 C 0.2687 0.9592 0.8013   0.618986
 C 0.3958 0.8364 0.8376   0.093451
 C 0.2778 0.683 0.8567   -0.395224
 C 0.216 0.5504 0.8055   0.734368
 C 0.373 0.6849 0.5774   0.166334
 C 0.261 0.6697 0.5255   -0.21149
 C 0.0635 0.7027 0.528   0.084217
 C 0.9781 0.7508 0.5823   -0.201159
 C 0.09 0.766 0.6342   0.152878
 C 0.2313 0.0408 0.3013   0.618986
 C 0.1042 0.1636 0.3376   0.093451
 C 0.2222 0.317 0.3567   -0.395224
 C 0.284 0.4496 0.3055   0.734368
 C 0.127 0.3151 0.0774   0.166334
 C 0.239 0.3303 0.0255   -0.21149
 C 0.4365 0.2973 0.028   0.084215
 C 0.5219 0.2492 0.0823   -0.201158
 C 0.41 0.234 0.1342   0.152878
 C 0.7687 0.0408 0.6987   0.618986
 C 0.8958 0.1636 0.6624   0.093451
 C 0.7778 0.317 0.6433   -0.395224
 C 0.716 0.4496 0.6945   0.734368
 C 0.873 0.3151 0.9226   0.166334
 C 0.761 0.3303 0.9745   -0.21149
 C 0.5635 0.2973 0.972   0.084217
 C 0.4781 0.2492 0.9177   -0.201159
 C 0.59 0.234 0.8658   0.152878
 N 0.4347 0.7801 0.1983   -0.696357
 N 0.712 0.733 0.3682   -0.350195
 N 0.5653 0.7801 0.8017   -0.696357
 N 0.288 0.733 0.6318   -0.350195
 N 0.9347 0.2199 0.3017   -0.696357
 N 0.212 0.267 0.1318   -0.350195
 N 0.0653 0.2199 0.6983   -0.696357
 N 0.788 0.267 0.8682   -0.350195
 O 0.8437 0.0615 0.1708   -0.595374
 O 0.704 0.9633 0.2551   -0.568634
 O 0.7464 0.5814 0.247   -0.598352
 O 0.8856 0.4332 0.1729   -0.607506
 O 0.1563 0.0615 0.8292   -0.595374
 O 0.296 0.9633 0.7449   -0.568634
 O 0.2536 0.5814 0.753   -0.598352
 O 0.1144 0.4332 0.8271   -0.607506
 O 0.3437 0.9385 0.3292   -0.595374
 O 0.204 0.0367 0.2449   -0.568634
 O 0.2464 0.4186 0.253   -0.598352
 O 0.3856 0.5668 0.3271   -0.607506
 O 0.6563 0.9385 0.6708   -0.595374
 O 0.796 0.0367 0.7551   -0.568634
 O 0.7536 0.4186 0.747   -0.598352
 O 0.6144 0.5668 0.6729   -0.607506
