{'_ref': 'TBD', '_srcid': 'CAKYAQ_clean', 'submitters': [{'name': 'Dalar Nazarian Jeff Camp and David Sholl', 'email': 'dalar@gatech.edu jcamp6@gatech.edu'}], '_method': 'VASP DFT with PBE;DDEC'}
data_ZnH10C16N3O4
_symmetry_space_group_name_H-M   'P 1'
_cell_length_a   7.92729969
_cell_length_b   10.55599963
_cell_length_c   13.15500000
_cell_angle_alpha   107.25999882
_cell_angle_beta   107.06000327
_cell_angle_gamma   90.64999758
_symmetry_Int_Tables_number   1
_chemical_formula_structural   ZnH10C16N3O4
_chemical_formula_sum   'Zn2 H20 C32 N6 O8'
_cell_volume   999.135748769
_cell_formula_units_Z   2
loop_
 _symmetry_equiv_pos_site_id
 _symmetry_equiv_pos_as_xyz
  1  'x, y, z'
loop_
 _atom_site_label
 _atom_site_fract_x
 _atom_site_fract_y
 _atom_site_fract_z
 _atom_site_charge
 Zn 0.27383 0.95463 0.70183   0.916878
 Zn 0.61427 0.12923 0.82206   0.910038
 H 0.5502 0.1586 0.1406   0.065152
 H 0.566 0.1518 0.3226   0.101612
 H 0.2381 0.8415 0.1761   0.064553
 H 0.2196 0.8494 0.0058   0.08013
 H 0.3067 0.9328 0.3819   0.100769
 H 0.5797 0.1404 0.4609   0.143018
 H 0.2403 0.4521 0.8028   0.136141
 H 0.9181 0.2859 0.7288   0.104434
 H 0.1252 0.6273 0.8115   0.127042
 H 0.9506 0.8076 0.8183   0.075519
 H 0.507 0.5756 0.6902   0.096189
 H 0.6649 0.3962 0.6972   0.103607
 H 0.7128 0.3953 0.9963   0.104057
 H 0.9643 0.53 0.1247   0.129122
 H 0.2684 0.2464 0.0262   0.117638
 H 0.017 0.1116 0.8979   0.101125
 H 0.6206 0.8214 0.5073   0.118524
 H 0.8723 0.9449 0.6451   0.107786
 H 0.1789 0.7014 0.4993   0.106769
 H 0.9272 0.578 0.3615   0.121566
 C 0.393 0.017 0.9436   0.674386
 C 0.391 0.006 0.0468   -0.115381
 C 0.482 0.088 0.1433   -0.046372
 C 0.492 0.087 0.2602   -0.165184
 C 0.392 0.989 0.2745   0.10015
 C 0.307 0.9132 0.1762   -0.130724
 C 0.296 0.9149 0.0667   -0.039324
 C 0.388 0.991 0.375   -0.01921
 C 0.502 0.079 0.4673   -0.278518
 C 0.501 0.076 0.5895   0.673273
 C 0.279 0.2494 0.7795   0.675458
 C 0.175 0.3692 0.78   -0.299702
 C 0.988 0.366 0.7489   -0.021468
 C 0.909 0.485 0.7486   0.06497
 C 0.002 0.6132 0.787   -0.159861
 C 0.891 0.722 0.785   -0.012136
 C 0.715 0.7141 0.7413   -0.165233
 C 0.62 0.832 0.7472   0.697857
 C 0.6303 0.5884 0.7127   -0.025339
 C 0.728 0.4792 0.7172   -0.144054
 C 0.8242 0.3654 0.0023   0.158358
 C 0.9748 0.4461 0.0792   -0.147104
 C 0.1413 0.4015 0.0882   0.031016
 C 0.1571 0.2762 0.0202   -0.137214
 C 0.0064 0.1955 0.9434   0.17783
 C 0.3048 0.4827 0.1716   0.315545
 C 0.6111 0.6316 0.3307   0.330709
 C 0.749 0.6874 0.4207   0.022338
 C 0.7325 0.7974 0.5057   -0.127786
 C 0.8833 0.8713 0.5883   0.159795
 C 0.067 0.7255 0.5009   0.151563
 C 0.9162 0.6515 0.4183   -0.13744
 N 0.84 0.2401 0.9344   -0.307456
 N 0.4673 0.4312 0.1815   -0.152412
 N 0.6205 0.5056 0.2611   -0.195404
 N 0.4486 0.6831 0.3207   -0.141992
 N 0.2954 0.6087 0.2411   -0.202595
 N 0.0506 0.8354 0.5859   -0.28918
 O 0.524 0.0812 0.9401   -0.577779
 O 0.26 0.9501 0.8526   -0.59514
 O 0.619 0.1376 0.6677   -0.522943
 O 0.373 0.994 0.5841   -0.634425
 O 0.442 0.2734 0.8185   -0.560714
 O 0.1772 0.1356 0.736   -0.603394
 O 0.701 0.9461 0.7933   -0.585459
 O 0.4498 0.8176 0.7047   -0.623975
