{'_ref': 'TBD', '_srcid': 'CAKYAQ_clean', 'submitters': [{'name': 'Dalar Nazarian Jeff Camp and David Sholl', 'email': 'dalar@gatech.edu jcamp6@gatech.edu'}], '_method': 'VASP DFT with PBE;DDEC'}
data_CuH12C11NO4
_symmetry_space_group_name_H-M   'P 1'
_cell_length_a   9.10750008
_cell_length_b   12.50599985
_cell_length_c   12.50600000
_cell_angle_alpha   66.46800189
_cell_angle_beta   78.60299859
_cell_angle_gamma   78.60309971
_symmetry_Int_Tables_number   1
_chemical_formula_structural   CuH12C11NO4
_chemical_formula_sum   'Cu4 H48 C44 N4 O16'
_cell_volume   1268.98796646
_cell_formula_units_Z   4
loop_
 _symmetry_equiv_pos_site_id
 _symmetry_equiv_pos_as_xyz
  1  'x, y, z'
loop_
 _atom_site_label
 _atom_site_fract_x
 _atom_site_fract_y
 _atom_site_fract_z
 _atom_site_charge
 Cu 0.68399 0.77371 0.82629   0.796385
 Cu 0.82927 0.76034 0.62872   0.794892
 Cu 0.31601 0.17371 0.22629   0.796357
 Cu 0.17073 0.37128 0.23966   0.794915
 H 0.4408 0.9401 0.9149   0.074865
 H 0.2649 0.9428 0.0716   0.127555
 H 0.3995 0.6017 0.2345   0.118198
 H 0.5804 0.61 0.0756   0.077426
 H 0.9444 0.933 0.3852   0.082143
 H 0.1226 0.9446 0.2242   0.120303
 H 0.2348 0.593 0.3714   0.131764
 H 0.0532 0.5931 0.5293   0.085476
 H 0.4812 0.5379 0.6715   0.084591
 H 0.3008 0.602 0.8586   0.080686
 H 0.2691 0.5012 0.821   0.076829
 H 0.5094 0.3937 0.8755   0.115591
 H 0.5312 0.4922 0.9202   0.133652
 H 0.3747 0.7222 0.5422   0.101287
 H 0.2705 0.7465 0.6513   0.114677
 H 0.2442 0.6424 0.6164   0.108215
 H 0.1669 0.8587 0.7975   0.105461
 H 0.2391 0.0342 0.647   0.07292
 H 0.2041 0.945 0.5956   0.07454
 H 0.9615 0.0597 0.5589   0.127946
 H 0.0061 0.1516 0.6026   0.112137
 H 0.125 0.0285 0.8397   0.103401
 H 0.0057 0.94 0.919   0.099544
 H 0.9561 0.0541 0.8089   0.10202
 H 0.5592 0.0851 0.0599   0.074864
 H 0.7351 0.9284 0.0572   0.12755
 H 0.6005 0.7655 0.3983   0.118193
 H 0.4196 0.9244 0.39   0.07744
 H 0.0556 0.6148 0.067   0.082143
 H 0.8774 0.7758 0.0554   0.1203
 H 0.7652 0.6286 0.407   0.13177
 H 0.9468 0.4707 0.4069   0.085474
 H 0.5188 0.3285 0.4621   0.084592
 H 0.6992 0.1414 0.398   0.080687
 H 0.7309 0.179 0.4988   0.07683
 H 0.4906 0.1245 0.6063   0.115597
 H 0.4688 0.0798 0.5078   0.133654
 H 0.6253 0.4578 0.2778   0.101271
 H 0.7295 0.3487 0.2535   0.114677
 H 0.7558 0.3836 0.3576   0.108216
 H 0.8331 0.2025 0.1413   0.105465
 H 0.7609 0.353 0.9658   0.072918
 H 0.7959 0.4044 0.055   0.074531
 H 0.0385 0.4411 0.9403   0.127948
 H 0.9939 0.3974 0.8484   0.112139
 H 0.875 0.1603 0.9715   0.103397
 H 0.9943 0.081 0.06   0.099537
 H 0.0439 0.1911 0.9459   0.102025
 C 0.4346 0.8693 0.9823   0.167734
 C 0.3276 0.8714 0.075   -0.202166
 C 0.3107 0.7725 0.1715   0.095005
 C 0.4069 0.6742 0.1694   -0.187131
 C 0.5142 0.6795 0.0737   0.167854
 C 0.0034 0.8623 0.3821   0.179997
 C 0.1094 0.8701 0.2849   -0.191282
 C 0.1965 0.7694 0.2762   0.081547
 C 0.1752 0.6645 0.3711   -0.196104
 C 0.0664 0.6654 0.4652   0.149504
 C 0.5544 0.6691 0.7029   0.648647
 C 0.4321 0.6002 0.7032   -0.099575
 C 0.3496 0.5409 0.8265   -0.080193
 C 0.4551 0.4514 0.9104   -0.331001
 C 0.3732 0.387 0.0288   0.705121
 C 0.3203 0.6855 0.6209   -0.307067
 C 0.9592 0.8641 0.7547   0.638974
 C 0.0863 0.9232 0.7612   -0.101684
 C 0.1574 0.9977 0.6383   -0.08436
 C 0.0472 0.09509 0.56329   -0.316614
 C 0.1191 0.1619 0.4385   0.700283
 C 0.0392 0.99246 0.83886   -0.312378
 C 0.5654 0.0177 0.1307   0.16773
 C 0.6724 0.925 0.1286   -0.202158
 C 0.6893 0.8285 0.2275   0.095001
 C 0.5931 0.8306 0.3258   -0.18712
 C 0.4858 0.9263 0.3205   0.167831
 C 0.9966 0.6179 0.1377   0.18
 C 0.8906 0.7151 0.1299   -0.191279
 C 0.8035 0.7238 0.2306   0.081553
 C 0.8248 0.6289 0.3355   -0.196139
 C 0.9336 0.5348 0.3346   0.149528
 C 0.4456 0.2971 0.3309   0.648664
 C 0.5679 0.2968 0.3998   -0.099577
 C 0.6504 0.1735 0.4591   -0.08019
 C 0.5449 0.0896 0.5486   -0.331018
 C 0.6268 0.9712 0.613   0.705144
 C 0.6797 0.3791 0.3145   -0.307054
 C 0.0408 0.2453 0.1359   0.638988
 C 0.9137 0.2388 0.0768   -0.101712
 C 0.8426 0.3617 0.0023   -0.084344
 C 0.9528 0.43671 0.90491   -0.316616
 C 0.8809 0.5615 0.8381   0.700248
 C 0.9608 0.16114 0.00754   -0.312373
 N 0.5297 0.7764 0.9798   -0.316085
 N 0.9784 0.7633 0.4709   -0.323619
 N 0.4703 0.0202 0.2236   -0.316073
 N 0.0216 0.5291 0.2367   -0.323629
 O 0.5341 0.71101 0.78101   -0.556136
 O 0.6682 0.67654 0.62474   -0.565917
 O 0.3938 0.27454 0.06594   -0.584465
 O 0.2913 0.44406 0.08626   -0.565021
 O 0.8564 0.83776 0.84176   -0.549646
 O 0.9682 0.84083 0.66463   -0.555481
 O 0.215 0.10269 0.38909   -0.564786
 O 0.076 0.26961 0.39441   -0.566455
 O 0.4659 0.21899 0.28899   -0.556142
 O 0.3318 0.37526 0.32346   -0.565926
 O 0.6062 0.93406 0.72546   -0.584486
 O 0.7087 0.91374 0.55594   -0.56502
 O 0.1436 0.15824 0.16224   -0.549645
 O 0.0318 0.33537 0.15917   -0.555479
 O 0.785 0.61091 0.89731   -0.564767
 O 0.924 0.60559 0.73039   -0.566438
