{'_ref': 'TBD', '_srcid': 'CAKYAQ_clean', 'submitters': [{'name': 'Dalar Nazarian Jeff Camp and David Sholl', 'email': 'dalar@gatech.edu jcamp6@gatech.edu'}], '_method': 'VASP DFT with PBE;DDEC'}
data_ErH3(C3O2)3
_symmetry_space_group_name_H-M   'P 1'
_cell_length_a   9.07570006
_cell_length_b   9.07569951
_cell_length_c   15.92200000
_cell_angle_alpha   88.45859748
_cell_angle_beta   88.45859758
_cell_angle_gamma   84.89010111
_symmetry_Int_Tables_number   1
_chemical_formula_structural   ErH3(C3O2)3
_chemical_formula_sum   'Er4 H12 C36 O24'
_cell_volume   1305.38815454
_cell_formula_units_Z   4
loop_
 _symmetry_equiv_pos_site_id
 _symmetry_equiv_pos_as_xyz
  1  'x, y, z'
loop_
 _atom_site_label
 _atom_site_fract_x
 _atom_site_fract_y
 _atom_site_fract_z
 _atom_site_charge
 Er 0.22202 0.0224 0.48921   1.545436
 Er 0.9776 0.77798 0.01079   1.545437
 Er 0.77798 0.9776 0.51079   1.545437
 Er 0.0224 0.22202 0.98921   1.545437
 H 0.28927 0.0543 0.73679   0.152383
 H 0.49639 0.94086 0.96855   0.128084
 H 0.71852 0.8817 0.72856   0.158864
 H 0.9457 0.71073 0.76321   0.152383
 H 0.05914 0.50361 0.53145   0.128084
 H 0.1183 0.28148 0.77144   0.158864
 H 0.71073 0.9457 0.26321   0.152383
 H 0.50361 0.05914 0.03145   0.128083
 H 0.28148 0.1183 0.27144   0.158864
 H 0.0543 0.28927 0.23679   0.152383
 H 0.94086 0.49639 0.46855   0.128083
 H 0.8817 0.71852 0.22856   0.158864
 C 0.4725 0.9099 0.6296   0.75952
 C 0.2275 0.0039 0.9086   0.658705
 C 0.7426 0.7742 0.9024   0.588813
 C 0.467 0.8546 0.7215   -0.179611
 C 0.3501 0.9549 0.77   0.046961
 C 0.3336 0.901 0.8611   -0.126418
 C 0.4844 0.8838 0.9065   0.038968
 C 0.5984 0.7856 0.8556   -0.114233
 C 0.6168 0.846 0.7645   0.065092
 C 0.0901 0.5275 0.8704   0.75952
 C 0.9961 0.7725 0.5914   0.658705
 C 0.2258 0.2574 0.5976   0.588813
 C 0.1454 0.533 0.7785   -0.179611
 C 0.0451 0.6499 0.73   0.046961
 C 0.099 0.6664 0.6389   -0.126418
 C 0.1162 0.5156 0.5935   0.038968
 C 0.2144 0.4016 0.6444   -0.114233
 C 0.154 0.3832 0.7355   0.065092
 C 0.5275 0.0901 0.3704   0.75952
 C 0.7725 0.9961 0.0914   0.658705
 C 0.2574 0.2258 0.0976   0.588813
 C 0.533 0.1454 0.2785   -0.179611
 C 0.6499 0.0451 0.23   0.046961
 C 0.6664 0.099 0.1389   -0.126418
 C 0.5156 0.1162 0.0935   0.038968
 C 0.4016 0.2144 0.1444   -0.114233
 C 0.3832 0.154 0.2355   0.065092
 C 0.9099 0.4725 0.1296   0.75952
 C 0.0039 0.2275 0.4086   0.658705
 C 0.7742 0.7426 0.4024   0.588813
 C 0.8546 0.467 0.2215   -0.179611
 C 0.9549 0.3501 0.27   0.046961
 C 0.901 0.3336 0.3611   -0.126418
 C 0.8838 0.4844 0.4065   0.038968
 C 0.7856 0.5984 0.3556   -0.114233
 C 0.846 0.6168 0.2645   0.065092
 O 0.3607 0.9057 0.5879   -0.651445
 O 0.5897 0.9589 0.6003   -0.672316
 O 0.2432 0.141 0.9117   -0.581536
 O 0.1157 0.9561 0.95   -0.706887
 O 0.8245 0.8763 0.8992   -0.56022
 O 0.7755 0.6627 0.9512   -0.550161
 O 0.0943 0.6393 0.9121   -0.651445
 O 0.0411 0.4103 0.8997   -0.672316
 O 0.859 0.7568 0.5883   -0.581536
 O 0.0439 0.8843 0.55   -0.706887
 O 0.1237 0.1755 0.6008   -0.56022
 O 0.3373 0.2245 0.5488   -0.550161
 O 0.6393 0.0943 0.4121   -0.651445
 O 0.4103 0.0411 0.3997   -0.672316
 O 0.7568 0.859 0.0883   -0.581536
 O 0.8843 0.0439 0.05   -0.706887
 O 0.1755 0.1237 0.1008   -0.56022
 O 0.2245 0.3373 0.0488   -0.550161
 O 0.9057 0.3607 0.0879   -0.651445
 O 0.9589 0.5897 0.1003   -0.672316
 O 0.141 0.2432 0.4117   -0.581536
 O 0.9561 0.1157 0.45   -0.706887
 O 0.8763 0.8245 0.3992   -0.56022
 O 0.6627 0.7755 0.4512   -0.550161
