{'_ref': 'TBD', '_srcid': 'CAKYAQ_clean', 'submitters': [{'name': 'Dalar Nazarian Jeff Camp and David Sholl', 'email': 'dalar@gatech.edu jcamp6@gatech.edu'}], '_method': 'VASP DFT with PBE;DDEC'}
data_ErH9(C3O2)3
_symmetry_space_group_name_H-M   'P 1'
_cell_length_a   9.08350037
_cell_length_b   9.08350045
_cell_length_c   15.91930000
_cell_angle_alpha   88.41729739
_cell_angle_beta   88.41729737
_cell_angle_gamma   84.77169976
_symmetry_Int_Tables_number   1
_chemical_formula_structural   ErH9(C3O2)3
_chemical_formula_sum   'Er4 H36 C36 O24'
_cell_volume   1307.121482
_cell_formula_units_Z   4
loop_
 _symmetry_equiv_pos_site_id
 _symmetry_equiv_pos_as_xyz
  1  'x, y, z'
loop_
 _atom_site_label
 _atom_site_fract_x
 _atom_site_fract_y
 _atom_site_fract_z
 _atom_site_charge
 Er 0.47757 0.27785 0.01099   1.517039
 Er 0.72215 0.52243 0.48901   1.51704
 Er 0.52243 0.72215 0.98901   1.51704
 Er 0.27785 0.47757 0.51099   1.51704
 H 0.7445 0.0653 0.7782   0.099027
 H 0.555 0.8498 0.7327   0.09052
 H 0.7158 0.811 0.7655   0.091815
 H 0.8148 0.9358 0.6468   0.100912
 H 0.5187 0.9817 0.5893   0.087856
 H 0.6575 0.0293 0.538   0.093231
 H 0.6983 0.2053 0.6384   0.098002
 H 0.4449 0.1215 0.7305   0.090583
 H 0.5441 0.2441 0.7572   0.096018
 H 0.9347 0.2555 0.7218   0.099026
 H 0.1502 0.445 0.7673   0.09052
 H 0.189 0.2842 0.7345   0.091814
 H 0.0642 0.1852 0.8532   0.10091
 H 0.0183 0.4813 0.9107   0.087856
 H 0.9707 0.3425 0.962   0.093231
 H 0.7947 0.3017 0.8616   0.098002
 H 0.8785 0.5551 0.7695   0.090582
 H 0.7559 0.4559 0.7428   0.096018
 H 0.2555 0.9347 0.2218   0.099027
 H 0.445 0.1502 0.2673   0.09052
 H 0.2842 0.189 0.2345   0.091815
 H 0.1852 0.0642 0.3532   0.100912
 H 0.4813 0.0183 0.4107   0.087856
 H 0.3425 0.9707 0.462   0.093231
 H 0.3017 0.7947 0.3616   0.098002
 H 0.5551 0.8785 0.2695   0.090583
 H 0.4559 0.7559 0.2428   0.096018
 H 0.0653 0.7445 0.2782   0.099026
 H 0.8498 0.555 0.2327   0.09052
 H 0.811 0.7158 0.2655   0.091814
 H 0.9358 0.8148 0.1468   0.10091
 H 0.9817 0.5187 0.0893   0.087856
 H 0.0293 0.6575 0.038   0.093231
 H 0.2053 0.6983 0.1384   0.098002
 H 0.1215 0.4449 0.2305   0.090582
 H 0.2441 0.5441 0.2572   0.096018
 C 0.6446 0.0328 0.7784   -0.174898
 C 0.653 0.884 0.7343   -0.121168
 C 0.716 0.9012 0.6442   -0.140247
 C 0.6157 0.0167 0.5942   -0.119431
 C 0.601 0.1666 0.6385   -0.160666
 C 0.5453 0.1499 0.7298   -0.120554
 C 0.5884 0.0256 0.8688   0.767736
 C 0.7271 0.7591 0.5968   0.623987
 C 0.4958 0.2744 0.5904   0.697925
 C 0.9672 0.3554 0.7216   -0.174898
 C 0.116 0.347 0.7657   -0.12117
 C 0.0988 0.284 0.8558   -0.140238
 C 0.9833 0.3843 0.9058   -0.119433
 C 0.8334 0.399 0.8615   -0.160666
 C 0.8501 0.4547 0.7702   -0.120554
 C 0.9744 0.4116 0.6312   0.767736
 C 0.2409 0.2729 0.9032   0.623957
 C 0.7256 0.5042 0.9096   0.697925
 C 0.3554 0.9672 0.2216   -0.174898
 C 0.347 0.116 0.2657   -0.121168
 C 0.284 0.0988 0.3558   -0.140247
 C 0.3843 0.9833 0.4058   -0.11943
 C 0.399 0.8334 0.3615   -0.160666
 C 0.4547 0.8501 0.2702   -0.120554
 C 0.4116 0.9744 0.1312   0.767736
 C 0.2729 0.2409 0.4032   0.623987
 C 0.5042 0.7256 0.4096   0.697925
 C 0.0328 0.6446 0.2784   -0.174898
 C 0.884 0.653 0.2343   -0.12117
 C 0.9012 0.716 0.1442   -0.140239
 C 0.0167 0.6157 0.0942   -0.119432
 C 0.1666 0.601 0.1385   -0.160666
 C 0.1499 0.5453 0.2298   -0.120554
 C 0.0256 0.5884 0.3688   0.767736
 C 0.7591 0.7271 0.0968   0.623957
 C 0.2744 0.4958 0.0904   0.697925
 O 0.5926 0.1408 0.9102   -0.634948
 O 0.5399 0.9095 0.8976   -0.648923
 O 0.8386 0.726 0.5492   -0.501685
 O 0.623 0.6766 0.6006   -0.564029
 O 0.5424 0.3826 0.5495   -0.680008
 O 0.3608 0.2564 0.5903   -0.588092
 O 0.8592 0.4074 0.5898   -0.634948
 O 0.0905 0.4601 0.6024   -0.648923
 O 0.274 0.1614 0.9508   -0.501681
 O 0.3234 0.377 0.8994   -0.564007
 O 0.6174 0.4576 0.9505   -0.680009
 O 0.7436 0.6392 0.9097   -0.588092
 O 0.4074 0.8592 0.0898   -0.634948
 O 0.4601 0.0905 0.1024   -0.648923
 O 0.1614 0.274 0.4508   -0.501685
 O 0.377 0.3234 0.3994   -0.564029
 O 0.4576 0.6174 0.4505   -0.680008
 O 0.6392 0.7436 0.4097   -0.588092
 O 0.1408 0.5926 0.4102   -0.634948
 O 0.9095 0.5399 0.3976   -0.648923
 O 0.726 0.8386 0.0492   -0.501681
 O 0.6766 0.623 0.1006   -0.564007
 O 0.3826 0.5424 0.0495   -0.680009
 O 0.2564 0.3608 0.0903   -0.588092
