{'_ref': 'TBD', '_srcid': 'CAKYAQ_clean', 'submitters': [{'name': 'Dalar Nazarian Jeff Camp and David Sholl', 'email': 'dalar@gatech.edu jcamp6@gatech.edu'}], '_method': 'VASP DFT with PBE;DDEC'}
data_AlH6C12O5
_symmetry_space_group_name_H-M   'P 1'
_cell_length_a   6.60950000
_cell_length_b   21.10120000
_cell_length_c   21.10120000
_cell_angle_alpha   90.00000000
_cell_angle_beta   90.00000000
_cell_angle_gamma   90.00000000
_symmetry_Int_Tables_number   1
_chemical_formula_structural   AlH6C12O5
_chemical_formula_sum   'Al8 H48 C96 O40'
_cell_volume   2942.9502096
_cell_formula_units_Z   8
loop_
 _symmetry_equiv_pos_site_id
 _symmetry_equiv_pos_as_xyz
  1  'x, y, z'
loop_
 _atom_site_label
 _atom_site_fract_x
 _atom_site_fract_y
 _atom_site_fract_z
 _atom_site_charge
 Al 0.0 0.75 0.75   1.722159
 Al 0.0 0.25 0.25   1.722159
 Al 0.0 0.75 0.25   1.722159
 Al 0.0 0.25 0.75   1.722159
 Al 0.5 0.75 0.75   1.671082
 Al 0.5 0.25 0.25   1.671082
 Al 0.5 0.75 0.25   1.671082
 Al 0.5 0.25 0.75   1.671082
 H 0.47 0.79 0.94   0.121563
 H 0.061 0.678 0.88   0.111789
 H 0.35 0.63 0.94   0.112439
 H 0.47 0.21 0.06   0.121563
 H 0.061 0.322 0.12   0.111789
 H 0.35 0.37 0.06   0.112439
 H 0.47 0.56 0.29   0.121563
 H 0.061 0.62 0.178   0.111789
 H 0.35 0.56 0.13   0.112439
 H 0.47 0.44 0.71   0.121563
 H 0.061 0.38 0.822   0.111789
 H 0.35 0.44 0.87   0.112439
 H 0.53 0.71 0.44   0.121563
 H 0.939 0.822 0.38   0.111789
 H 0.65 0.87 0.44   0.112439
 H 0.53 0.29 0.56   0.121563
 H 0.939 0.178 0.62   0.111789
 H 0.65 0.13 0.56   0.112439
 H 0.53 0.94 0.79   0.121563
 H 0.939 0.88 0.678   0.111789
 H 0.65 0.94 0.63   0.112439
 H 0.53 0.06 0.21   0.121563
 H 0.939 0.12 0.322   0.111789
 H 0.65 0.06 0.37   0.112439
 H 0.53 0.71 0.56   0.121563
 H 0.939 0.822 0.62   0.111789
 H 0.65 0.87 0.56   0.112442
 H 0.53 0.29 0.44   0.121563
 H 0.939 0.178 0.38   0.111789
 H 0.65 0.13 0.44   0.112442
 H 0.53 0.94 0.21   0.121563
 H 0.939 0.88 0.322   0.111789
 H 0.65 0.94 0.37   0.112442
 H 0.53 0.06 0.79   0.121563
 H 0.939 0.12 0.678   0.111789
 H 0.65 0.06 0.63   0.112442
 H 0.47 0.79 0.06   0.121563
 H 0.061 0.678 0.12   0.111789
 H 0.35 0.63 0.06   0.112442
 H 0.47 0.21 0.94   0.121563
 H 0.061 0.322 0.88   0.111789
 H 0.35 0.37 0.94   0.112442
 H 0.47 0.56 0.71   0.121563
 H 0.061 0.62 0.822   0.111789
 H 0.35 0.56 0.87   0.112442
 H 0.47 0.44 0.29   0.121563
 H 0.061 0.38 0.178   0.111789
 H 0.35 0.44 0.13   0.112442
 C 0.73 0.747 0.861   0.737316
 C 0.74 0.743 0.932   -0.14149
 C 0.903 0.711 0.966   0.057672
 C 0.59 0.77 0.966   -0.061415
 C 0.061 0.678 0.932   -0.124795
 C 0.228 0.65 0.966   -0.082491
 C 0.73 0.253 0.139   0.737316
 C 0.74 0.257 0.068   -0.14149
 C 0.903 0.289 0.034   0.057672
 C 0.59 0.23 0.034   -0.061415
 C 0.061 0.322 0.068   -0.124795
 C 0.228 0.35 0.034   -0.082491
 C 0.73 0.639 0.247   0.737316
 C 0.74 0.568 0.243   -0.14149
 C 0.903 0.534 0.211   0.057672
 C 0.59 0.534 0.27   -0.061415
 C 0.061 0.568 0.178   -0.124795
 C 0.228 0.534 0.15   -0.082491
 C 0.73 0.361 0.753   0.737316
 C 0.74 0.432 0.757   -0.14149
 C 0.903 0.466 0.789   0.057672
 C 0.59 0.466 0.73   -0.061415
 C 0.061 0.432 0.822   -0.124795
 C 0.228 0.466 0.85   -0.082491
 C 0.27 0.753 0.361   0.737316
 C 0.26 0.757 0.432   -0.14149
 C 0.097 0.789 0.466   0.057672
 C 0.41 0.73 0.466   -0.061415
 C 0.939 0.822 0.432   -0.124795
 C 0.772 0.85 0.466   -0.082491
 C 0.27 0.247 0.639   0.737316
 C 0.26 0.243 0.568   -0.14149
 C 0.097 0.211 0.534   0.057672
 C 0.41 0.27 0.534   -0.061415
 C 0.939 0.178 0.568   -0.124795
 C 0.772 0.15 0.534   -0.082491
 C 0.27 0.861 0.747   0.737316
 C 0.26 0.932 0.743   -0.14149
 C 0.097 0.966 0.711   0.057672
 C 0.41 0.966 0.77   -0.061415
 C 0.939 0.932 0.678   -0.124795
 C 0.772 0.966 0.65   -0.082491
 C 0.27 0.139 0.253   0.737316
 C 0.26 0.068 0.257   -0.14149
 C 0.097 0.034 0.289   0.057672
 C 0.41 0.034 0.23   -0.061415
 C 0.939 0.068 0.322   -0.124795
 C 0.772 0.034 0.35   -0.082491
 C 0.27 0.753 0.639   0.737316
 C 0.26 0.757 0.568   -0.14149
 C 0.097 0.789 0.534   0.057672
 C 0.41 0.73 0.534   -0.061416
 C 0.939 0.822 0.568   -0.124795
 C 0.772 0.85 0.534   -0.082489
 C 0.27 0.247 0.361   0.737316
 C 0.26 0.243 0.432   -0.14149
 C 0.097 0.211 0.466   0.057672
 C 0.41 0.27 0.466   -0.061416
 C 0.939 0.178 0.432   -0.124795
 C 0.772 0.15 0.466   -0.082489
 C 0.27 0.861 0.253   0.737316
 C 0.26 0.932 0.257   -0.14149
 C 0.097 0.966 0.289   0.057672
 C 0.41 0.966 0.23   -0.061416
 C 0.939 0.932 0.322   -0.124795
 C 0.772 0.966 0.35   -0.082489
 C 0.27 0.139 0.747   0.737316
 C 0.26 0.068 0.743   -0.14149
 C 0.097 0.034 0.711   0.057672
 C 0.41 0.034 0.77   -0.061416
 C 0.939 0.068 0.678   -0.124795
 C 0.772 0.034 0.65   -0.082489
 C 0.73 0.747 0.139   0.737316
 C 0.74 0.743 0.068   -0.14149
 C 0.903 0.711 0.034   0.057672
 C 0.59 0.77 0.034   -0.061416
 C 0.061 0.678 0.068   -0.124795
 C 0.228 0.65 0.034   -0.082489
 C 0.73 0.253 0.861   0.737316
 C 0.74 0.257 0.932   -0.14149
 C 0.903 0.289 0.966   0.057672
 C 0.59 0.23 0.966   -0.061416
 C 0.061 0.322 0.932   -0.124795
 C 0.228 0.35 0.966   -0.082489
 C 0.73 0.639 0.753   0.737316
 C 0.74 0.568 0.757   -0.14149
 C 0.903 0.534 0.789   0.057672
 C 0.59 0.534 0.73   -0.061416
 C 0.061 0.568 0.822   -0.124795
 C 0.228 0.534 0.85   -0.082489
 C 0.73 0.361 0.247   0.737316
 C 0.74 0.432 0.243   -0.14149
 C 0.903 0.466 0.211   0.057672
 C 0.59 0.466 0.27   -0.061416
 C 0.061 0.432 0.178   -0.124795
 C 0.228 0.466 0.15   -0.082489
 O 0.883 0.752 0.829   -0.642168
 O 0.553 0.749 0.835   -0.59459
 O 0.883 0.248 0.171   -0.642168
 O 0.553 0.251 0.165   -0.59459
 O 0.883 0.671 0.252   -0.642168
 O 0.553 0.665 0.249   -0.59459
 O 0.883 0.329 0.748   -0.642168
 O 0.553 0.335 0.751   -0.59459
 O 0.117 0.748 0.329   -0.642168
 O 0.447 0.751 0.335   -0.59459
 O 0.117 0.252 0.671   -0.642168
 O 0.447 0.249 0.665   -0.59459
 O 0.117 0.829 0.752   -0.642168
 O 0.447 0.835 0.749   -0.59459
 O 0.117 0.171 0.248   -0.642168
 O 0.447 0.165 0.251   -0.59459
 O 0.117 0.748 0.671   -0.642168
 O 0.447 0.751 0.665   -0.59459
 O 0.117 0.252 0.329   -0.642168
 O 0.447 0.249 0.335   -0.59459
 O 0.117 0.829 0.248   -0.642168
 O 0.447 0.835 0.251   -0.59459
 O 0.117 0.171 0.752   -0.642168
 O 0.447 0.165 0.749   -0.59459
 O 0.883 0.752 0.171   -0.642168
 O 0.553 0.749 0.165   -0.59459
 O 0.883 0.248 0.829   -0.642168
 O 0.553 0.251 0.835   -0.59459
 O 0.883 0.671 0.748   -0.642168
 O 0.553 0.665 0.751   -0.59459
 O 0.883 0.329 0.252   -0.642168
 O 0.553 0.335 0.249   -0.59459
 O 0.715 0.781 0.719   -0.684283
 O 0.715 0.219 0.281   -0.684283
 O 0.715 0.781 0.281   -0.684283
 O 0.715 0.219 0.719   -0.684283
 O 0.285 0.719 0.219   -0.684283
 O 0.285 0.281 0.781   -0.684283
 O 0.285 0.719 0.781   -0.684283
 O 0.285 0.281 0.219   -0.684283
