{'_ref': 'TBD', '_srcid': 'CAKYAQ_clean', 'submitters': [{'name': 'Dalar Nazarian Jeff Camp and David Sholl', 'email': 'dalar@gatech.edu jcamp6@gatech.edu'}], '_method': 'VASP DFT with PBE;DDEC'}
data_ZnSiH24C32(N2F3)2
_symmetry_space_group_name_H-M   'P 1'
_cell_length_a   15.09370029
_cell_length_b   17.32800001
_cell_length_c   17.32800000
_cell_angle_alpha   79.06560056
_cell_angle_beta   64.18110012
_cell_angle_gamma   64.18109944
_symmetry_Int_Tables_number   1
_chemical_formula_structural   ZnSiH24C32(N2F3)2
_chemical_formula_sum   'Zn2 Si2 H48 C64 N8 F12'
_cell_volume   3672.37179044
_cell_formula_units_Z   2
loop_
 _symmetry_equiv_pos_site_id
 _symmetry_equiv_pos_as_xyz
  1  'x, y, z'
loop_
 _atom_site_label
 _atom_site_fract_x
 _atom_site_fract_y
 _atom_site_fract_z
 _atom_site_charge
 Zn 0.75 0.0 0.0   0.781542
 Zn 0.25 0.0 0.0   0.781542
 Si 0.0 0.0 0.0   1.822307
 Si 0.5 0.0 0.0   1.822307
 H 0.9667 0.8509 0.9285   0.08889
 H 0.0468 0.7011 0.9237   0.138749
 H 0.0584 0.5762 0.8768   0.107013
 H 0.7461 0.1491 0.0715   0.090275
 H 0.6716 0.2989 0.0763   0.139528
 H 0.5114 0.4238 0.1232   0.108018
 H 0.8952 0.0715 0.8509   0.090796
 H 0.9705 0.0763 0.7011   0.138182
 H 0.9352 0.1232 0.5762   0.106779
 H 0.8176 0.9285 0.1491   0.089751
 H 0.7479 0.9237 0.2989   0.139297
 H 0.6346 0.8768 0.4238   0.107437
 H 0.7539 0.9285 0.8509   0.090275
 H 0.8284 0.9237 0.7011   0.139528
 H 0.9886 0.8768 0.5762   0.108018
 H 0.5333 0.0715 0.1491   0.08889
 H 0.4532 0.0763 0.2989   0.138749
 H 0.4416 0.1232 0.4238   0.107013
 H 0.6824 0.8509 0.0715   0.089751
 H 0.7521 0.7011 0.0763   0.139297
 H 0.8654 0.5762 0.1232   0.107438
 H 0.6048 0.1491 0.9285   0.090796
 H 0.5295 0.2989 0.9237   0.138182
 H 0.5648 0.4238 0.8768   0.106779
 H 0.0333 0.1491 0.0715   0.08889
 H 0.9532 0.2989 0.0763   0.138749
 H 0.9416 0.4238 0.1232   0.107013
 H 0.2539 0.8509 0.9285   0.090275
 H 0.3284 0.7011 0.9237   0.139528
 H 0.4886 0.5762 0.8768   0.108018
 H 0.1048 0.9285 0.1491   0.090796
 H 0.0295 0.9237 0.2989   0.138182
 H 0.0648 0.8768 0.4238   0.106779
 H 0.1824 0.0715 0.8509   0.089751
 H 0.2521 0.0763 0.7011   0.139296
 H 0.3654 0.1232 0.5762   0.107437
 H 0.2461 0.0715 0.1491   0.090275
 H 0.1716 0.0763 0.2989   0.139528
 H 0.0114 0.1232 0.4238   0.108018
 H 0.4667 0.9285 0.8509   0.08889
 H 0.5468 0.9237 0.7011   0.138749
 H 0.5584 0.8768 0.5762   0.107013
 H 0.3176 0.1491 0.9285   0.089751
 H 0.2479 0.2989 0.9237   0.139297
 H 0.1346 0.4238 0.8768   0.107438
 H 0.3952 0.8509 0.0715   0.090796
 H 0.4705 0.7011 0.0763   0.138182
 H 0.4352 0.5762 0.1232   0.10678
 C 0.9227 0.81989 0.95811   0.177809
 C 0.97187 0.73022 0.95524   -0.226825
 C 0.0337 0.5459 0.9277   -0.121306
 C 0.7007 0.18011 0.04189   0.17707
 C 0.65733 0.26978 0.04476   -0.225248
 C 0.5073 0.4541 0.0723   -0.122935
 C 0.88081 0.04189 0.81989   0.173925
 C 0.92711 0.04476 0.73022   -0.22586
 C 0.9614 0.0723 0.5459   -0.118886
 C 0.74259 0.95811 0.18011   0.178923
 C 0.70209 0.95524 0.26978   -0.225964
 C 0.5796 0.9277 0.4541   -0.120746
 C 0.7993 0.95811 0.81989   0.17707
 C 0.84267 0.95524 0.73022   -0.225249
 C 0.9927 0.9277 0.5459   -0.122935
 C 0.5773 0.04189 0.18011   0.177809
 C 0.52813 0.04476 0.26978   -0.226825
 C 0.4663 0.0723 0.4541   -0.121307
 C 0.75741 0.81989 0.04189   0.178923
 C 0.79791 0.73022 0.04476   -0.225965
 C 0.9204 0.5459 0.0723   -0.120746
 C 0.61919 0.18011 0.95811   0.173925
 C 0.57289 0.26978 0.95524   -0.22586
 C 0.5386 0.4541 0.9277   -0.118886
 C 0.0773 0.18011 0.04189   0.177809
 C 0.02813 0.26978 0.04476   -0.226825
 C 0.9663 0.4541 0.0723   -0.121312
 C 0.2993 0.81989 0.95811   0.17707
 C 0.34267 0.73022 0.95524   -0.225248
 C 0.4927 0.5459 0.9277   -0.12294
 C 0.11919 0.95811 0.18011   0.173925
 C 0.07289 0.95524 0.26978   -0.22586
 C 0.0386 0.9277 0.4541   -0.118891
 C 0.25741 0.04189 0.81989   0.178923
 C 0.29791 0.04476 0.73022   -0.225964
 C 0.4204 0.0723 0.5459   -0.120751
 C 0.2007 0.04189 0.18011   0.17707
 C 0.15733 0.04476 0.26978   -0.225249
 C 0.0073 0.0723 0.4541   -0.12294
 C 0.4227 0.95811 0.81989   0.177809
 C 0.47187 0.95524 0.73022   -0.226825
 C 0.5337 0.9277 0.5459   -0.121312
 C 0.24259 0.18011 0.95811   0.178923
 C 0.20209 0.26978 0.95524   -0.225965
 C 0.0796 0.4541 0.9277   -0.120751
 C 0.38081 0.81989 0.04189   0.173925
 C 0.42711 0.73022 0.04476   -0.22586
 C 0.4614 0.5459 0.0723   -0.118891
 C 0.90731 0.68538 0.0   0.116601
 C 0.95514 0.58972 0.0   0.038828
 C 0.59269 0.31462 0.0   0.115192
 C 0.54486 0.41028 0.0   0.03826
 C 0.90731 0.0 0.68538   0.115192
 C 0.95514 0.0 0.58972   0.03826
 C 0.59269 0.0 0.31462   0.116601
 C 0.54486 0.0 0.41028   0.038828
 C 0.09269 0.31462 0.0   0.116601
 C 0.04486 0.41028 0.0   0.03883
 C 0.40731 0.68538 0.0   0.115191
 C 0.45514 0.58972 0.0   0.038261
 C 0.09269 0.0 0.31462   0.115191
 C 0.04486 0.0 0.41028   0.038261
 C 0.40731 0.0 0.68538   0.116601
 C 0.45514 0.0 0.58972   0.03883
 N 0.81787 0.86426 0.0   -0.310311
 N 0.68213 0.13574 0.0   -0.30668
 N 0.81787 0.0 0.86426   -0.30668
 N 0.68213 0.0 0.13574   -0.310311
 N 0.18213 0.13574 0.0   -0.310311
 N 0.31787 0.86426 0.0   -0.30668
 N 0.18213 0.0 0.13574   -0.30668
 N 0.31787 0.0 0.86426   -0.310311
 F 0.92723 0.05492 0.09062   -0.578911
 F 0.07277 0.94508 0.90938   -0.578911
 F 0.01785 0.90938 0.05492   -0.579326
 F 0.98215 0.09062 0.94508   -0.579326
 F 0.42723 0.09062 0.05492   -0.578911
 F 0.57277 0.90938 0.94508   -0.578911
 F 0.51785 0.05492 0.90938   -0.579326
 F 0.48215 0.94508 0.09062   -0.579326
 F 0.8866 0.0 0.0   -0.500239
 F 0.6134 0.0 0.0   -0.500239
 F 0.1134 0.0 0.0   -0.500239
 F 0.3866 0.0 0.0   -0.500239
