{'_ref': 'TBD', '_srcid': 'CAKYAQ_clean', 'submitters': [{'name': 'Dalar Nazarian Jeff Camp and David Sholl', 'email': 'dalar@gatech.edu jcamp6@gatech.edu'}], '_method': 'VASP DFT with PBE;DDEC'}
data_Fe3H6C18O13
_symmetry_space_group_name_H-M   'P 1'
_cell_length_a   7.10620007
_cell_length_b   9.73669959
_cell_length_c   9.85900000
_cell_angle_alpha   60.40949856
_cell_angle_beta   84.15150408
_cell_angle_gamma   78.09110367
_symmetry_Int_Tables_number   1
_chemical_formula_structural   Fe3H6C18O13
_chemical_formula_sum   'Fe3 H6 C18 O13'
_cell_volume   580.41765805
_cell_formula_units_Z   1
loop_
 _symmetry_equiv_pos_site_id
 _symmetry_equiv_pos_as_xyz
  1  'x, y, z'
loop_
 _atom_site_label
 _atom_site_fract_x
 _atom_site_fract_y
 _atom_site_fract_z
 _atom_site_charge
 Fe 0.43161 0.35685 0.6769   1.209654
 Fe 0.56839 0.96625 0.6769   1.209353
 Fe 0.0 0.33639 0.32722   1.055531
 H 0.2841 0.1571 0.092   0.094581
 H 0.2515 0.7538 0.4988   0.096306
 H 0.211 0.7585 0.0934   0.107966
 H 0.7159 0.7509 0.092   0.094495
 H 0.7485 0.7474 0.4988   0.096344
 H 0.789 0.1481 0.0934   0.108698
 C 0.2743 0.9682 0.309   -0.202282
 C 0.2156 0.7318 0.3098   -0.20416
 C 0.2558 0.9667 0.0678   -0.201803
 C 0.2733 0.0492 0.1472   0.043453
 C 0.2827 0.0438 0.8944   0.724548
 C 0.2477 0.8088 0.3904   0.05163
 C 0.1768 0.565 0.395   0.706134
 C 0.3214 0.0451 0.3992   0.709497
 C 0.2253 0.8111 0.148   0.052406
 C 0.7257 0.7228 0.309   -0.202243
 C 0.7844 0.9584 0.3098   -0.204825
 C 0.7442 0.9655 0.0678   -0.202628
 C 0.7267 0.8036 0.1472   0.043444
 C 0.7173 0.0618 0.8944   0.725674
 C 0.7523 0.8008 0.3904   0.05171
 C 0.8232 0.04 0.395   0.707705
 C 0.6786 0.5557 0.3992   0.709021
 C 0.7747 0.0409 0.148   0.052241
 O 0.1746 0.4922 0.5434   -0.594947
 O 0.3987 0.952 0.5298   -0.572501
 O 0.2841 0.1961 0.339   -0.546833
 O 0.2578 0.194 0.8164   -0.593462
 O 0.1456 0.5057 0.313   -0.55459
 O 0.3325 0.9533 0.8356   -0.589212
 O 0.8254 0.9644 0.5434   -0.595428
 O 0.6013 0.5182 0.5298   -0.572442
 O 0.7159 0.4649 0.339   -0.54657
 O 0.7422 0.9896 0.8164   -0.593666
 O 0.8544 0.1813 0.313   -0.5554
 O 0.6675 0.2111 0.8356   -0.589803
 O 0.5 0.2362 0.5276   -0.527595
