{'_ref': 'TBD', '_srcid': 'CAKYAQ_clean', 'submitters': [{'name': 'Dalar Nazarian Jeff Camp and David Sholl', 'email': 'dalar@gatech.edu jcamp6@gatech.edu'}], '_method': 'VASP DFT with PBE;DDEC'}
data_Co3H42C52(N4O7)2
_symmetry_space_group_name_H-M   'P 1'
_cell_length_a   10.85000019
_cell_length_b   11.53400005
_cell_length_c   13.60800000
_cell_angle_alpha   66.17000241
_cell_angle_beta   81.40000270
_cell_angle_gamma   63.15000213
_symmetry_Int_Tables_number   1
_chemical_formula_structural   Co3H42C52(N4O7)2
_chemical_formula_sum   'Co3 H42 C52 N8 O14'
_cell_volume   1388.7043604
_cell_formula_units_Z   1
loop_
 _symmetry_equiv_pos_site_id
 _symmetry_equiv_pos_as_xyz
  1  'x, y, z'
loop_
 _atom_site_label
 _atom_site_fract_x
 _atom_site_fract_y
 _atom_site_fract_z
 _atom_site_charge
 Co 0.44208 0.07515 0.79178   0.944782
 Co 0.55792 0.92485 0.20822   0.944782
 Co 0.0 0.0 0.0   0.742064
 H 0.1599 0.3107 0.7872   0.074722
 H 0.9683 0.4661 0.6748   0.114587
 H 0.2031 0.4044 0.4298   0.132372
 H 0.385 0.2486 0.549   0.091718
 H 0.825 0.3305 0.9127   0.073852
 H 0.822 0.5283 0.9133   0.121688
 H 0.185 0.2924 0.0754   0.114105
 H 0.1791 0.1012 0.0694   0.077475
 H 0.8558 0.0838 0.1935   0.07179
 H 0.8732 0.0104 0.3751   0.128459
 H 0.2235 0.6788 0.3762   0.132871
 H 0.1961 0.7629 0.1937   0.066954
 H 0.9006 0.7807 0.7332   0.053971
 H 0.8674 0.8702 0.5505   0.139645
 H 0.2771 0.6787 0.5314   0.142527
 H 0.2934 0.5966 0.7152   0.070918
 H 0.544 0.6638 0.8701   0.144535
 H 0.3836 0.7191 0.8722   0.146966
 H 0.5893 0.6153 0.0514   0.151864
 H 0.4346 0.6415 0.0719   0.151465
 H 0.5624 0.8763 0.972   0.393591
 H 0.8401 0.6893 0.2128   0.074721
 H 0.0317 0.5339 0.3252   0.114628
 H 0.7969 0.5956 0.5702   0.132418
 H 0.615 0.7514 0.451   0.091714
 H 0.175 0.6695 0.0873   0.073857
 H 0.178 0.4717 0.0867   0.121698
 H 0.815 0.7076 0.9246   0.114115
 H 0.8209 0.8988 0.9306   0.077474
 H 0.1442 0.9162 0.8065   0.071785
 H 0.1268 0.9896 0.6249   0.128459
 H 0.7765 0.3212 0.6238   0.13287
 H 0.8039 0.2371 0.8063   0.066961
 H 0.0994 0.2193 0.2668   0.053978
 H 0.1326 0.1298 0.4495   0.139643
 H 0.7229 0.3213 0.4686   0.142526
 H 0.7066 0.4034 0.2848   0.07091
 H 0.456 0.3362 0.1299   0.144528
 H 0.6164 0.2809 0.1278   0.146956
 H 0.4107 0.3847 0.9486   0.151851
 H 0.5654 0.3585 0.9281   0.151453
 H 0.4376 0.1237 0.028   0.393584
 C 0.1683 0.3277 0.7143   0.199986
 C 0.0522 0.4223 0.6467   -0.207711
 C 0.0612 0.4516 0.5377   0.089161
 C 0.1901 0.3856 0.5028   -0.19355
 C 0.2994 0.2923 0.5751   0.192601
 C 0.8987 0.3222 0.9464   0.155907
 C 0.896 0.442 0.947   -0.190763
 C 0.0019 0.4362 0.997   0.093885
 C 0.1093 0.3036 0.042   -0.169636
 C 0.1051 0.1883 0.0379   0.176289
 C 0.9307 0.000500000000002 0.2307   0.170538
 C 0.941 0.9574 0.3402   -0.181918
 C 0.0523 0.835 0.3992   0.086692
 C 0.1473 0.7622 0.3411   -0.190897
 C 0.1292 0.8131 0.2309   0.170955
 C 0.978 0.7597 0.6919   0.184086
 C 0.9564 0.8138 0.5815   -0.221817
 C 0.0691 0.7827 0.5183   0.083757
 C 0.1975 0.7011 0.5703   -0.200047
 C 0.2059 0.6529 0.6817   0.21747
 C 0.4456 0.8429 0.7387   0.746888
 C 0.4578 0.748 0.8583   -0.435915
 C 0.454 0.8055 0.9431   0.267965
 C 0.4971 0.6857 0.0541   -0.437162
 C 0.496 0.7357 0.1428   0.723162
 C 0.3075 0.9216 0.9436   0.554259
 C 0.8317 0.6723 0.2857   0.199994
 C 0.9478 0.5777 0.3533   -0.207721
 C 0.9388 0.5484 0.4623   0.089232
 C 0.8099 0.6144 0.4972   -0.193565
 C 0.7006 0.7077 0.4249   0.19261
 C 0.1013 0.6778 0.0536   0.155908
 C 0.104 0.558 0.053   -0.190766
 C 0.9981 0.5638 0.003   0.093898
 C 0.8907 0.6964 0.958   -0.169641
 C 0.8949 0.8117 0.9621   0.17629
 C 0.0693 0.9995 0.7693   0.170538
 C 0.059 0.0426 0.6598   -0.181916
 C 0.9477 0.165 0.6008   0.086699
 C 0.8527 0.2378 0.6589   -0.190893
 C 0.8708 0.1869 0.7691   0.170956
 C 0.022 0.2403 0.3081   0.184081
 C 0.0436 0.1862 0.4185   -0.221808
 C 0.9309 0.2173 0.4817   0.083757
 C 0.8025 0.2989 0.4297   -0.200047
 C 0.7941 0.3471 0.3183   0.217472
 C 0.5544 0.1571 0.2613   0.746887
 C 0.5422 0.252 0.1417   -0.435909
 C 0.546 0.1945 0.0569   0.267962
 C 0.5029 0.3143 0.9459   -0.437153
 C 0.504 0.2643 0.8572   0.72316
 C 0.6925 0.0784 0.0564   0.554259
 N 0.2902 0.2603 0.6809   -0.362631
 N 0.0024 0.1932 0.9921   -0.319461
 N 0.022 0.9297 0.1746   -0.33581
 N 0.1003 0.6803 0.7432   -0.428821
 N 0.7098 0.7397 0.3191   -0.362634
 N 0.9976 0.8068 0.0079   -0.319461
 N 0.978 0.0703 0.8254   -0.335811
 N 0.8997 0.3197 0.2568   -0.428821
 O 0.4387 0.9628 0.70871   -0.640673
 O 0.4445 0.7897 0.676   -0.619841
 O 0.5507 0.8656 0.9136   -0.57002
 O 0.2186 0.8838 0.99821   -0.524783
 O 0.2863 0.0455 0.8887   -0.534559
 O 0.4643 0.6777 0.235   -0.610515
 O 0.5293 0.8367 0.11345   -0.649029
 O 0.5613 0.0372 0.29129   -0.640676
 O 0.5555 0.2103 0.324   -0.619846
 O 0.4493 0.1344 0.0864   -0.570018
 O 0.7814 0.1162 0.00179   -0.524784
 O 0.7137 0.9545 0.1113   -0.534562
 O 0.5357 0.3223 0.765   -0.610519
 O 0.4707 0.1633 0.88655   -0.649031
