{'_ref': 'TBD', '_srcid': 'CAKYAQ_clean', 'submitters': [{'name': 'Dalar Nazarian Jeff Camp and David Sholl', 'email': 'dalar@gatech.edu jcamp6@gatech.edu'}], '_method': 'VASP DFT with PBE;DDEC'}
data_Mg3H14(C5O2)6
_symmetry_space_group_name_H-M   'P 1'
_cell_length_a   14.87300009
_cell_length_b   18.92930050
_cell_length_c   18.92930000
_cell_angle_alpha   113.39759980
_cell_angle_beta   105.18309989
_cell_angle_gamma   105.18299977
_symmetry_Int_Tables_number   1
_chemical_formula_structural   Mg3H14(C5O2)6
_chemical_formula_sum   'Mg9 H42 C90 O36'
_cell_volume   4298.70513512
_cell_formula_units_Z   3
loop_
 _symmetry_equiv_pos_site_id
 _symmetry_equiv_pos_as_xyz
  1  'x, y, z'
loop_
 _atom_site_label
 _atom_site_fract_x
 _atom_site_fract_y
 _atom_site_fract_z
 _atom_site_charge
 Mg 0.09877 0.71502 0.67423   1.610607
 Mg 0.42454 0.32577 0.04079   1.610208
 Mg 0.38375 0.95921 0.28498   1.610781
 Mg 0.90123 0.28498 0.32577   1.610607
 Mg 0.57546 0.67423 0.95921   1.610208
 Mg 0.61625 0.04079 0.71502   1.610781
 Mg 0.0 0.5 0.5   1.544193
 Mg 0.5 0.5 0.0   1.54636
 Mg 0.5 0.0 0.5   1.544376
 H 0.2839 0.619 0.8097   0.100903
 H 0.1889 0.4011 0.8176   0.117672
 H 0.0041 0.4525 0.6552   0.107481
 H 0.0278 0.3387 0.8101   0.098409
 H 0.8725 0.2421 0.7774   0.07569
 H 0.7795 0.1836 0.5404   0.094029
 H 0.9323 0.2915 0.5924   0.046402
 H 0.4742 0.1903 0.8093   0.100463
 H 0.3713 0.1824 0.5835   0.117236
 H 0.3489 0.3448 0.7973   0.107458
 H 0.2177 0.1899 0.5286   0.097989
 H 0.0951 0.2226 0.4647   0.075403
 H 0.2391 0.4596 0.6432   0.094375
 H 0.3399 0.4076 0.6991   0.047364
 H 0.6649 0.1907 0.381   0.100485
 H 0.7878 0.4165 0.5989   0.117722
 H 0.5516 0.2027 0.5475   0.107806
 H 0.6891 0.4714 0.6613   0.098262
 H 0.6304 0.5353 0.7579   0.075284
 H 0.5959 0.3568 0.8164   0.094065
 H 0.6408 0.3009 0.7085   0.047256
 H 0.7161 0.381 0.1903   0.100903
 H 0.8111 0.5989 0.1824   0.117672
 H 0.9959 0.5475 0.3448   0.107481
 H 0.9722 0.6613 0.1899   0.098409
 H 0.1275 0.7579 0.2226   0.075691
 H 0.2205 0.8164 0.4596   0.094029
 H 0.0677 0.7085 0.4076   0.046402
 H 0.5258 0.8097 0.1907   0.100463
 H 0.6287 0.8176 0.4165   0.117236
 H 0.6511 0.6552 0.2027   0.107458
 H 0.7823 0.8101 0.4714   0.097989
 H 0.9049 0.7774 0.5353   0.075403
 H 0.7609 0.5404 0.3568   0.094375
 H 0.6601 0.5924 0.3009   0.047364
 H 0.3351 0.8093 0.619   0.100485
 H 0.2122 0.5835 0.4011   0.117722
 H 0.4484 0.7973 0.4525   0.107806
 H 0.3109 0.5286 0.3387   0.098262
 H 0.3696 0.4647 0.2421   0.075284
 H 0.4041 0.6432 0.1836   0.094065
 H 0.3592 0.6991 0.2915   0.047256
 C 0.14149 0.54425 0.73178   -0.157424
 C 0.23558 0.56868 0.79378   0.014571
 C 0.25302 0.51548 0.82382   -0.158351
 C 0.17361 0.43878 0.79378   -0.07605
 C 0.07801 0.41384 0.73202   0.02459
 C 0.06365 0.46591 0.69903   -0.045905
 C 0.12511 0.60475 0.70323   0.751915
 C 0.35835 0.54254 0.88709   0.794265
 C 0.99036 0.33483 0.70432   0.027024
 C 0.97466 0.31425 0.76333   -0.148791
 C 0.88749 0.24678 0.74089   0.0075
 C 0.81448 0.19775 0.65867   -0.189946
 C 0.83211 0.21626 0.59912   -0.062878
 C 0.91949 0.28396 0.62136   -0.019306
 C 0.71802 0.12729 0.63688   0.823031
 C 0.40971 0.26822 0.81247   -0.156148
 C 0.4418 0.20622 0.7749   0.016104
 C 0.4292 0.17618 0.69166   -0.161582
 C 0.37983 0.20622 0.645   -0.074022
 C 0.34599 0.26798 0.68182   0.024129
 C 0.36462 0.30097 0.76688   -0.046975
 C 0.42188 0.29677 0.90152   0.751346
 C 0.47126 0.11291 0.65545   0.795888
 C 0.28604 0.29568 0.63051   0.027352
 C 0.21133 0.23667 0.55092   -0.148531
 C 0.1466 0.25911 0.50589   0.00785
 C 0.15581 0.34133 0.53908   -0.192164
 C 0.23299 0.40088 0.61714   -0.061665
 C 0.29813 0.37864 0.6626   -0.020272
 C 0.08114 0.36312 0.49041   0.825135
 C 0.59724 0.18753 0.45575   -0.157396
 C 0.6669 0.2251 0.43132   0.016442
 C 0.73754 0.30834 0.48452   -0.159908
 C 0.73483 0.355 0.56122   -0.075867
 C 0.66417 0.31818 0.58616   0.026244
 C 0.59774 0.23312 0.53409   -0.047056
 C 0.52036 0.09848 0.39525   0.750747
 C 0.81581 0.34455 0.45746   0.793962
 C 0.65553 0.36949 0.66517   0.026638
 C 0.66041 0.44908 0.68575   -0.149067
 C 0.64071 0.49411 0.75322   0.009148
 C 0.61673 0.46092 0.80225   -0.191963
 C 0.61585 0.38286 0.78374   -0.062605
 C 0.63553 0.3374 0.71604   -0.02
 C 0.59073 0.50959 0.87271   0.825675
 C 0.85851 0.45575 0.26822   -0.157424
 C 0.76442 0.43132 0.20622   0.014571
 C 0.74698 0.48452 0.17618   -0.158352
 C 0.82639 0.56122 0.20622   -0.07605
 C 0.92199 0.58616 0.26798   0.02459
 C 0.93635 0.53409 0.30097   -0.045905
 C 0.87489 0.39525 0.29677   0.751915
 C 0.64165 0.45746 0.11291   0.794265
 C 0.00964 0.66517 0.29568   0.027024
 C 0.02534 0.68575 0.23667   -0.148791
 C 0.11251 0.75322 0.25911   0.0075
 C 0.18552 0.80225 0.34133   -0.189946
 C 0.16789 0.78374 0.40088   -0.062878
 C 0.08051 0.71604 0.37864   -0.019306
 C 0.28198 0.87271 0.36312   0.823031
 C 0.59029 0.73178 0.18753   -0.156148
 C 0.5582 0.79378 0.2251   0.016104
 C 0.5708 0.82382 0.30834   -0.161582
 C 0.62017 0.79378 0.355   -0.074022
 C 0.65401 0.73202 0.31818   0.024129
 C 0.63538 0.69903 0.23312   -0.046975
 C 0.57812 0.70323 0.09848   0.751346
 C 0.52874 0.88709 0.34455   0.795888
 C 0.71396 0.70432 0.36949   0.027352
 C 0.78867 0.76333 0.44908   -0.148531
 C 0.8534 0.74089 0.49411   0.00785
 C 0.84419 0.65867 0.46092   -0.192164
 C 0.76701 0.59912 0.38286   -0.061665
 C 0.70187 0.62136 0.3374   -0.020272
 C 0.91886 0.63688 0.50959   0.825135
 C 0.40276 0.81247 0.54425   -0.157396
 C 0.3331 0.7749 0.56868   0.016442
 C 0.26246 0.69166 0.51548   -0.159908
 C 0.26517 0.645 0.43878   -0.075867
 C 0.33583 0.68182 0.41384   0.026244
 C 0.40226 0.76688 0.46591   -0.047056
 C 0.47964 0.90152 0.60475   0.750747
 C 0.18419 0.65545 0.54254   0.793962
 C 0.34447 0.63051 0.33483   0.026638
 C 0.33959 0.55092 0.31425   -0.149067
 C 0.35929 0.50589 0.24678   0.009148
 C 0.38327 0.53908 0.19775   -0.191963
 C 0.38415 0.61714 0.21626   -0.062605
 C 0.36447 0.6626 0.28396   -0.02
 C 0.40927 0.49041 0.12729   0.825675
 O 0.05299 0.57969 0.63385   -0.80737
 O 0.18181 0.68221 0.75282   -0.740054
 O 0.37323 0.49503 0.9151   -0.693901
 O 0.42322 0.61275 0.90655   -0.811221
 O 0.65258 0.08448 0.56302   -0.692855
 O 0.71227 0.11834 0.69773   -0.862556
 O 0.41914 0.36615 0.94584   -0.807435
 O 0.42899 0.24718 0.92939   -0.739887
 O 0.45813 0.0849 0.57993   -0.693915
 O 0.51667 0.09345 0.7062   -0.811808
 O 0.08956 0.43698 0.52146   -0.693544
 O 0.01454 0.30227 0.42061   -0.863161
 O 0.4733 0.05416 0.42031   -0.807287
 O 0.4996 0.07061 0.31779   -0.739465
 O 0.8782 0.42007 0.50497   -0.693275
 O 0.81047 0.2938 0.38725   -0.811061
 O 0.5681 0.47854 0.91552   -0.69401
 O 0.59393 0.57939 0.88166   -0.863696
 O 0.94701 0.42031 0.36615   -0.80737
 O 0.81819 0.31779 0.24718   -0.740054
 O 0.62677 0.50497 0.0849   -0.693901
 O 0.57678 0.38725 0.09345   -0.811221
 O 0.34742 0.91552 0.43698   -0.692855
 O 0.28773 0.88166 0.30227   -0.862556
 O 0.58086 0.63385 0.05416   -0.807435
 O 0.57101 0.75282 0.07061   -0.739887
 O 0.54187 0.9151 0.42007   -0.693915
 O 0.48333 0.90655 0.2938   -0.811808
 O 0.91044 0.56302 0.47854   -0.693544
 O 0.98546 0.69773 0.57939   -0.863161
 O 0.5267 0.94584 0.57969   -0.807287
 O 0.5004 0.92939 0.68221   -0.739465
 O 0.1218 0.57993 0.49503   -0.693275
 O 0.18953 0.7062 0.61275   -0.811061
 O 0.4319 0.52146 0.08448   -0.69401
 O 0.40607 0.42061 0.11834   -0.863696
