{'_ref': 'TBD', '_srcid': 'CAKYAQ_clean', 'submitters': [{'name': 'Dalar Nazarian Jeff Camp and David Sholl', 'email': 'dalar@gatech.edu jcamp6@gatech.edu'}], '_method': 'VASP DFT with PBE;DDEC'}
data_CdH36C48N12ClO4
_symmetry_space_group_name_H-M   'P 1'
_cell_length_a   15.85910000
_cell_length_b   15.85910000
_cell_length_c   21.68500000
_cell_angle_alpha   90.00000000
_cell_angle_beta   90.00000000
_cell_angle_gamma   90.00000000
_symmetry_Int_Tables_number   1
_chemical_formula_structural   CdH36C48N12ClO4
_chemical_formula_sum   'Cd4 H144 C192 N48 Cl4 O16'
_cell_volume   5454.01718018
_cell_formula_units_Z   4
loop_
 _symmetry_equiv_pos_site_id
 _symmetry_equiv_pos_as_xyz
  1  'x, y, z'
loop_
 _atom_site_label
 _atom_site_fract_x
 _atom_site_fract_y
 _atom_site_fract_z
 _atom_site_charge
 Cd 0.44137 0.44137 0.0   0.794395
 Cd 0.55863 0.55863 0.5   0.794395
 Cd 0.05863 0.94137 0.25   0.794395
 Cd 0.94137 0.05863 0.75   0.794395
 H 0.3402 0.5597 0.9085   0.047253
 H 0.2336 0.6543 0.8938   0.127213
 H 0.1518 0.5992 0.0637   0.126172
 H 0.2639 0.5091 0.0744   0.061826
 H 0.0323 0.6627 0.0374   0.101568
 H 0.9341 0.7686 0.0293   0.100862
 H 0.9515 0.8758 0.9593   0.099893
 H 0.1729 0.7779 0.9071   0.087165
 H 0.2005 0.9928 0.7101   0.099949
 H 0.2976 0.0859 0.6664   0.099796
 H 0.3498 0.1986 0.7217   0.079908
 H 0.1986 0.1381 0.8628   0.117351
 H 0.4106 0.2879 0.784   0.118139
 H 0.4595 0.3896 0.85   0.067182
 H 0.2687 0.3601 0.9587   0.069392
 H 0.2154 0.2556 0.8983   0.123749
 H 0.233 0.9352 0.9231   0.329924
 H 0.267 0.9549 0.8625   0.327765
 H 0.6598 0.4403 0.4085   0.047253
 H 0.7664 0.3457 0.3938   0.127213
 H 0.8482 0.4008 0.5637   0.126172
 H 0.7361 0.4909 0.5744   0.061826
 H 0.9677 0.3373 0.5374   0.101568
 H 0.0659 0.2314 0.5293   0.100862
 H 0.0485 0.1242 0.4593   0.099893
 H 0.8271 0.2221 0.4071   0.087165
 H 0.7995 0.0072 0.2101   0.099949
 H 0.7024 0.9141 0.1664   0.099796
 H 0.6502 0.8014 0.2217   0.079908
 H 0.8014 0.8619 0.3628   0.117351
 H 0.5894 0.7121 0.284   0.118139
 H 0.5405 0.6104 0.35   0.067182
 H 0.7313 0.6399 0.4587   0.069392
 H 0.7846 0.7444 0.3983   0.123749
 H 0.767 0.0648 0.4231   0.329924
 H 0.733 0.0451 0.3625   0.327765
 H 0.9403 0.8402 0.1585   0.047252
 H 0.8457 0.7336 0.1438   0.127216
 H 0.9008 0.6518 0.3137   0.126172
 H 0.9909 0.7639 0.3244   0.061826
 H 0.8373 0.5323 0.2874   0.101568
 H 0.7314 0.4341 0.2793   0.100865
 H 0.6242 0.4515 0.2093   0.099893
 H 0.7221 0.6729 0.1571   0.087165
 H 0.5072 0.7005 0.9601   0.099949
 H 0.4141 0.7976 0.9164   0.099796
 H 0.3014 0.8498 0.9717   0.079908
 H 0.3619 0.6986 0.1128   0.117351
 H 0.2121 0.9106 0.034   0.118139
 H 0.1104 0.9595 0.1   0.067182
 H 0.1399 0.7687 0.2087   0.069392
 H 0.2444 0.7154 0.1483   0.123749
 H 0.5648 0.733 0.1731   0.329923
 H 0.5451 0.767 0.1125   0.327765
 H 0.0597 0.1598 0.6585   0.047252
 H 0.1543 0.2664 0.6438   0.127216
 H 0.0992 0.3482 0.8137   0.126172
 H 0.0091 0.2361 0.8244   0.061826
 H 0.1627 0.4677 0.7874   0.101568
 H 0.2686 0.5659 0.7793   0.100865
 H 0.3758 0.5485 0.7093   0.099893
 H 0.2779 0.3271 0.6571   0.087165
 H 0.4928 0.2995 0.4601   0.099949
 H 0.5859 0.2024 0.4164   0.099796
 H 0.6986 0.1502 0.4717   0.079908
 H 0.6381 0.3014 0.6128   0.117351
 H 0.7879 0.0894 0.534   0.118139
 H 0.8896 0.0405 0.6   0.067182
 H 0.8601 0.2313 0.7087   0.069392
 H 0.7556 0.2846 0.6483   0.123749
 H 0.4352 0.267 0.6731   0.329923
 H 0.4549 0.233 0.6125   0.327765
 H 0.1598 0.0597 0.3415   0.047252
 H 0.2664 0.1543 0.3562   0.127213
 H 0.3482 0.0992 0.1863   0.126171
 H 0.2361 0.0091 0.1756   0.061826
 H 0.4677 0.1627 0.2126   0.101568
 H 0.5659 0.2686 0.2207   0.100865
 H 0.5485 0.3758 0.2907   0.099892
 H 0.3271 0.2779 0.3429   0.087166
 H 0.2995 0.4928 0.5399   0.099951
 H 0.2024 0.5859 0.5836   0.099796
 H 0.1502 0.6986 0.5283   0.079908
 H 0.3014 0.6381 0.3872   0.117351
 H 0.0894 0.7879 0.466   0.118139
 H 0.0405 0.8896 0.4   0.067182
 H 0.2313 0.8601 0.2913   0.069392
 H 0.2846 0.7556 0.3517   0.123749
 H 0.267 0.4352 0.3269   0.329924
 H 0.233 0.4549 0.3875   0.327765
 H 0.8402 0.9403 0.8415   0.047252
 H 0.7336 0.8457 0.8562   0.127213
 H 0.6518 0.9008 0.6863   0.126171
 H 0.7639 0.9909 0.6756   0.061826
 H 0.5323 0.8373 0.7126   0.101568
 H 0.4341 0.7314 0.7207   0.100865
 H 0.4515 0.6242 0.7907   0.099892
 H 0.6729 0.7221 0.8429   0.087166
 H 0.7005 0.5072 0.0399   0.099951
 H 0.7976 0.4141 0.0836   0.099796
 H 0.8498 0.3014 0.0283   0.079908
 H 0.6986 0.3619 0.8872   0.117351
 H 0.9106 0.2121 0.966   0.118139
 H 0.9595 0.1104 0.9   0.067182
 H 0.7687 0.1399 0.7913   0.069392
 H 0.7154 0.2444 0.8517   0.123749
 H 0.733 0.5648 0.8269   0.329924
 H 0.767 0.5451 0.8875   0.327765
 H 0.5597 0.3402 0.0915   0.047252
 H 0.6543 0.2336 0.1062   0.127216
 H 0.5992 0.1518 0.9363   0.126171
 H 0.5091 0.2639 0.9256   0.061826
 H 0.6627 0.0323 0.9626   0.101568
 H 0.7686 0.9341 0.9707   0.100867
 H 0.8758 0.9515 0.0407   0.099892
 H 0.7779 0.1729 0.0929   0.087166
 H 0.9928 0.2005 0.2899   0.099951
 H 0.0859 0.2976 0.3336   0.099796
 H 0.1986 0.3498 0.2783   0.079908
 H 0.1381 0.1986 0.1372   0.117351
 H 0.2879 0.4106 0.216   0.118139
 H 0.3896 0.4595 0.15   0.067182
 H 0.3601 0.2687 0.0413   0.069392
 H 0.2556 0.2154 0.1017   0.123749
 H 0.9352 0.233 0.0769   0.329923
 H 0.9549 0.267 0.1375   0.327765
 H 0.4403 0.6598 0.5915   0.047252
 H 0.3457 0.7664 0.6062   0.127216
 H 0.4008 0.8482 0.4363   0.126171
 H 0.4909 0.7361 0.4256   0.061826
 H 0.3373 0.9677 0.4626   0.101568
 H 0.2314 0.0659 0.4707   0.100867
 H 0.1242 0.0485 0.5407   0.099892
 H 0.2221 0.8271 0.5929   0.087166
 H 0.0072 0.7995 0.7899   0.099951
 H 0.9141 0.7024 0.8336   0.099796
 H 0.8014 0.6502 0.7783   0.079908
 H 0.8619 0.8014 0.6372   0.117351
 H 0.7121 0.5894 0.716   0.118139
 H 0.6104 0.5405 0.65   0.067182
 H 0.6399 0.7313 0.5413   0.069392
 H 0.7444 0.7846 0.6017   0.123749
 H 0.0648 0.767 0.5769   0.329923
 H 0.0451 0.733 0.6375   0.327765
 C 0.3021 0.5685 0.9404   0.173465
 C 0.2383 0.6257 0.9311   -0.226121
 C 0.1805 0.6405 0.9788   0.093847
 C 0.1903 0.5936 0.0316   -0.21148
 C 0.2574 0.538 0.0374   0.171912
 C 0.1143 0.7071 0.9722   0.006693
 C 0.0408 0.7063 0.0094   -0.123133
 C 0.9818 0.7697 0.0044   -0.079161
 C 0.9926 0.8343 0.9633   -0.104422
 C 0.0661 0.8375 0.9269   -0.005966
 C 0.1248 0.7753 0.9315   -0.126721
 C 0.0742 0.9073 0.8832   0.218015
 C 0.1263 0.0022 0.8207   0.231084
 C 0.1881 0.0582 0.7906   -0.035434
 C 0.2189 0.04 0.7316   -0.116551
 C 0.2783 0.0953 0.7062   -0.084826
 C 0.309 0.1639 0.7392   -0.097328
 C 0.2793 0.1809 0.7978   0.016516
 C 0.2188 0.1274 0.8233   -0.125752
 C 0.3093 0.2543 0.8353   0.08276
 C 0.3818 0.299 0.8204   -0.205906
 C 0.4106 0.3606 0.8607   0.170421
 C 0.2993 0.3429 0.9243   0.134226
 C 0.2665 0.2805 0.8878   -0.189462
 C 0.6979 0.4315 0.4404   0.173465
 C 0.7617 0.3743 0.4311   -0.226121
 C 0.8195 0.3595 0.4788   0.093847
 C 0.8097 0.4064 0.5316   -0.21148
 C 0.7426 0.462 0.5374   0.171912
 C 0.8857 0.2929 0.4722   0.006693
 C 0.9592 0.2937 0.5094   -0.123133
 C 0.0182 0.2303 0.5044   -0.079161
 C 0.0074 0.1657 0.4633   -0.104422
 C 0.9339 0.1625 0.4269   -0.005966
 C 0.8752 0.2247 0.4315   -0.126721
 C 0.9258 0.0927 0.3832   0.218015
 C 0.8737 0.9978 0.3207   0.231084
 C 0.8119 0.9418 0.2906   -0.035434
 C 0.7811 0.96 0.2316   -0.116551
 C 0.7217 0.9047 0.2062   -0.084826
 C 0.691 0.8361 0.2392   -0.097328
 C 0.7207 0.8191 0.2978   0.016516
 C 0.7812 0.8726 0.3233   -0.125752
 C 0.6907 0.7457 0.3353   0.08276
 C 0.6182 0.701 0.3204   -0.205906
 C 0.5894 0.6394 0.3607   0.170421
 C 0.7007 0.6571 0.4243   0.134226
 C 0.7335 0.7195 0.3878   -0.189462
 C 0.9315 0.8021 0.1904   0.173466
 C 0.8743 0.7383 0.1811   -0.226121
 C 0.8595 0.6805 0.2288   0.093848
 C 0.9064 0.6903 0.2816   -0.211479
 C 0.962 0.7574 0.2874   0.171912
 C 0.7929 0.6143 0.2222   0.006694
 C 0.7937 0.5408 0.2594   -0.123133
 C 0.7303 0.4818 0.2544   -0.079162
 C 0.6657 0.4926 0.2133   -0.104422
 C 0.6625 0.5661 0.1769   -0.005967
 C 0.7247 0.6248 0.1815   -0.126721
 C 0.5927 0.5742 0.1332   0.218015
 C 0.4978 0.6263 0.0707   0.231084
 C 0.4418 0.6881 0.0406   -0.035434
 C 0.46 0.7189 0.9816   -0.116551
 C 0.4047 0.7783 0.9562   -0.084826
 C 0.3361 0.809 0.9892   -0.097328
 C 0.3191 0.7793 0.0478   0.016516
 C 0.3726 0.7188 0.0733   -0.125752
 C 0.2457 0.8093 0.0853   0.08276
 C 0.201 0.8818 0.0704   -0.205906
 C 0.1394 0.9106 0.1107   0.170421
 C 0.1571 0.7993 0.1743   0.134226
 C 0.2195 0.7665 0.1378   -0.189462
 C 0.0685 0.1979 0.6904   0.173466
 C 0.1257 0.2617 0.6811   -0.226121
 C 0.1405 0.3195 0.7288   0.093848
 C 0.0936 0.3097 0.7816   -0.211479
 C 0.038 0.2426 0.7874   0.171912
 C 0.2071 0.3857 0.7222   0.006694
 C 0.2063 0.4592 0.7594   -0.123133
 C 0.2697 0.5182 0.7544   -0.079162
 C 0.3343 0.5074 0.7133   -0.104422
 C 0.3375 0.4339 0.6769   -0.005967
 C 0.2753 0.3752 0.6815   -0.126721
 C 0.4073 0.4258 0.6332   0.218015
 C 0.5022 0.3737 0.5707   0.231084
 C 0.5582 0.3119 0.5406   -0.035434
 C 0.54 0.2811 0.4816   -0.116551
 C 0.5953 0.2217 0.4562   -0.084826
 C 0.6639 0.191 0.4892   -0.097328
 C 0.6809 0.2207 0.5478   0.016516
 C 0.6274 0.2812 0.5733   -0.125752
 C 0.7543 0.1907 0.5853   0.08276
 C 0.799 0.1182 0.5704   -0.205906
 C 0.8606 0.0894 0.6107   0.170421
 C 0.8429 0.2007 0.6743   0.134226
 C 0.7805 0.2335 0.6378   -0.189462
 C 0.1979 0.0685 0.3096   0.173465
 C 0.2617 0.1257 0.3189   -0.226121
 C 0.3195 0.1405 0.2712   0.093847
 C 0.3097 0.0936 0.2184   -0.21148
 C 0.2426 0.038 0.2126   0.171912
 C 0.3857 0.2071 0.2778   0.006693
 C 0.4592 0.2063 0.2406   -0.123133
 C 0.5182 0.2697 0.2456   -0.079162
 C 0.5074 0.3343 0.2867   -0.104421
 C 0.4339 0.3375 0.3231   -0.005966
 C 0.3752 0.2753 0.3185   -0.126722
 C 0.4258 0.4073 0.3668   0.218015
 C 0.3737 0.5022 0.4293   0.231084
 C 0.3119 0.5582 0.4594   -0.035434
 C 0.2811 0.54 0.5184   -0.116552
 C 0.2217 0.5953 0.5438   -0.084826
 C 0.191 0.6639 0.5108   -0.097328
 C 0.2207 0.6809 0.4522   0.016516
 C 0.2812 0.6274 0.4267   -0.125752
 C 0.1907 0.7543 0.4147   0.08276
 C 0.1182 0.799 0.4296   -0.205906
 C 0.0894 0.8606 0.3893   0.170421
 C 0.2007 0.8429 0.3257   0.134226
 C 0.2335 0.7805 0.3622   -0.189462
 C 0.8021 0.9315 0.8096   0.173465
 C 0.7383 0.8743 0.8189   -0.226121
 C 0.6805 0.8595 0.7712   0.093847
 C 0.6903 0.9064 0.7184   -0.21148
 C 0.7574 0.962 0.7126   0.171912
 C 0.6143 0.7929 0.7778   0.006693
 C 0.5408 0.7937 0.7406   -0.123133
 C 0.4818 0.7303 0.7456   -0.079162
 C 0.4926 0.6657 0.7867   -0.104421
 C 0.5661 0.6625 0.8231   -0.005966
 C 0.6248 0.7247 0.8185   -0.126722
 C 0.5742 0.5927 0.8668   0.218015
 C 0.6263 0.4978 0.9293   0.231084
 C 0.6881 0.4418 0.9594   -0.035434
 C 0.7189 0.46 0.0184   -0.116552
 C 0.7783 0.4047 0.0438   -0.084826
 C 0.809 0.3361 0.0108   -0.097328
 C 0.7793 0.3191 0.9522   0.016516
 C 0.7188 0.3726 0.9267   -0.125752
 C 0.8093 0.2457 0.9147   0.08276
 C 0.8818 0.201 0.9296   -0.205906
 C 0.9106 0.1394 0.8893   0.170421
 C 0.7993 0.1571 0.8257   0.134226
 C 0.7665 0.2195 0.8622   -0.189462
 C 0.5685 0.3021 0.0596   0.173466
 C 0.6257 0.2383 0.0689   -0.226121
 C 0.6405 0.1805 0.0212   0.093848
 C 0.5936 0.1903 0.9684   -0.211479
 C 0.538 0.2574 0.9626   0.171912
 C 0.7071 0.1143 0.0278   0.006694
 C 0.7063 0.0408 0.9906   -0.123133
 C 0.7697 0.9818 0.9956   -0.079163
 C 0.8343 0.9926 0.0367   -0.104421
 C 0.8375 0.0661 0.0731   -0.005967
 C 0.7753 0.1248 0.0685   -0.126721
 C 0.9073 0.0742 0.1168   0.218015
 C 0.0022 0.1263 0.1793   0.231084
 C 0.0582 0.1881 0.2094   -0.035434
 C 0.04 0.2189 0.2684   -0.116552
 C 0.0953 0.2783 0.2938   -0.084826
 C 0.1639 0.309 0.2608   -0.097328
 C 0.1809 0.2793 0.2022   0.016516
 C 0.1274 0.2188 0.1767   -0.125752
 C 0.2543 0.3093 0.1647   0.08276
 C 0.299 0.3818 0.1796   -0.205906
 C 0.3606 0.4106 0.1393   0.170421
 C 0.3429 0.2993 0.0757   0.134226
 C 0.2805 0.2665 0.1122   -0.189462
 C 0.4315 0.6979 0.5596   0.173466
 C 0.3743 0.7617 0.5689   -0.226121
 C 0.3595 0.8195 0.5212   0.093848
 C 0.4064 0.8097 0.4684   -0.211479
 C 0.462 0.7426 0.4626   0.171912
 C 0.2929 0.8857 0.5278   0.006694
 C 0.2937 0.9592 0.4906   -0.123133
 C 0.2303 0.0182 0.4956   -0.079163
 C 0.1657 0.0074 0.5367   -0.104421
 C 0.1625 0.9339 0.5731   -0.005967
 C 0.2247 0.8752 0.5685   -0.126721
 C 0.0927 0.9258 0.6168   0.218015
 C 0.9978 0.8737 0.6793   0.231084
 C 0.9418 0.8119 0.7094   -0.035434
 C 0.96 0.7811 0.7684   -0.116552
 C 0.9047 0.7217 0.7938   -0.084826
 C 0.8361 0.691 0.7608   -0.097328
 C 0.8191 0.7207 0.7022   0.016516
 C 0.8726 0.7812 0.6767   -0.125752
 C 0.7457 0.6907 0.6647   0.08276
 C 0.701 0.6182 0.6796   -0.205906
 C 0.6394 0.5894 0.6393   0.170421
 C 0.6571 0.7007 0.5757   0.134226
 C 0.7195 0.7335 0.6122   -0.189462
 N 0.3127 0.5243 0.9926   -0.373528
 N 0.0105 0.9445 0.8557   -0.287914
 N 0.0433 0.0048 0.8166   -0.237382
 N 0.1473 0.9437 0.8622   0.128839
 N 0.2296 0.9238 0.8829   -0.604143
 N 0.374 0.3808 0.9127   -0.354086
 N 0.6873 0.4757 0.4926   -0.373528
 N 0.9895 0.0555 0.3557   -0.287914
 N 0.9567 0.9952 0.3166   -0.237382
 N 0.8527 0.0563 0.3622   0.128839
 N 0.7704 0.0762 0.3829   -0.604143
 N 0.626 0.6192 0.4127   -0.354086
 N 0.9757 0.8127 0.2426   -0.373528
 N 0.5555 0.5105 0.1057   -0.287914
 N 0.4952 0.5433 0.0666   -0.237382
 N 0.5563 0.6473 0.1122   0.128839
 N 0.5762 0.7296 0.1329   -0.604143
 N 0.1192 0.874 0.1627   -0.354086
 N 0.0243 0.1873 0.7426   -0.373528
 N 0.4445 0.4895 0.6057   -0.287914
 N 0.5048 0.4567 0.5666   -0.237382
 N 0.4437 0.3527 0.6122   0.128839
 N 0.4238 0.2704 0.6329   -0.604143
 N 0.8808 0.126 0.6627   -0.354086
 N 0.1873 0.0243 0.2574   -0.373528
 N 0.4895 0.4445 0.3943   -0.287914
 N 0.4567 0.5048 0.4334   -0.237382
 N 0.3527 0.4437 0.3878   0.128839
 N 0.2704 0.4238 0.3671   -0.604143
 N 0.126 0.8808 0.3373   -0.354086
 N 0.8127 0.9757 0.7574   -0.373528
 N 0.5105 0.5555 0.8943   -0.287914
 N 0.5433 0.4952 0.9334   -0.237382
 N 0.6473 0.5563 0.8878   0.128839
 N 0.7296 0.5762 0.8671   -0.604143
 N 0.874 0.1192 0.8373   -0.354086
 N 0.5243 0.3127 0.0074   -0.373528
 N 0.9445 0.0105 0.1443   -0.287914
 N 0.0048 0.0433 0.1834   -0.237382
 N 0.9437 0.1473 0.1378   0.128839
 N 0.9238 0.2296 0.1171   -0.604143
 N 0.3808 0.374 0.0873   -0.354086
 N 0.4757 0.6873 0.5074   -0.373528
 N 0.0555 0.9895 0.6443   -0.287914
 N 0.9952 0.9567 0.6834   -0.237382
 N 0.0563 0.8527 0.6378   0.128839
 N 0.0762 0.7704 0.6171   -0.604143
 N 0.6192 0.626 0.5873   -0.354086
 Cl 0.11884 0.11884 0.0   1.748156
 Cl 0.88116 0.88116 0.5   1.748156
 Cl 0.38116 0.61884 0.25   1.748156
 Cl 0.61884 0.38116 0.75   1.748156
 O 0.1887 0.1016 0.0316   -0.656156
 O 0.131 0.0645 0.9545   -0.638692
 O 0.1016 0.1887 0.9684   -0.656155
 O 0.0645 0.131 0.0455   -0.638692
 O 0.8113 0.8984 0.5316   -0.656156
 O 0.869 0.9355 0.4545   -0.638692
 O 0.8984 0.8113 0.4684   -0.656155
 O 0.9355 0.869 0.5455   -0.638692
 O 0.3984 0.6887 0.2816   -0.656156
 O 0.4355 0.631 0.2045   -0.638692
 O 0.3113 0.6016 0.2184   -0.656155
 O 0.369 0.5645 0.2955   -0.638692
 O 0.6016 0.3113 0.7816   -0.656156
 O 0.5645 0.369 0.7045   -0.638692
 O 0.6887 0.3984 0.7184   -0.656155
 O 0.631 0.4355 0.7955   -0.638692
