{'_ref': 'TBD', '_srcid': 'CAKYAQ_clean', 'submitters': [{'name': 'Dalar Nazarian Jeff Camp and David Sholl', 'email': 'dalar@gatech.edu jcamp6@gatech.edu'}], '_method': 'VASP DFT with PBE;DDEC'}
data_Na3Zn4CuH4(CO)20
_symmetry_space_group_name_H-M   'P 1'
_cell_length_a   11.26220022
_cell_length_b   13.23480015
_cell_length_c   13.23480000
_cell_angle_alpha   78.51200207
_cell_angle_beta   73.25700262
_cell_angle_gamma   73.25659926
_symmetry_Int_Tables_number   1
_chemical_formula_structural   Na3Zn4CuH4(CO)20
_chemical_formula_sum   'Na6 Zn8 Cu2 H8 C40 O40'
_cell_volume   1794.39503686
_cell_formula_units_Z   2
loop_
 _symmetry_equiv_pos_site_id
 _symmetry_equiv_pos_as_xyz
  1  'x, y, z'
loop_
 _atom_site_label
 _atom_site_fract_x
 _atom_site_fract_y
 _atom_site_fract_z
 _atom_site_charge
 Na 0.7119 0.6861 0.6491   0.889454
 Na 0.7881 0.3509 0.3139   0.889457
 Na 0.2881 0.3139 0.3509   0.889458
 Na 0.2119 0.6491 0.6861   0.889461
 Na 0.75 0.3205 0.6795   0.82688
 Na 0.25 0.6795 0.3205   0.82688
 Zn 0.46046 0.86093 0.83221   1.152436
 Zn 0.03954 0.16779 0.13907   1.152426
 Zn 0.53954 0.13907 0.16779   1.152436
 Zn 0.96046 0.83221 0.86093   1.152426
 Zn 0.25 0.88753 0.11247   1.07261
 Zn 0.25 0.07555 0.92445   1.059248
 Zn 0.75 0.11247 0.88753   1.07261
 Zn 0.75 0.92445 0.07555   1.059248
 Cu 0.5 0.0 0.0   1.154446
 Cu 0.0 0.0 0.0   1.154445
 H 0.1261 0.4828 0.9906   0.115626
 H 0.5598 0.4526 0.8628   0.071298
 H 0.3739 0.0094 0.5172   0.115641
 H 0.9402 0.1372 0.5474   0.071299
 H 0.8739 0.5172 0.0094   0.115626
 H 0.4402 0.5474 0.1372   0.071299
 H 0.6261 0.9906 0.4828   0.115641
 H 0.0598 0.8628 0.4526   0.071299
 C 0.3883 0.56 0.8904   -0.197623
 C 0.2578 0.5691 0.9313   -0.087472
 C 0.2135 0.4769 0.9645   -0.119646
 C 0.2955 0.3774 0.9596   -0.009137
 C 0.428 0.3684 0.9238   -0.153305
 C 0.4723 0.4587 0.8885   -0.030094
 C 0.444 0.655 0.8504   0.709876
 C 0.1587 0.6726 0.94   0.706116
 C 0.2398 0.2819 0.9843   0.695453
 C 0.5199 0.2612 0.931   0.751223
 C 0.1117 0.1096 0.44   -0.197649
 C 0.2422 0.0687 0.4309   -0.087433
 C 0.2865 0.0355 0.5231   -0.119679
 C 0.2045 0.0404 0.6226   -0.009143
 C 0.072 0.0762 0.6316   -0.153307
 C 0.0277 0.1115 0.5413   -0.030076
 C 0.056 0.1496 0.345   0.709904
 C 0.3413 0.06 0.3274   0.706136
 C 0.2602 0.0157 0.7181   0.695477
 C 0.9801 0.069 0.7388   0.75124
 C 0.6117 0.44 0.1096   -0.197623
 C 0.7422 0.4309 0.0687   -0.087472
 C 0.7865 0.5231 0.0355   -0.119646
 C 0.7045 0.6226 0.0404   -0.009137
 C 0.572 0.6316 0.0762   -0.153305
 C 0.5277 0.5413 0.1115   -0.030095
 C 0.556 0.345 0.1496   0.709875
 C 0.8413 0.3274 0.06   0.706116
 C 0.7602 0.7181 0.0157   0.695453
 C 0.4801 0.7388 0.069   0.751223
 C 0.8883 0.8904 0.56   -0.197649
 C 0.7578 0.9313 0.5691   -0.087433
 C 0.7135 0.9645 0.4769   -0.119679
 C 0.7955 0.9596 0.3774   -0.009143
 C 0.928 0.9238 0.3684   -0.153307
 C 0.9723 0.8885 0.4587   -0.030077
 C 0.944 0.8504 0.655   0.709904
 C 0.6587 0.94 0.6726   0.706136
 C 0.7398 0.9843 0.2819   0.695477
 C 0.0199 0.931 0.2612   0.751239
 O 0.5516 0.6441 0.7901   -0.81121
 O 0.3767 0.7433 0.8815   -0.537159
 O 0.1252 0.7215 0.8555   -0.740371
 O 0.1097 0.6993 0.0305   -0.47837
 O 0.1608 0.2707 0.0715   -0.632225
 O 0.2751 0.22427 0.91127   -0.571767
 O 0.4889 0.1906 0.0044   -0.655506
 O 0.6262 0.2486 0.8624   -0.712238
 O 0.4378 0.00267 0.87807   -0.723391
 O 0.3164 0.01573 0.07813   -0.68855
 O 0.9484 0.2099 0.3559   -0.811237
 O 0.1233 0.1185 0.2567   -0.537159
 O 0.3748 0.1445 0.2785   -0.740376
 O 0.3903 0.9695 0.3007   -0.47841
 O 0.3392 0.9285 0.7293   -0.632247
 O 0.2249 0.08873 0.77573   -0.571767
 O 0.0111 0.9956 0.8094   -0.655522
 O 0.8738 0.1376 0.7514   -0.712249
 O 0.0622 0.12193 0.99733   -0.723392
 O 0.1836 0.92187 0.98427   -0.688539
 O 0.4484 0.3559 0.2099   -0.811211
 O 0.6233 0.2567 0.1185   -0.537159
 O 0.8748 0.2785 0.1445   -0.740371
 O 0.8903 0.3007 0.9695   -0.478371
 O 0.8392 0.7293 0.9285   -0.632225
 O 0.7249 0.77573 0.08873   -0.571767
 O 0.5111 0.8094 0.9956   -0.655506
 O 0.3738 0.7514 0.1376   -0.712238
 O 0.5622 0.99733 0.12193   -0.723391
 O 0.6836 0.98427 0.92187   -0.68855
 O 0.0516 0.7901 0.6441   -0.811237
 O 0.8767 0.8815 0.7433   -0.537159
 O 0.6252 0.8555 0.7215   -0.740375
 O 0.6097 0.0305 0.6993   -0.47841
 O 0.6608 0.0715 0.2707   -0.632247
 O 0.7751 0.91127 0.22427   -0.571767
 O 0.9889 0.0044 0.1906   -0.655522
 O 0.1262 0.8624 0.2486   -0.712249
 O 0.9378 0.87807 0.00267   -0.723392
 O 0.8164 0.07813 0.01573   -0.688539
