{'_ref': 'TBD', '_srcid': 'CAKYAQ_clean', 'submitters': [{'name': 'Dalar Nazarian Jeff Camp and David Sholl', 'email': 'dalar@gatech.edu jcamp6@gatech.edu'}], '_method': 'VASP DFT with PBE;DDEC'}
data_La2Cu3H30C24(NO4)6
_symmetry_space_group_name_H-M   'P 1'
_cell_length_a   13.47130000
_cell_length_b   13.47129998
_cell_length_c   14.92200000
_cell_angle_alpha   90.00000000
_cell_angle_beta   90.00000000
_cell_angle_gamma   120.00000005
_symmetry_Int_Tables_number   1
_chemical_formula_structural   La2Cu3H30C24(NO4)6
_chemical_formula_sum   'La4 Cu6 H60 C48 N12 O48'
_cell_volume   2345.18270165
_cell_formula_units_Z   2
loop_
 _symmetry_equiv_pos_site_id
 _symmetry_equiv_pos_as_xyz
  1  'x, y, z'
loop_
 _atom_site_label
 _atom_site_fract_x
 _atom_site_fract_y
 _atom_site_fract_z
 _atom_site_charge
 La 0.66667 0.33334 0.16956   2.148332
 La 0.33333 0.66666 0.33044   2.148333
 La 0.33333 0.66666 0.83044   2.148332
 La 0.66667 0.33334 0.66956   2.148333
 Cu 0.5 0.5 0.0   0.806365
 Cu 0.0 0.5 0.0   0.806364
 Cu 0.5 0.0 0.0   0.806359
 Cu 0.0 0.5 0.5   0.806366
 Cu 0.5 0.5 0.5   0.806365
 Cu 0.5 0.0 0.5   0.806359
 H 0.3201 0.1825 0.9776   0.10921
 H 0.2922 0.2534 0.0464   0.127122
 H 0.3963 0.3168 0.8115   0.135955
 H 0.4573 0.2693 0.8732   0.134768
 H 0.3259 0.3519 0.9239   0.257014
 H 0.8624 0.6799 0.9776   0.10921
 H 0.9612 0.7078 0.0464   0.127127
 H 0.9205 0.6037 0.8115   0.135955
 H 0.812 0.5427 0.8732   0.134765
 H 0.026 0.6741 0.9239   0.257013
 H 0.8175 0.1376 0.9776   0.109204
 H 0.7466 0.0388 0.0464   0.127121
 H 0.6832 0.0795 0.8115   0.135953
 H 0.7307 0.188 0.8732   0.134762
 H 0.6481 0.974 0.9239   0.25701
 H 0.1376 0.8175 0.5224   0.109211
 H 0.0388 0.7466 0.4536   0.127122
 H 0.0795 0.6832 0.6885   0.135957
 H 0.188 0.7307 0.6268   0.134768
 H 0.974 0.6481 0.5761   0.257014
 H 0.1825 0.3201 0.5224   0.10921
 H 0.2534 0.2922 0.4536   0.127127
 H 0.3168 0.3963 0.6885   0.135957
 H 0.2693 0.4573 0.6268   0.134765
 H 0.3519 0.3259 0.5761   0.257013
 H 0.6799 0.8624 0.5224   0.109203
 H 0.7078 0.9612 0.4536   0.127121
 H 0.6037 0.9205 0.6885   0.135954
 H 0.5427 0.812 0.6268   0.134762
 H 0.6741 0.026 0.5761   0.25701
 H 0.6799 0.8175 0.0224   0.109212
 H 0.7078 0.7466 0.9536   0.127124
 H 0.6037 0.6832 0.1885   0.135955
 H 0.5427 0.7307 0.1268   0.134768
 H 0.6741 0.6481 0.0761   0.257014
 H 0.1376 0.3201 0.0224   0.109212
 H 0.0388 0.2922 0.9536   0.127129
 H 0.0795 0.3963 0.1885   0.135955
 H 0.188 0.4573 0.1268   0.134766
 H 0.974 0.3259 0.0761   0.257014
 H 0.1825 0.8624 0.0224   0.109205
 H 0.2534 0.9612 0.9536   0.127123
 H 0.3168 0.9205 0.1885   0.135952
 H 0.2693 0.812 0.1268   0.134762
 H 0.3519 0.026 0.0761   0.25701
 H 0.8624 0.1825 0.4776   0.109212
 H 0.9612 0.2534 0.5464   0.127124
 H 0.9205 0.3168 0.3115   0.135957
 H 0.812 0.2693 0.3732   0.134768
 H 0.026 0.3519 0.4239   0.257014
 H 0.8175 0.6799 0.4776   0.109212
 H 0.7466 0.7078 0.5464   0.127129
 H 0.6832 0.6037 0.3115   0.135957
 H 0.7307 0.5427 0.3732   0.134766
 H 0.6481 0.6741 0.4239   0.257013
 H 0.3201 0.1376 0.4776   0.109205
 H 0.2922 0.0388 0.5464   0.127123
 H 0.3963 0.0795 0.3115   0.135954
 H 0.4573 0.188 0.3732   0.134762
 H 0.3259 0.974 0.4239   0.25701
 C 0.4515 0.2719 0.0668   0.693545
 C 0.3518 0.2553 0.0087   -0.187337
 C 0.4458 0.334 0.8633   -0.221135
 C 0.5597 0.4388 0.8437   0.739457
 C 0.8204 0.5485 0.0668   0.693548
 C 0.9035 0.6482 0.0087   -0.187336
 C 0.8882 0.5542 0.8633   -0.221134
 C 0.8791 0.4403 0.8437   0.739447
 C 0.7281 0.1796 0.0668   0.693542
 C 0.7447 0.0965 0.0087   -0.187338
 C 0.666 0.1118 0.8633   -0.221131
 C 0.5612 0.1209 0.8437   0.739434
 C 0.1796 0.7281 0.4332   0.693545
 C 0.0965 0.7447 0.4913   -0.187337
 C 0.1118 0.666 0.6367   -0.221136
 C 0.1209 0.5612 0.6563   0.739458
 C 0.2719 0.4515 0.4332   0.693548
 C 0.2553 0.3518 0.4913   -0.187336
 C 0.334 0.4458 0.6367   -0.221135
 C 0.4388 0.5597 0.6563   0.739448
 C 0.5485 0.8204 0.4332   0.693542
 C 0.6482 0.9035 0.4913   -0.187338
 C 0.5542 0.8882 0.6367   -0.221131
 C 0.4403 0.8791 0.6563   0.739435
 C 0.5485 0.7281 0.9332   0.693545
 C 0.6482 0.7447 0.9913   -0.187338
 C 0.5542 0.666 0.1367   -0.221135
 C 0.4403 0.5612 0.1563   0.739457
 C 0.1796 0.4515 0.9332   0.693548
 C 0.0965 0.3518 0.9913   -0.187338
 C 0.1118 0.4458 0.1367   -0.221134
 C 0.1209 0.5597 0.1563   0.739447
 C 0.2719 0.8204 0.9332   0.693543
 C 0.2553 0.9035 0.9913   -0.187339
 C 0.334 0.8882 0.1367   -0.221131
 C 0.4388 0.8791 0.1563   0.739434
 C 0.8204 0.2719 0.5668   0.693545
 C 0.9035 0.2553 0.5087   -0.187338
 C 0.8882 0.334 0.3633   -0.221136
 C 0.8791 0.4388 0.3437   0.739458
 C 0.7281 0.5485 0.5668   0.693548
 C 0.7447 0.6482 0.5087   -0.187337
 C 0.666 0.5542 0.3633   -0.221135
 C 0.5612 0.4403 0.3437   0.739448
 C 0.4515 0.1796 0.5668   0.693543
 C 0.3518 0.0965 0.5087   -0.187339
 C 0.4458 0.1118 0.3633   -0.221131
 C 0.5597 0.1209 0.3437   0.739435
 N 0.3885 0.3486 0.94247   -0.279555
 N 0.9601 0.6115 0.94247   -0.279555
 N 0.6514 0.0399 0.94247   -0.279552
 N 0.0399 0.6514 0.55753   -0.279555
 N 0.3486 0.3885 0.55753   -0.279555
 N 0.6115 0.9601 0.55753   -0.279552
 N 0.6115 0.6514 0.05753   -0.279555
 N 0.0399 0.3885 0.05753   -0.279555
 N 0.3486 0.9601 0.05753   -0.279552
 N 0.9601 0.3486 0.44247   -0.279555
 N 0.6514 0.6115 0.44247   -0.279555
 N 0.3885 0.0399 0.44247   -0.279551
 O 0.4378 0.197 0.12298   -0.656887
 O 0.546 0.3633 0.05682   -0.700255
 O 0.5974 0.5234 0.89543   -0.563968
 O 0.6134 0.4376 0.77561   -0.707231
 O 0.7592 0.5622 0.12298   -0.656909
 O 0.8173 0.454 0.05682   -0.700249
 O 0.926 0.4026 0.89543   -0.563964
 O 0.8242 0.3866 0.77561   -0.707218
 O 0.803 0.2408 0.12298   -0.656906
 O 0.6367 0.1827 0.05682   -0.700223
 O 0.4766 0.074 0.89543   -0.563972
 O 0.5624 0.1758 0.77561   -0.707191
 O 0.2408 0.803 0.37702   -0.656887
 O 0.1827 0.6367 0.44318   -0.700255
 O 0.074 0.4766 0.60457   -0.563968
 O 0.1758 0.5624 0.72439   -0.707231
 O 0.197 0.4378 0.37702   -0.656909
 O 0.3633 0.546 0.44318   -0.700249
 O 0.5234 0.5974 0.60457   -0.563964
 O 0.4376 0.6134 0.72439   -0.707218
 O 0.5622 0.7592 0.37702   -0.656906
 O 0.454 0.8173 0.44318   -0.700224
 O 0.4026 0.926 0.60457   -0.563972
 O 0.3866 0.8242 0.72439   -0.707191
 O 0.5622 0.803 0.87702   -0.656887
 O 0.454 0.6367 0.94318   -0.700255
 O 0.4026 0.4766 0.10457   -0.563968
 O 0.3866 0.5624 0.22439   -0.707231
 O 0.2408 0.4378 0.87702   -0.656909
 O 0.1827 0.546 0.94318   -0.700249
 O 0.074 0.5974 0.10457   -0.563964
 O 0.1758 0.6134 0.22439   -0.707218
 O 0.197 0.7592 0.87702   -0.656906
 O 0.3633 0.8173 0.94318   -0.700223
 O 0.5234 0.926 0.10457   -0.563972
 O 0.4376 0.8242 0.22439   -0.707191
 O 0.7592 0.197 0.62298   -0.656887
 O 0.8173 0.3633 0.55682   -0.700255
 O 0.926 0.5234 0.39543   -0.563968
 O 0.8242 0.4376 0.27561   -0.707231
 O 0.803 0.5622 0.62298   -0.656909
 O 0.6367 0.454 0.55682   -0.700249
 O 0.4766 0.4026 0.39543   -0.563964
 O 0.5624 0.3866 0.27561   -0.707218
 O 0.4378 0.2408 0.62298   -0.656906
 O 0.546 0.1827 0.55682   -0.700224
 O 0.5974 0.074 0.39543   -0.563972
 O 0.6134 0.1758 0.27561   -0.707191
