{'_ref': 'TBD', '_srcid': 'CAKYAQ_clean', 'submitters': [{'name': 'Dalar Nazarian Jeff Camp and David Sholl', 'email': 'dalar@gatech.edu jcamp6@gatech.edu'}], '_method': 'VASP DFT with PBE;DDEC'}
data_Ni2H16C24N4O9
_symmetry_space_group_name_H-M   'P 1'
_cell_length_a   10.75000000
_cell_length_b   13.78999967
_cell_length_c   19.60000000
_cell_angle_alpha   90.00000000
_cell_angle_beta   90.00000000
_cell_angle_gamma   104.20000098
_symmetry_Int_Tables_number   1
_chemical_formula_structural   Ni2H16C24N4O9
_chemical_formula_sum   'Ni8 H64 C96 N16 O36'
_cell_volume   2816.7747657
_cell_formula_units_Z   4
loop_
 _symmetry_equiv_pos_site_id
 _symmetry_equiv_pos_as_xyz
  1  'x, y, z'
loop_
 _atom_site_label
 _atom_site_fract_x
 _atom_site_fract_y
 _atom_site_fract_z
 _atom_site_charge
 Ni 0.40449 0.63925 0.11806   0.855996
 Ni 0.24574 0.79542 0.02508   0.869674
 Ni 0.59551 0.86075 0.61806   0.855996
 Ni 0.75426 0.70458 0.52508   0.869674
 Ni 0.59551 0.36075 0.88194   0.855996
 Ni 0.75426 0.20458 0.97492   0.869674
 Ni 0.40449 0.13925 0.38194   0.855996
 Ni 0.24574 0.29542 0.47492   0.869674
 H 0.9495 0.3816 0.0354   0.065965
 H 0.007 0.1458 0.9444   0.081634
 H 0.2197 0.1948 0.9693   0.119882
 H 0.3024 0.3384 0.0313   0.098893
 H 0.1643 0.5404 0.8807   0.106402
 H 0.1554 0.3964 0.815   0.144063
 H 0.3286 0.3307 0.8126   0.078983
 H 0.5126 0.531 0.9405   0.062742
 H 0.7055 0.901 0.1825   0.097169
 H 0.8696 0.0468 0.194   0.140209
 H 0.8926 0.1671 0.1113   0.084336
 H 0.6012 0.0059 0.0115   0.064395
 H 0.3235 0.594 0.4109   0.096175
 H 0.4009 0.7509 0.3637   0.129166
 H 0.4338 0.7669 0.2478   0.080119
 H 0.3081 0.4804 0.2241   0.072993
 H 0.0505 0.1184 0.5354   0.065966
 H 0.993 0.3542 0.4444   0.081634
 H 0.7803 0.3052 0.4693   0.119882
 H 0.6976 0.1616 0.5313   0.098893
 H 0.8357 0.9596 0.3807   0.106401
 H 0.8446 0.1036 0.315   0.144061
 H 0.6714 0.1693 0.3126   0.078982
 H 0.4874 0.969 0.4405   0.062742
 H 0.2945 0.599 0.6825   0.097168
 H 0.1304 0.4532 0.694   0.140207
 H 0.1074 0.3329 0.6113   0.084335
 H 0.3988 0.4941 0.5115   0.064395
 H 0.6765 0.906 0.9109   0.096174
 H 0.5991 0.7491 0.8637   0.129166
 H 0.5662 0.7331 0.7478   0.080119
 H 0.6919 0.0196 0.7241   0.072993
 H 0.0505 0.6184 0.9646   0.065965
 H 0.993 0.8542 0.0556   0.081634
 H 0.7803 0.8052 0.0307   0.119883
 H 0.6976 0.6616 0.9687   0.098894
 H 0.8357 0.4596 0.1193   0.106401
 H 0.8446 0.6036 0.185   0.144063
 H 0.6714 0.6693 0.1874   0.078981
 H 0.4874 0.469 0.0595   0.062742
 H 0.2945 0.099 0.8175   0.097167
 H 0.1304 0.9532 0.806   0.140209
 H 0.1074 0.8329 0.8887   0.084335
 H 0.3988 0.9941 0.9885   0.064395
 H 0.6765 0.406 0.5891   0.096175
 H 0.5991 0.2491 0.6363   0.129167
 H 0.5662 0.2331 0.7522   0.080119
 H 0.6919 0.5196 0.7759   0.072994
 H 0.9495 0.8816 0.4646   0.065965
 H 0.007 0.6458 0.5556   0.081634
 H 0.2197 0.6948 0.5307   0.119883
 H 0.3024 0.8384 0.4687   0.098894
 H 0.1643 0.0404 0.6193   0.1064
 H 0.1554 0.8964 0.685   0.144061
 H 0.3286 0.8307 0.6874   0.078981
 H 0.5126 0.031 0.5595   0.062742
 H 0.7055 0.401 0.3175   0.097166
 H 0.8696 0.5468 0.306   0.140207
 H 0.8926 0.6671 0.3887   0.084334
 H 0.6012 0.5059 0.4885   0.064395
 H 0.3235 0.094 0.0891   0.096175
 H 0.4009 0.2509 0.1363   0.129167
 H 0.4338 0.2669 0.2522   0.080119
 H 0.3081 0.9804 0.2759   0.072994
 C 0.0044 0.3418 0.0234   0.201419
 C 0.037 0.2043 0.9692   0.156795
 C 0.1654 0.2336 0.9843   -0.198368
 C 0.2154 0.3189 0.0211   0.048569
 C 0.1318 0.3753 0.0428   -0.214841
 C 0.1757 0.4726 0.0815   0.65647
 C 0.351 0.6348 0.9677   0.678626
 C 0.2328 0.5103 0.8802   0.066253
 C 0.228 0.4254 0.8404   -0.188426
 C 0.3316 0.3864 0.8399   0.145488
 C 0.4396 0.5038 0.9148   0.203818
 C 0.3403 0.5482 0.9184   -0.221421
 C 0.5227 0.8501 0.0896   0.673372
 C 0.6325 0.9408 0.0978   -0.210013
 C 0.7144 0.9517 0.1503   0.048865
 C 0.8135 0.0384 0.1572   -0.194647
 C 0.8252 0.1102 0.1083   0.159115
 C 0.6529 0.0156 0.0502   0.209662
 C 0.2462 0.4162 0.3495   0.656694
 C 0.2999 0.5197 0.3206   -0.203747
 C 0.3334 0.6018 0.3639   0.03648
 C 0.381 0.6944 0.336   -0.191883
 C 0.4009 0.7035 0.2661   0.192511
 C 0.3257 0.5358 0.2528   0.18744
 C 0.9956 0.1582 0.5234   0.201419
 C 0.963 0.2957 0.4692   0.156795
 C 0.8346 0.2664 0.4843   -0.198368
 C 0.7846 0.1811 0.5211   0.048569
 C 0.8682 0.1247 0.5428   -0.214841
 C 0.8243 0.0274 0.5815   0.65647
 C 0.649 0.8652 0.4677   0.678626
 C 0.7672 0.9897 0.3802   0.066254
 C 0.772 0.0746 0.3404   -0.188425
 C 0.6684 0.1136 0.3399   0.145488
 C 0.5604 0.9962 0.4148   0.203818
 C 0.6597 0.9518 0.4184   -0.221421
 C 0.4773 0.6499 0.5896   0.673372
 C 0.3675 0.5592 0.5978   -0.210013
 C 0.2856 0.5483 0.6503   0.048866
 C 0.1865 0.4616 0.6572   -0.194646
 C 0.1748 0.3898 0.6083   0.159115
 C 0.3471 0.4844 0.5502   0.209662
 C 0.7538 0.0838 0.8495   0.656694
 C 0.7001 0.9803 0.8206   -0.203747
 C 0.6666 0.8982 0.8639   0.03648
 C 0.619 0.8056 0.836   -0.191883
 C 0.5991 0.7965 0.7661   0.192511
 C 0.6743 0.9642 0.7528   0.18744
 C 0.9956 0.6582 0.9766   0.201419
 C 0.963 0.7957 0.0308   0.156795
 C 0.8346 0.7664 0.0157   -0.198368
 C 0.7846 0.6811 0.9789   0.048569
 C 0.8682 0.6247 0.9572   -0.214841
 C 0.8243 0.5274 0.9185   0.65647
 C 0.649 0.3652 0.0323   0.678626
 C 0.7672 0.4897 0.1198   0.066254
 C 0.772 0.5746 0.1596   -0.188426
 C 0.6684 0.6136 0.1601   0.145489
 C 0.5604 0.4962 0.0852   0.203818
 C 0.6597 0.4518 0.0816   -0.221421
 C 0.4773 0.1499 0.9104   0.673371
 C 0.3675 0.0592 0.9022   -0.210013
 C 0.2856 0.0483 0.8497   0.048866
 C 0.1865 0.9616 0.8428   -0.194647
 C 0.1748 0.8898 0.8917   0.159116
 C 0.3471 0.9844 0.9498   0.209663
 C 0.7538 0.5838 0.6505   0.656694
 C 0.7001 0.4803 0.6794   -0.203746
 C 0.6666 0.3982 0.6361   0.036481
 C 0.619 0.3056 0.664   -0.191883
 C 0.5991 0.2965 0.7339   0.192511
 C 0.6743 0.4642 0.7472   0.187441
 C 0.0044 0.8418 0.4766   0.201419
 C 0.037 0.7043 0.5308   0.156795
 C 0.1654 0.7336 0.5157   -0.198368
 C 0.2154 0.8189 0.4789   0.048569
 C 0.1318 0.8753 0.4572   -0.214841
 C 0.1757 0.9726 0.4185   0.65647
 C 0.351 0.1348 0.5323   0.678626
 C 0.2328 0.0103 0.6198   0.066254
 C 0.228 0.9254 0.6596   -0.188425
 C 0.3316 0.8864 0.6601   0.145489
 C 0.4396 0.0038 0.5852   0.203818
 C 0.3403 0.0482 0.5816   -0.221421
 C 0.5227 0.3501 0.4104   0.673371
 C 0.6325 0.4408 0.4022   -0.210013
 C 0.7144 0.4517 0.3497   0.048867
 C 0.8135 0.5384 0.3428   -0.194646
 C 0.8252 0.6102 0.3917   0.159116
 C 0.6529 0.5156 0.4498   0.209663
 C 0.2462 0.9162 0.1505   0.656694
 C 0.2999 0.0197 0.1794   -0.203746
 C 0.3334 0.1018 0.1361   0.036481
 C 0.381 0.1944 0.164   -0.191883
 C 0.4009 0.2035 0.2339   0.192511
 C 0.3257 0.0358 0.2472   0.187441
 N 0.9525 0.2567 0.9887   -0.294421
 N 0.4392 0.4229 0.8764   -0.289246
 N 0.7424 0.1016 0.0556   -0.293581
 N 0.3747 0.6257 0.2243   -0.29767
 N 0.0475 0.2433 0.4887   -0.294421
 N 0.5608 0.0771 0.3764   -0.289246
 N 0.2576 0.3984 0.5556   -0.293581
 N 0.6253 0.8743 0.7243   -0.29767
 N 0.0475 0.7433 0.0113   -0.294421
 N 0.5608 0.5771 0.1236   -0.289246
 N 0.2576 0.8984 0.9444   -0.293581
 N 0.6253 0.3743 0.7757   -0.29767
 N 0.9525 0.7567 0.5113   -0.294421
 N 0.4392 0.9229 0.6236   -0.289246
 N 0.7424 0.6016 0.4444   -0.293581
 N 0.3747 0.1257 0.2757   -0.29767
 O 0.2923 0.4971 0.0972   -0.55726
 O 0.0925 0.5183 0.0946   -0.503802
 O 0.2717 0.6881 0.9593   -0.551968
 O 0.4344 0.6446 0.0125   -0.563407
 O 0.5203 0.7775 0.1307   -0.560857
 O 0.4409 0.8538 0.0449   -0.54531
 O 0.2229 0.4099 0.4122   -0.580794
 O 0.234 0.3454 0.3086   -0.513544
 O 0.2378 0.6977 0.1091   -0.395166
 O 0.7077 0.0029 0.5972   -0.55726
 O 0.9075 0.9817 0.5946   -0.503802
 O 0.7283 0.8119 0.4593   -0.551968
 O 0.5656 0.8554 0.5125   -0.563408
 O 0.4797 0.7225 0.6307   -0.560857
 O 0.5591 0.6462 0.5449   -0.54531
 O 0.7771 0.0901 0.9122   -0.580794
 O 0.766 0.1546 0.8086   -0.513544
 O 0.7622 0.8023 0.6091   -0.395166
 O 0.7077 0.5029 0.9028   -0.55726
 O 0.9075 0.4817 0.9054   -0.503802
 O 0.7283 0.3119 0.0407   -0.551968
 O 0.5656 0.3554 0.9875   -0.563407
 O 0.4797 0.2225 0.8693   -0.560857
 O 0.5591 0.1462 0.9551   -0.54531
 O 0.7771 0.5901 0.5878   -0.580794
 O 0.766 0.6546 0.6914   -0.513545
 O 0.7622 0.3023 0.8909   -0.395167
 O 0.2923 0.9971 0.4028   -0.55726
 O 0.0925 0.0183 0.4054   -0.503802
 O 0.2717 0.1881 0.5407   -0.551968
 O 0.4344 0.1446 0.4875   -0.563408
 O 0.5203 0.2775 0.3693   -0.560857
 O 0.4409 0.3538 0.4551   -0.54531
 O 0.2229 0.9099 0.0878   -0.580794
 O 0.234 0.8454 0.1914   -0.513545
 O 0.2378 0.1977 0.3909   -0.395167
