{'_ref': 'TBD', '_srcid': 'CAKYAQ_clean', 'submitters': [{'name': 'Dalar Nazarian Jeff Camp and David Sholl', 'email': 'dalar@gatech.edu jcamp6@gatech.edu'}], '_method': 'VASP DFT with PBE;DDEC'}
data_CuH2(C3O2)2
_symmetry_space_group_name_H-M   'P 1'
_cell_length_a   18.65100017
_cell_length_b   18.65100024
_cell_length_c   18.65100000
_cell_angle_alpha   60.00000042
_cell_angle_beta   60.00000030
_cell_angle_gamma   60.00000032
_symmetry_Int_Tables_number   1
_chemical_formula_structural   CuH2(C3O2)2
_chemical_formula_sum   'Cu12 H24 C72 O48'
_cell_volume   4587.66166133
_cell_formula_units_Z   12
loop_
 _symmetry_equiv_pos_site_id
 _symmetry_equiv_pos_as_xyz
  1  'x, y, z'
loop_
 _atom_site_label
 _atom_site_fract_x
 _atom_site_fract_y
 _atom_site_fract_z
 _atom_site_charge
 Cu 0.06986 0.5 0.5   0.935197
 Cu 0.5 0.06986 0.93014   0.935197
 Cu 0.5 0.93014 0.06986   0.935196
 Cu 0.93014 0.5 0.5   0.935196
 Cu 0.06986 0.5 0.93014   0.935196
 Cu 0.5 0.93014 0.5   0.935197
 Cu 0.5 0.06986 0.5   0.935195
 Cu 0.93014 0.5 0.06986   0.935195
 Cu 0.06986 0.93014 0.5   0.935196
 Cu 0.5 0.5 0.06986   0.935196
 Cu 0.5 0.5 0.93014   0.935195
 Cu 0.93014 0.06986 0.5   0.935195
 H 0.7726 0.4674 0.7726   0.113449
 H 0.4674 0.7726 0.9874   0.11345
 H 0.7726 0.9874 0.7726   0.113449
 H 0.9874 0.7726 0.4674   0.11345
 H 0.7726 0.7726 0.9874   0.11345
 H 0.4674 0.9874 0.7726   0.11345
 H 0.7726 0.7726 0.4674   0.113449
 H 0.9874 0.4674 0.7726   0.11345
 H 0.7726 0.9874 0.4674   0.11345
 H 0.4674 0.7726 0.7726   0.113449
 H 0.7726 0.4674 0.9874   0.11345
 H 0.9874 0.7726 0.7726   0.11345
 H 0.5326 0.2274 0.2274   0.113446
 H 0.2274 0.5326 0.0126   0.113447
 H 0.0126 0.2274 0.2274   0.113447
 H 0.2274 0.0126 0.5326   0.113447
 H 0.2274 0.2274 0.0126   0.113447
 H 0.0126 0.5326 0.2274   0.113447
 H 0.2274 0.2274 0.5326   0.113446
 H 0.5326 0.0126 0.2274   0.113447
 H 0.0126 0.2274 0.5326   0.113447
 H 0.2274 0.5326 0.2274   0.113446
 H 0.5326 0.2274 0.0126   0.113447
 H 0.2274 0.0126 0.2274   0.113447
 C 0.9309 0.47426 0.66394   0.687263
 C 0.8874 0.46712 0.75808   -0.167411
 C 0.47426 0.9309 0.9309   0.687263
 C 0.46712 0.8874 0.8874   -0.167411
 C 0.66394 0.9309 0.9309   0.687265
 C 0.75808 0.8874 0.8874   -0.167419
 C 0.9309 0.66394 0.47426   0.687264
 C 0.8874 0.75808 0.46712   -0.167413
 C 0.9309 0.66394 0.9309   0.687264
 C 0.8874 0.75808 0.8874   -0.167416
 C 0.47426 0.9309 0.66394   0.687263
 C 0.46712 0.8874 0.75808   -0.167411
 C 0.66394 0.9309 0.47426   0.687264
 C 0.75808 0.8874 0.46712   -0.167413
 C 0.9309 0.47426 0.9309   0.687264
 C 0.8874 0.46712 0.8874   -0.167413
 C 0.9309 0.9309 0.47426   0.687263
 C 0.8874 0.8874 0.46712   -0.16741
 C 0.47426 0.66394 0.9309   0.687263
 C 0.46712 0.75808 0.8874   -0.167411
 C 0.66394 0.47426 0.9309   0.687264
 C 0.75808 0.46712 0.8874   -0.167413
 C 0.9309 0.9309 0.66394   0.687265
 C 0.8874 0.8874 0.75808   -0.167419
 C 0.52574 0.0691 0.33606   0.687265
 C 0.53288 0.1126 0.24192   -0.16741
 C 0.0691 0.52574 0.0691   0.687265
 C 0.1126 0.53288 0.1126   -0.16741
 C 0.0691 0.33606 0.0691   0.687267
 C 0.1126 0.24192 0.1126   -0.167418
 C 0.33606 0.0691 0.52574   0.687266
 C 0.24192 0.1126 0.53288   -0.167413
 C 0.33606 0.0691 0.0691   0.687266
 C 0.24192 0.1126 0.1126   -0.167415
 C 0.0691 0.52574 0.33606   0.687265
 C 0.1126 0.53288 0.24192   -0.16741
 C 0.0691 0.33606 0.52574   0.687266
 C 0.1126 0.24192 0.53288   -0.167412
 C 0.52574 0.0691 0.0691   0.687266
 C 0.53288 0.1126 0.1126   -0.167412
 C 0.0691 0.0691 0.52574   0.687265
 C 0.1126 0.1126 0.53288   -0.16741
 C 0.33606 0.52574 0.0691   0.687265
 C 0.24192 0.53288 0.1126   -0.16741
 C 0.52574 0.33606 0.0691   0.687266
 C 0.53288 0.24192 0.1126   -0.167412
 C 0.0691 0.0691 0.33606   0.687266
 C 0.1126 0.1126 0.24192   -0.167418
 C 0.8015 0.46722 0.8015   0.037873
 C 0.46722 0.8015 0.92978   0.037872
 C 0.8015 0.92978 0.8015   0.037867
 C 0.92978 0.8015 0.46722   0.037872
 C 0.8015 0.8015 0.92978   0.037866
 C 0.46722 0.92978 0.8015   0.037871
 C 0.8015 0.8015 0.46722   0.037872
 C 0.92978 0.46722 0.8015   0.037871
 C 0.8015 0.92978 0.46722   0.03787
 C 0.46722 0.8015 0.8015   0.03787
 C 0.8015 0.46722 0.92978   0.03787
 C 0.92978 0.8015 0.8015   0.037864
 C 0.53278 0.1985 0.1985   0.037872
 C 0.1985 0.53278 0.07022   0.037871
 C 0.07022 0.1985 0.1985   0.037867
 C 0.1985 0.07022 0.53278   0.037872
 C 0.1985 0.1985 0.07022   0.037865
 C 0.07022 0.53278 0.1985   0.03787
 C 0.1985 0.1985 0.53278   0.037871
 C 0.53278 0.07022 0.1985   0.037871
 C 0.07022 0.1985 0.53278   0.037869
 C 0.1985 0.53278 0.1985   0.037869
 C 0.53278 0.1985 0.07022   0.03787
 C 0.1985 0.07022 0.1985   0.037864
 O 0.0074 0.47868 0.62646   -0.569384
 O 0.47868 0.0074 0.88746   -0.569384
 O 0.62646 0.88746 0.0074   -0.569384
 O 0.88746 0.62646 0.47868   -0.569384
 O 0.0074 0.62646 0.88746   -0.569384
 O 0.47868 0.88746 0.62646   -0.569384
 O 0.62646 0.0074 0.47868   -0.569384
 O 0.88746 0.47868 0.0074   -0.569384
 O 0.0074 0.88746 0.47868   -0.569383
 O 0.47868 0.62646 0.0074   -0.569384
 O 0.62646 0.47868 0.88746   -0.569384
 O 0.88746 0.0074 0.62646   -0.569383
 O 0.52132 0.9926 0.37354   -0.569384
 O 0.9926 0.52132 0.11254   -0.569383
 O 0.11254 0.37354 0.9926   -0.569384
 O 0.37354 0.11254 0.52132   -0.569384
 O 0.37354 0.9926 0.11254   -0.569384
 O 0.11254 0.52132 0.37354   -0.569384
 O 0.9926 0.37354 0.52132   -0.569384
 O 0.52132 0.11254 0.9926   -0.569384
 O 0.11254 0.9926 0.52132   -0.569384
 O 0.37354 0.52132 0.9926   -0.569384
 O 0.52132 0.37354 0.11254   -0.569384
 O 0.9926 0.11254 0.37354   -0.569383
 O 0.9926 0.52132 0.37354   -0.569384
 O 0.52132 0.9926 0.11254   -0.569384
 O 0.37354 0.11254 0.9926   -0.569384
 O 0.11254 0.37354 0.52132   -0.569384
 O 0.9926 0.37354 0.11254   -0.569384
 O 0.52132 0.11254 0.37354   -0.569384
 O 0.37354 0.9926 0.52132   -0.569384
 O 0.11254 0.52132 0.9926   -0.569384
 O 0.9926 0.11254 0.52132   -0.569384
 O 0.52132 0.37354 0.9926   -0.569384
 O 0.37354 0.52132 0.11254   -0.569384
 O 0.11254 0.9926 0.37354   -0.569384
 O 0.47868 0.0074 0.62646   -0.569384
 O 0.0074 0.47868 0.88746   -0.569384
 O 0.88746 0.62646 0.0074   -0.569384
 O 0.62646 0.88746 0.47868   -0.569384
 O 0.62646 0.0074 0.88746   -0.569384
 O 0.88746 0.47868 0.62646   -0.569384
 O 0.0074 0.62646 0.47868   -0.569384
 O 0.47868 0.88746 0.0074   -0.569384
 O 0.88746 0.0074 0.47868   -0.569384
 O 0.62646 0.47868 0.0074   -0.569384
 O 0.47868 0.62646 0.88746   -0.569384
 O 0.0074 0.88746 0.62646   -0.569384
