{'_ref': 'TBD', '_srcid': 'CAKYAQ_clean', 'submitters': [{'name': 'Dalar Nazarian Jeff Camp and David Sholl', 'email': 'dalar@gatech.edu jcamp6@gatech.edu'}], '_method': 'VASP DFT with PBE;DDEC'}
data_CuH2(C3O2)2
_symmetry_space_group_name_H-M   'P 1'
_cell_length_a   18.66260026
_cell_length_b   18.66260005
_cell_length_c   18.66260000
_cell_angle_alpha   60.00000009
_cell_angle_beta   60.00000046
_cell_angle_gamma   59.99999891
_symmetry_Int_Tables_number   1
_chemical_formula_structural   CuH2(C3O2)2
_chemical_formula_sum   'Cu12 H24 C72 O48'
_cell_volume   4596.22680374
_cell_formula_units_Z   12
loop_
 _symmetry_equiv_pos_site_id
 _symmetry_equiv_pos_as_xyz
  1  'x, y, z'
loop_
 _atom_site_label
 _atom_site_fract_x
 _atom_site_fract_y
 _atom_site_fract_z
 _atom_site_charge
 Cu 0.5 0.06986 0.93014   0.933773
 Cu 0.06986 0.5 0.5   0.933773
 Cu 0.93014 0.5 0.5   0.933772
 Cu 0.5 0.93014 0.06986   0.933773
 Cu 0.5 0.93014 0.5   0.933773
 Cu 0.06986 0.5 0.93014   0.933773
 Cu 0.93014 0.5 0.06986   0.933773
 Cu 0.5 0.06986 0.5   0.933772
 Cu 0.5 0.5 0.06986   0.933773
 Cu 0.06986 0.93014 0.5   0.933773
 Cu 0.93014 0.06986 0.5   0.933773
 Cu 0.5 0.5 0.93014   0.933773
 H 0.4682 0.9882 0.7718   0.118636
 H 0.9882 0.4682 0.7718   0.118636
 H 0.7718 0.7718 0.4682   0.118635
 H 0.7718 0.7718 0.9882   0.118636
 H 0.4682 0.7718 0.7718   0.118636
 H 0.9882 0.7718 0.7718   0.118636
 H 0.7718 0.4682 0.9882   0.118636
 H 0.7718 0.9882 0.4682   0.118636
 H 0.4682 0.7718 0.9882   0.118636
 H 0.9882 0.7718 0.4682   0.118636
 H 0.7718 0.9882 0.7718   0.118636
 H 0.7718 0.4682 0.7718   0.118635
 H 0.0118 0.5318 0.2282   0.118635
 H 0.5318 0.0118 0.2282   0.118636
 H 0.2282 0.2282 0.5318   0.118635
 H 0.2282 0.2282 0.0118   0.118636
 H 0.2282 0.5318 0.2282   0.118635
 H 0.2282 0.0118 0.2282   0.118636
 H 0.5318 0.2282 0.0118   0.118636
 H 0.0118 0.2282 0.5318   0.118636
 H 0.2282 0.5318 0.0118   0.118636
 H 0.2282 0.0118 0.5318   0.118636
 H 0.0118 0.2282 0.2282   0.118636
 H 0.5318 0.2282 0.2282   0.118635
 C 0.46734 0.93086 0.8009   0.031096
 C 0.93086 0.46734 0.8009   0.031096
 C 0.8009 0.8009 0.46734   0.031096
 C 0.8009 0.8009 0.93086   0.031096
 C 0.46734 0.8009 0.8009   0.031096
 C 0.93086 0.8009 0.8009   0.031096
 C 0.8009 0.46734 0.93086   0.031096
 C 0.8009 0.93086 0.46734   0.031096
 C 0.46734 0.8009 0.93086   0.031096
 C 0.93086 0.8009 0.46734   0.031096
 C 0.8009 0.93086 0.8009   0.031096
 C 0.8009 0.46734 0.8009   0.031096
 C 0.06914 0.53266 0.1991   0.031096
 C 0.53266 0.06914 0.1991   0.031096
 C 0.1991 0.1991 0.53266   0.031096
 C 0.1991 0.1991 0.06914   0.031096
 C 0.1991 0.53266 0.1991   0.031096
 C 0.1991 0.06914 0.1991   0.031096
 C 0.53266 0.1991 0.06914   0.031096
 C 0.06914 0.1991 0.53266   0.031096
 C 0.1991 0.53266 0.06914   0.031096
 C 0.1991 0.06914 0.53266   0.031096
 C 0.06914 0.1991 0.1991   0.031096
 C 0.53266 0.1991 0.1991   0.031096
 C 0.46676 0.8874 0.8874   -0.16385
 C 0.47428 0.9312 0.9312   0.682516
 C 0.8874 0.46676 0.75844   -0.16385
 C 0.9312 0.47428 0.66332   0.682516
 C 0.8874 0.75844 0.46676   -0.16385
 C 0.9312 0.66332 0.47428   0.682515
 C 0.75844 0.8874 0.8874   -0.16385
 C 0.66332 0.9312 0.9312   0.682515
 C 0.46676 0.8874 0.75844   -0.16385
 C 0.47428 0.9312 0.66332   0.682516
 C 0.8874 0.75844 0.8874   -0.16385
 C 0.9312 0.66332 0.9312   0.682515
 C 0.8874 0.46676 0.8874   -0.16385
 C 0.9312 0.47428 0.9312   0.682516
 C 0.75844 0.8874 0.46676   -0.16385
 C 0.66332 0.9312 0.47428   0.682515
 C 0.46676 0.75844 0.8874   -0.16385
 C 0.47428 0.66332 0.9312   0.682515
 C 0.8874 0.8874 0.46676   -0.16385
 C 0.9312 0.9312 0.47428   0.682516
 C 0.8874 0.8874 0.75844   -0.16385
 C 0.9312 0.9312 0.66332   0.682515
 C 0.75844 0.46676 0.8874   -0.16385
 C 0.66332 0.47428 0.9312   0.682515
 C 0.1126 0.53324 0.1126   -0.16385
 C 0.0688 0.52572 0.0688   0.682516
 C 0.53324 0.1126 0.24156   -0.16385
 C 0.52572 0.0688 0.33668   0.682515
 C 0.24156 0.1126 0.53324   -0.16385
 C 0.33668 0.0688 0.52572   0.682515
 C 0.1126 0.24156 0.1126   -0.16385
 C 0.0688 0.33668 0.0688   0.682515
 C 0.1126 0.53324 0.24156   -0.16385
 C 0.0688 0.52572 0.33668   0.682515
 C 0.24156 0.1126 0.1126   -0.16385
 C 0.33668 0.0688 0.0688   0.682515
 C 0.53324 0.1126 0.1126   -0.16385
 C 0.52572 0.0688 0.0688   0.682515
 C 0.1126 0.24156 0.53324   -0.16385
 C 0.0688 0.33668 0.52572   0.682515
 C 0.24156 0.53324 0.1126   -0.16385
 C 0.33668 0.52572 0.0688   0.682515
 C 0.1126 0.1126 0.53324   -0.16385
 C 0.0688 0.0688 0.52572   0.682515
 C 0.1126 0.1126 0.24156   -0.16385
 C 0.0688 0.0688 0.33668   0.682515
 C 0.53324 0.24156 0.1126   -0.16385
 C 0.52572 0.33668 0.0688   0.682515
 O 0.4788 0.00756 0.88758   -0.567642
 O 0.00756 0.4788 0.62606   -0.567642
 O 0.88758 0.62606 0.4788   -0.567642
 O 0.62606 0.88758 0.00756   -0.567642
 O 0.4788 0.88758 0.62606   -0.567642
 O 0.00756 0.62606 0.88758   -0.567642
 O 0.88758 0.4788 0.00756   -0.567642
 O 0.62606 0.00756 0.4788   -0.567642
 O 0.4788 0.62606 0.00756   -0.567642
 O 0.00756 0.88758 0.4788   -0.567642
 O 0.88758 0.00756 0.62606   -0.567642
 O 0.62606 0.4788 0.88758   -0.567642
 O 0.99244 0.5212 0.11242   -0.567642
 O 0.5212 0.99244 0.37394   -0.567642
 O 0.37394 0.11242 0.5212   -0.567642
 O 0.11242 0.37394 0.99244   -0.567642
 O 0.11242 0.5212 0.37394   -0.567642
 O 0.37394 0.99244 0.11242   -0.567642
 O 0.5212 0.11242 0.99244   -0.567642
 O 0.99244 0.37394 0.5212   -0.567642
 O 0.37394 0.5212 0.99244   -0.567642
 O 0.11242 0.99244 0.5212   -0.567642
 O 0.99244 0.11242 0.37394   -0.567642
 O 0.5212 0.37394 0.11242   -0.567642
 O 0.5212 0.99244 0.11242   -0.567642
 O 0.99244 0.5212 0.37394   -0.567642
 O 0.11242 0.37394 0.5212   -0.567642
 O 0.37394 0.11242 0.99244   -0.567642
 O 0.5212 0.11242 0.37394   -0.567642
 O 0.99244 0.37394 0.11242   -0.567642
 O 0.11242 0.5212 0.99244   -0.567642
 O 0.37394 0.99244 0.5212   -0.567642
 O 0.5212 0.37394 0.99244   -0.567642
 O 0.99244 0.11242 0.5212   -0.567642
 O 0.11242 0.99244 0.37394   -0.567642
 O 0.37394 0.5212 0.11242   -0.567642
 O 0.00756 0.4788 0.88758   -0.567642
 O 0.4788 0.00756 0.62606   -0.567642
 O 0.62606 0.88758 0.4788   -0.567642
 O 0.88758 0.62606 0.00756   -0.567642
 O 0.88758 0.4788 0.62606   -0.567642
 O 0.62606 0.00756 0.88758   -0.567642
 O 0.4788 0.88758 0.00756   -0.567642
 O 0.00756 0.62606 0.4788   -0.567642
 O 0.62606 0.4788 0.00756   -0.567642
 O 0.88758 0.00756 0.4788   -0.567642
 O 0.00756 0.88758 0.62606   -0.567642
 O 0.4788 0.62606 0.88758   -0.567642
