{'_ref': 'TBD', '_srcid': 'CAKYAQ_clean', 'submitters': [{'name': 'Dalar Nazarian Jeff Camp and David Sholl', 'email': 'dalar@gatech.edu jcamp6@gatech.edu'}], '_method': 'VASP DFT with PBE;DDEC'}
data_CoH4(C2O)4
_symmetry_space_group_name_H-M   'P 1'
_cell_length_a   11.20719975
_cell_length_b   22.30339963
_cell_length_c   22.30340000
_cell_angle_alpha   86.38090081
_cell_angle_beta   75.44879710
_cell_angle_gamma   75.44880097
_symmetry_Int_Tables_number   1
_chemical_formula_structural   CoH4(C2O)4
_chemical_formula_sum   'Co16 H64 C128 O64'
_cell_volume   5223.0156527
_cell_formula_units_Z   16
loop_
 _symmetry_equiv_pos_site_id
 _symmetry_equiv_pos_as_xyz
  1  'x, y, z'
loop_
 _atom_site_label
 _atom_site_fract_x
 _atom_site_fract_y
 _atom_site_fract_z
 _atom_site_charge
 Co 0.03606 0.40346 0.86828   0.986586
 Co 0.25532 0.39862 0.72996   1.154527
 Co 0.8078 0.09654 0.63172   0.986298
 Co 0.8839 0.10138 0.77004   1.155118
 Co 0.90434 0.13172 0.90346   0.986135
 Co 0.98528 0.27004 0.89862   1.155015
 Co 0.43952 0.36828 0.59654   0.985847
 Co 0.65394 0.22996 0.60138   1.155084
 Co 0.96394 0.59654 0.13172   0.986586
 Co 0.74468 0.60138 0.27004   1.154527
 Co 0.1922 0.90346 0.36828   0.986298
 Co 0.1161 0.89862 0.22996   1.155118
 Co 0.09566 0.86828 0.09654   0.986135
 Co 0.01472 0.72996 0.10138   1.155015
 Co 0.56048 0.63172 0.40346   0.985847
 Co 0.34606 0.77004 0.39862   1.155084
 H 0.3959 0.5473 0.7951   0.106395
 H 0.4312 0.6284 0.842   0.108985
 H 0.3045 0.6652 0.9372   0.106287
 H 0.1206 0.5314 0.9452   0.108766
 H 0.2824 0.2147 0.9273   0.095217
 H 0.4343 0.1229 0.9291   0.110275
 H 0.5899 0.0868 0.8404   0.103886
 H 0.4335 0.2313 0.7459   0.083484
 H 0.2383 0.9527 0.7049   0.10736
 H 0.4016 0.8716 0.658   0.109722
 H 0.4069 0.8348 0.5628   0.106078
 H 0.0972 0.9686 0.5548   0.108825
 H 0.9244 0.2853 0.5727   0.095113
 H 0.9863 0.3771 0.5709   0.110095
 H 0.0171 0.4132 0.6596   0.104612
 H 0.9107 0.2687 0.7541   0.084671
 H 0.191 0.2049 0.0473   0.106934
 H 0.2732 0.158 0.1284   0.108973
 H 0.2417 0.0628 0.1652   0.105428
 H 0.0658 0.0548 0.0314   0.109714
 H 0.2097 0.0727 0.7147   0.095304
 H 0.3634 0.0709 0.6229   0.11042
 H 0.4303 0.1596 0.5868   0.103191
 H 0.1794 0.2541 0.7313   0.084101
 H 0.9432 0.2951 0.4527   0.106335
 H 0.0596 0.342 0.3716   0.109578
 H 0.9697 0.4372 0.3348   0.106748
 H 0.652 0.4452 0.4686   0.109067
 H 0.4971 0.4273 0.7853   0.09538
 H 0.5572 0.4291 0.8771   0.110453
 H 0.6767 0.3404 0.9132   0.103816
 H 0.6648 0.2459 0.7687   0.084223
 H 0.6041 0.4527 0.2049   0.106394
 H 0.5688 0.3716 0.158   0.108978
 H 0.6955 0.3348 0.0628   0.106286
 H 0.8794 0.4686 0.0548   0.108766
 H 0.7176 0.7853 0.0727   0.095217
 H 0.5657 0.8771 0.0709   0.110275
 H 0.4101 0.9132 0.1596   0.103886
 H 0.5665 0.7687 0.2541   0.083484
 H 0.7617 0.0473 0.2951   0.107359
 H 0.5984 0.1284 0.342   0.109714
 H 0.5931 0.1652 0.4372   0.106076
 H 0.9028 0.0314 0.4452   0.108826
 H 0.0756 0.7147 0.4273   0.095113
 H 0.0137 0.6229 0.4291   0.110095
 H 0.9829 0.5868 0.3404   0.104612
 H 0.0893 0.7313 0.2459   0.084671
 H 0.809 0.7951 0.9527   0.106933
 H 0.7268 0.842 0.8716   0.108966
 H 0.7583 0.9372 0.8348   0.105427
 H 0.9342 0.9452 0.9686   0.109715
 H 0.7903 0.9273 0.2853   0.095304
 H 0.6366 0.9291 0.3771   0.11042
 H 0.5697 0.8404 0.4132   0.103191
 H 0.8206 0.7459 0.2687   0.084101
 H 0.0568 0.7049 0.5473   0.106334
 H 0.9404 0.658 0.6284   0.109571
 H 0.0303 0.5628 0.6652   0.106747
 H 0.348 0.5548 0.5314   0.109067
 H 0.5029 0.5727 0.2147   0.09538
 H 0.4428 0.5709 0.1229   0.110453
 H 0.3233 0.6596 0.0868   0.103816
 H 0.3352 0.7541 0.2313   0.084223
 C 0.22834 0.47773 0.83779   0.687051
 C 0.25397 0.5313 0.86556   -0.162159
 C 0.3471 0.56056 0.83444   -0.019459
 C 0.3668 0.6096 0.8622   -0.138226
 C 0.29222 0.63115 0.91961   -0.016304
 C 0.19932 0.602 0.95076   -0.158373
 C 0.18168 0.55175 0.92389   0.009698
 C 0.11642 0.62421 0.01335   0.68367
 C 0.2545 0.2948 0.8326   0.732432
 C 0.34392 0.23315 0.83641   -0.166254
 C 0.34356 0.20009 0.89139   0.009368
 C 0.43505 0.14514 0.89236   -0.128724
 C 0.5276 0.12293 0.83907   0.016082
 C 0.52616 0.15526 0.78382   -0.175092
 C 0.4344 0.20985 0.78295   0.024532
 C 0.62623 0.13518 0.72616   0.711192
 C 0.04386 0.02227 0.66221   0.685948
 C 0.15083 0.9687 0.63444   -0.15943
 C 0.2421 0.93944 0.66556   -0.023348
 C 0.3386 0.8904 0.6378   -0.137072
 C 0.34298 0.86885 0.58039   -0.01595
 C 0.25208 0.898 0.54924   -0.158611
 C 0.15732 0.94825 0.57611   0.008711
 C 0.25398 0.87579 0.48665   0.682273
 C 0.8819 0.2052 0.6674   0.733732
 C 0.91348 0.26685 0.66359   -0.1649
 C 0.93504 0.29991 0.60861   0.008362
 C 0.97255 0.35486 0.60764   -0.128712
 C 0.9896 0.37707 0.66093   0.016513
 C 0.96524 0.34474 0.71618   -0.174111
 C 0.9272 0.29015 0.71705   0.022048
 C 0.98757 0.36482 0.77384   0.711226
 C 0.06613 0.16221 0.97773   0.683732
 C 0.11953 0.13444 0.0313   -0.158326
 C 0.18154 0.16556 0.06056   -0.02353
 C 0.229 0.1378 0.1096   -0.136289
 C 0.21183 0.08039 0.13115   -0.015937
 C 0.15008 0.04924 0.102   -0.157324
 C 0.10557 0.07611 0.05175   0.006936
 C 0.12977 0.98665 0.12421   0.683535
 C 0.0871 0.1674 0.7948   0.732036
 C 0.18033 0.16359 0.73315   -0.167176
 C 0.23495 0.10861 0.70009   0.010041
 C 0.32741 0.10764 0.64514   -0.130098
 C 0.36667 0.16093 0.62293   0.017408
 C 0.30998 0.21618 0.65526   -0.173458
 C 0.21735 0.21705 0.70985   0.024552
 C 0.35239 0.27384 0.63518   0.708921
 C 0.70607 0.33779 0.52227   0.684675
 C 0.78527 0.36556 0.4687   -0.160478
 C 0.90766 0.33444 0.43944   -0.020288
 C 0.9764 0.3622 0.3904   -0.137462
 C 0.92337 0.41961 0.36885   -0.017983
 C 0.80132 0.45076 0.398   -0.158086
 C 0.73343 0.42389 0.44825   0.008784
 C 0.74063 0.51335 0.37579   0.682219
 C 0.5493 0.3326 0.7052   0.733612
 C 0.57707 0.33641 0.76685   -0.166194
 C 0.54365 0.39139 0.79991   0.009175
 C 0.58019 0.39236 0.85486   -0.128753
 C 0.65053 0.33907 0.87707   0.015771
 C 0.68142 0.28382 0.84474   -0.172999
 C 0.64425 0.28295 0.79015   0.022591
 C 0.76141 0.22616 0.86482   0.709869
 C 0.77166 0.52227 0.16221   0.687051
 C 0.74603 0.4687 0.13444   -0.162159
 C 0.6529 0.43944 0.16556   -0.019459
 C 0.6332 0.3904 0.1378   -0.138224
 C 0.70778 0.36885 0.08039   -0.016304
 C 0.80068 0.398 0.04924   -0.158373
 C 0.81832 0.44825 0.07611   0.009698
 C 0.88358 0.37579 0.98665   0.68367
 C 0.7455 0.7052 0.1674   0.732432
 C 0.65608 0.76685 0.16359   -0.166254
 C 0.65644 0.79991 0.10861   0.009368
 C 0.56495 0.85486 0.10764   -0.128724
 C 0.4724 0.87707 0.16093   0.016082
 C 0.47384 0.84474 0.21618   -0.175092
 C 0.5656 0.79015 0.21705   0.024532
 C 0.37377 0.86482 0.27384   0.711192
 C 0.95614 0.97773 0.33779   0.685948
 C 0.84917 0.0313 0.36556   -0.159429
 C 0.7579 0.06056 0.33444   -0.023348
 C 0.6614 0.1096 0.3622   -0.13707
 C 0.65702 0.13115 0.41961   -0.01595
 C 0.74792 0.102 0.45076   -0.158611
 C 0.84268 0.05175 0.42389   0.008711
 C 0.74602 0.12421 0.51335   0.682273
 C 0.1181 0.7948 0.3326   0.733732
 C 0.08652 0.73315 0.33641   -0.1649
 C 0.06496 0.70009 0.39139   0.008362
 C 0.02745 0.64514 0.39236   -0.128712
 C 0.0104 0.62293 0.33907   0.016513
 C 0.03476 0.65526 0.28382   -0.174111
 C 0.0728 0.70985 0.28295   0.022048
 C 0.01243 0.63518 0.22616   0.711226
 C 0.93387 0.83779 0.02227   0.683732
 C 0.88047 0.86556 0.9687   -0.158326
 C 0.81846 0.83444 0.93944   -0.023529
 C 0.771 0.8622 0.8904   -0.136287
 C 0.78817 0.91961 0.86885   -0.015937
 C 0.84992 0.95076 0.898   -0.157324
 C 0.89443 0.92389 0.94825   0.006935
 C 0.87023 0.01335 0.87579   0.683535
 C 0.9129 0.8326 0.2052   0.732036
 C 0.81967 0.83641 0.26685   -0.167176
 C 0.76505 0.89139 0.29991   0.010041
 C 0.67259 0.89236 0.35486   -0.130098
 C 0.63333 0.83907 0.37707   0.017408
 C 0.69002 0.78382 0.34474   -0.173458
 C 0.78265 0.78295 0.29015   0.024552
 C 0.64761 0.72616 0.36482   0.708921
 C 0.29393 0.66221 0.47773   0.684676
 C 0.21473 0.63444 0.5313   -0.160478
 C 0.09234 0.66556 0.56056   -0.020288
 C 0.0236 0.6378 0.6096   -0.13746
 C 0.07663 0.58039 0.63115   -0.017983
 C 0.19868 0.54924 0.602   -0.158086
 C 0.26657 0.57611 0.55175   0.008784
 C 0.25937 0.48665 0.62421   0.682219
 C 0.4507 0.6674 0.2948   0.733612
 C 0.42293 0.66359 0.23315   -0.166194
 C 0.45635 0.60861 0.20009   0.009175
 C 0.41981 0.60764 0.14514   -0.128753
 C 0.34947 0.66093 0.12293   0.01577
 C 0.31858 0.71618 0.15526   -0.172999
 C 0.35575 0.71705 0.20985   0.022591
 C 0.23859 0.77384 0.13518   0.709869
 O 0.169 0.44489 0.87551   -0.579081
 O 0.26759 0.46896 0.78066   -0.591264
 O 0.03422 0.59505 0.03871   -0.574031
 O 0.13485 0.66987 0.03643   -0.597293
 O 0.15076 0.3117 0.87398   -0.628194
 O 0.29075 0.32721 0.78709   -0.62489
 O 0.61046 0.15401 0.67387   -0.632272
 O 0.73122 0.09727 0.72969   -0.64767
 O 0.9894 0.05511 0.62449   -0.5781
 O 0.01721 0.03104 0.71934   -0.591324
 O 0.16798 0.90495 0.46129   -0.573866
 O 0.34115 0.83013 0.46357   -0.596162
 O 0.83644 0.1883 0.62602   -0.629599
 O 0.90505 0.17279 0.71291   -0.625366
 O 0.93834 0.34599 0.82613   -0.632259
 O 0.05818 0.40273 0.77031   -0.647862
 O 0.04451 0.12449 0.94489   -0.576806
 O 0.04825 0.21934 0.96896   -0.590823
 O 0.07293 0.96129 0.09505   -0.574038
 O 0.17128 0.96357 0.16987   -0.597159
 O 0.02474 0.12602 0.8117   -0.628188
 O 0.07784 0.21291 0.82721   -0.624757
 O 0.28433 0.32613 0.65401   -0.63187
 O 0.46091 0.27031 0.59727   -0.646205
 O 0.61389 0.37551 0.55511   -0.576696
 O 0.73655 0.28066 0.53104   -0.59086
 O 0.62927 0.53871 0.40495   -0.574492
 O 0.80472 0.53643 0.33013   -0.595491
 O 0.46246 0.37398 0.6883   -0.629633
 O 0.61796 0.28709 0.67279   -0.624975
 O 0.76447 0.17387 0.84599   -0.631276
 O 0.82849 0.22969 0.90273   -0.64712
 O 0.831 0.55511 0.12449   -0.579081
 O 0.73241 0.53104 0.21934   -0.591264
 O 0.96578 0.40495 0.96129   -0.574031
 O 0.86515 0.33013 0.96357   -0.597293
 O 0.84924 0.6883 0.12602   -0.628194
 O 0.70925 0.67279 0.21291   -0.62489
 O 0.38954 0.84599 0.32613   -0.632272
 O 0.26878 0.90273 0.27031   -0.64767
 O 0.0106 0.94489 0.37551   -0.5781
 O 0.98279 0.96896 0.28066   -0.591324
 O 0.83202 0.09505 0.53871   -0.573866
 O 0.65885 0.16987 0.53643   -0.596162
 O 0.16356 0.8117 0.37398   -0.629599
 O 0.09495 0.82721 0.28709   -0.625366
 O 0.06166 0.65401 0.17387   -0.632259
 O 0.94182 0.59727 0.22969   -0.647862
 O 0.95549 0.87551 0.05511   -0.576806
 O 0.95175 0.78066 0.03104   -0.590822
 O 0.92707 0.03871 0.90495   -0.574038
 O 0.82872 0.03643 0.83013   -0.597159
 O 0.97526 0.87398 0.1883   -0.628188
 O 0.92216 0.78709 0.17279   -0.624757
 O 0.71567 0.67387 0.34599   -0.63187
 O 0.53909 0.72969 0.40273   -0.646205
 O 0.38611 0.62449 0.44489   -0.576696
 O 0.26345 0.71934 0.46896   -0.59086
 O 0.37073 0.46129 0.59505   -0.574492
 O 0.19528 0.46357 0.66987   -0.595491
 O 0.53754 0.62602 0.3117   -0.629633
 O 0.38204 0.71291 0.32721   -0.624975
 O 0.23553 0.82613 0.15401   -0.631276
 O 0.17151 0.77031 0.09727   -0.64712
