{'_ref': 'TBD', '_srcid': 'CAKYAQ_clean', 'submitters': [{'name': 'Dalar Nazarian Jeff Camp and David Sholl', 'email': 'dalar@gatech.edu jcamp6@gatech.edu'}], '_method': 'VASP DFT with PBE;DDEC'}
data_NiH4C9(NO2)2
_symmetry_space_group_name_H-M   'P 1'
_cell_length_a   9.94980024
_cell_length_b   9.94979977
_cell_length_c   14.37600000
_cell_angle_alpha   98.35149788
_cell_angle_beta   98.35149748
_cell_angle_gamma   107.67699935
_symmetry_Int_Tables_number   1
_chemical_formula_structural   NiH4C9(NO2)2
_chemical_formula_sum   'Ni4 H16 C36 N8 O16'
_cell_volume   1314.28128771
_cell_formula_units_Z   4
loop_
 _symmetry_equiv_pos_site_id
 _symmetry_equiv_pos_as_xyz
  1  'x, y, z'
loop_
 _atom_site_label
 _atom_site_fract_x
 _atom_site_fract_y
 _atom_site_fract_z
 _atom_site_charge
 Ni 0.00236 0.50008 0.25466   0.673169
 Ni 0.49992 0.99764 0.24534   0.673168
 Ni 0.99764 0.49992 0.74534   0.673169
 Ni 0.50008 0.00236 0.75466   0.673168
 H 0.2722 0.3996 0.2646   0.097027
 H 0.7362 0.605 0.2557   0.089365
 H 0.8444 0.8274 0.3748   0.08153
 H 0.6004 0.7278 0.2354   0.097024
 H 0.395 0.2638 0.2443   0.089365
 H 0.1726 0.1556 0.1252   0.08153
 H 0.7278 0.6004 0.7354   0.097027
 H 0.2638 0.395 0.7443   0.089365
 H 0.1556 0.1726 0.6252   0.081532
 H 0.3996 0.2722 0.7646   0.097023
 H 0.605 0.7362 0.7557   0.089365
 H 0.8274 0.8444 0.8748   0.081531
 H 0.231 0.769 0.25   0.075196
 H 0.7722 0.2278 0.25   0.079736
 H 0.769 0.231 0.75   0.075196
 H 0.2278 0.7722 0.75   0.079736
 C 0.3106 0.4944 0.2577   0.197381
 C 0.6939 0.5071 0.2532   0.202525
 C 0.0347 0.8767 0.4654   -0.075725
 C 0.1305 0.9851 0.5416   -0.04245
 C 0.9071 0.8971 0.4258   -0.069765
 C 0.059 0.7402 0.4278   0.660662
 C 0.2774 0.981 0.5823   0.638631
 C 0.5056 0.6894 0.2423   0.197386
 C 0.4929 0.3061 0.2468   0.202522
 C 0.1233 0.9653 0.0346   -0.075725
 C 0.0149 0.8695 0.9584   -0.042449
 C 0.1029 0.0929 0.0742   -0.06977
 C 0.2598 0.941 0.0722   0.660662
 C 0.019 0.7226 0.9177   0.638631
 C 0.6894 0.5056 0.7423   0.197386
 C 0.3061 0.4929 0.7468   0.202527
 C 0.9653 0.1233 0.5346   -0.075719
 C 0.8695 0.0149 0.4584   -0.042471
 C 0.0929 0.1029 0.5742   -0.069782
 C 0.941 0.2598 0.5722   0.660662
 C 0.7226 0.019 0.4177   0.638637
 C 0.4944 0.3106 0.7577   0.19739
 C 0.5071 0.6939 0.7532   0.202524
 C 0.8767 0.0347 0.9654   -0.075718
 C 0.9851 0.1305 0.0416   -0.04247
 C 0.8971 0.9071 0.9258   -0.069787
 C 0.7402 0.059 0.9278   0.660661
 C 0.981 0.2774 0.0823   0.638637
 C 0.454 0.546 0.25   -0.081679
 C 0.2889 0.7111 0.25   0.401707
 C 0.5458 0.4542 0.25   -0.09801
 C 0.7143 0.2857 0.25   0.402189
 C 0.546 0.454 0.75   -0.081679
 C 0.7111 0.2889 0.75   0.401707
 C 0.4542 0.5458 0.75   -0.09801
 C 0.2857 0.7143 0.75   0.402189
 N 0.2263 0.5753 0.2554   -0.311252
 N 0.778 0.4252 0.2528   -0.307084
 N 0.4247 0.7737 0.2446   -0.311253
 N 0.5748 0.222 0.2472   -0.307081
 N 0.7737 0.4247 0.7446   -0.311252
 N 0.222 0.5748 0.7472   -0.307084
 N 0.5753 0.2263 0.7554   -0.311253
 N 0.4252 0.778 0.7528   -0.307081
 O 0.0139 0.6885 0.3394   -0.580662
 O 0.1186 0.6836 0.4864   -0.560191
 O 0.3051 0.9843 0.6719   -0.572485
 O 0.3634 0.9806 0.5296   -0.510236
 O 0.3115 0.9861 0.1606   -0.580662
 O 0.3164 0.8814 0.0136   -0.560191
 O 0.0157 0.6949 0.8281   -0.572486
 O 0.0194 0.6366 0.9704   -0.510236
 O 0.9861 0.3115 0.6606   -0.580662
 O 0.8814 0.3164 0.5136   -0.560191
 O 0.6949 0.0157 0.3281   -0.572485
 O 0.6366 0.0194 0.4704   -0.510232
 O 0.6885 0.0139 0.8394   -0.580662
 O 0.6836 0.1186 0.9864   -0.560191
 O 0.9843 0.3051 0.1719   -0.572486
 O 0.9806 0.3634 0.0296   -0.510231
