{'_ref': 'TBD', '_srcid': 'CAKYAQ_clean', 'submitters': [{'name': 'Dalar Nazarian Jeff Camp and David Sholl', 'email': 'dalar@gatech.edu jcamp6@gatech.edu'}], '_method': 'VASP DFT with PBE;DDEC'}
data_Gd2CuC28(NO4)4
_symmetry_space_group_name_H-M   'P 1'
_cell_length_a   7.78150000
_cell_length_b   9.25999964
_cell_length_c   25.54300000
_cell_angle_alpha   90.00000000
_cell_angle_beta   90.00000000
_cell_angle_gamma   97.35999980
_symmetry_Int_Tables_number   1
_chemical_formula_structural   Gd2CuC28(NO4)4
_chemical_formula_sum   'Gd4 Cu2 C56 N8 O32'
_cell_volume   1825.37942069
_cell_formula_units_Z   2
loop_
 _symmetry_equiv_pos_site_id
 _symmetry_equiv_pos_as_xyz
  1  'x, y, z'
loop_
 _atom_site_label
 _atom_site_fract_x
 _atom_site_fract_y
 _atom_site_fract_z
 _atom_site_charge
 Gd 0.41277 0.48775 0.3494   1.855835
 Gd 0.08723 0.51225 0.8494   1.855835
 Gd 0.58723 0.51225 0.6506   1.856059
 Gd 0.91277 0.48775 0.1506   1.856059
 Cu 0.5 0.0 0.5   2.887688
 Cu 0.0 0.0 0.0   2.887688
 C 0.7204 0.4035 0.272   0.740988
 C 0.6628 0.2541 0.2951   0.093103
 C 0.7291 0.1302 0.2772   -0.054179
 C 0.6731 0.9976 0.3009   0.126522
 C 0.5526 0.9932 0.341   -0.277801
 C 0.4931 0.1221 0.3563   0.22379
 C 0.4839 0.8522 0.368   0.870594
 C 0.6976 0.7773 0.4927   0.581485
 C 0.8002 0.9044 0.4633   0.09764
 C 0.9483 0.8935 0.435   -0.000155
 C 0.0309 0.019 0.4114   0.064511
 C 0.9601 0.1497 0.4152   -0.229859
 C 0.8081 0.1502 0.443   0.330107
 C 0.0425 0.2881 0.3894   0.682955
 C 0.7796 0.5965 0.772   0.740988
 C 0.8372 0.7459 0.7951   0.093103
 C 0.7709 0.8698 0.7772   -0.054179
 C 0.8269 0.0024 0.8009   0.126522
 C 0.9474 0.0068 0.841   -0.277801
 C 0.0069 0.8779 0.8563   0.22379
 C 0.0161 0.1478 0.868   0.870594
 C 0.8024 0.2227 0.9927   0.581485
 C 0.6998 0.0956 0.9633   0.09764
 C 0.5517 0.1065 0.935   -0.000155
 C 0.4691 0.981 0.9114   0.064511
 C 0.5399 0.8503 0.9152   -0.229859
 C 0.6919 0.8498 0.943   0.330107
 C 0.4575 0.7119 0.8894   0.682955
 C 0.2796 0.5965 0.728   0.741
 C 0.3372 0.7459 0.7049   0.093083
 C 0.2709 0.8698 0.7228   -0.053808
 C 0.3269 0.0024 0.6991   0.126718
 C 0.4474 0.0068 0.659   -0.277716
 C 0.5069 0.8779 0.6437   0.223852
 C 0.5161 0.1478 0.632   0.870609
 C 0.3024 0.2227 0.5073   0.581436
 C 0.1998 0.0956 0.5367   0.097471
 C 0.0517 0.1065 0.565   -0.000269
 C 0.9691 0.981 0.5886   0.06451
 C 0.0399 0.8503 0.5848   -0.229888
 C 0.1919 0.8498 0.557   0.330084
 C 0.9575 0.7119 0.6106   0.682983
 C 0.2204 0.4035 0.228   0.741
 C 0.1628 0.2541 0.2049   0.093083
 C 0.2291 0.1302 0.2228   -0.053808
 C 0.1731 0.9976 0.1991   0.126718
 C 0.0526 0.9932 0.159   -0.277716
 C 0.9931 0.1221 0.1437   0.223852
 C 0.9839 0.8522 0.132   0.870609
 C 0.1976 0.7773 0.0073   0.581436
 C 0.3002 0.9044 0.0367   0.097471
 C 0.4483 0.8935 0.065   -0.000269
 C 0.5309 0.019 0.0886   0.06451
 C 0.4601 0.1497 0.0848   -0.229888
 C 0.3081 0.1502 0.057   0.330084
 C 0.5425 0.2881 0.1106   0.682983
 N 0.5452 0.2506 0.3335   -0.458013
 N 0.7301 0.0302 0.4666   -0.917096
 N 0.9548 0.7494 0.8335   -0.458013
 N 0.7699 0.9698 0.9666   -0.917096
 N 0.4548 0.7494 0.6665   -0.458026
 N 0.2699 0.9698 0.5334   -0.917079
 N 0.0452 0.2506 0.1665   -0.458026
 N 0.2301 0.0302 0.0334   -0.917079
 O 0.6652 0.5098 0.29354   -0.610449
 O 0.8221 0.4097 0.23434   -0.697981
 O 0.5076 0.7368 0.3434   -0.717563
 O 0.4112 0.8584 0.41117   -0.872119
 O 0.5633 0.8086 0.5166   -0.716767
 O 0.7522 0.6577 0.49162   -0.410144
 O 0.2006 0.2956 0.3767   -0.728877
 O 0.9482 0.3858 0.3829   -0.42057
 O 0.8348 0.4902 0.79354   -0.610449
 O 0.6779 0.5903 0.73434   -0.697981
 O 0.9924 0.2632 0.8434   -0.717563
 O 0.0888 0.1416 0.91117   -0.872119
 O 0.9367 0.1914 0.0166   -0.716767
 O 0.7478 0.3423 0.99162   -0.410144
 O 0.2994 0.7044 0.8767   -0.728877
 O 0.5518 0.6142 0.8829   -0.42057
 O 0.3348 0.4902 0.70646   -0.610473
 O 0.1779 0.5903 0.76566   -0.697989
 O 0.4924 0.2632 0.6566   -0.717584
 O 0.5888 0.1416 0.58883   -0.872123
 O 0.4367 0.1914 0.4834   -0.716812
 O 0.2478 0.3423 0.50838   -0.410158
 O 0.7994 0.7044 0.6233   -0.728954
 O 0.0518 0.6142 0.6171   -0.420574
 O 0.1652 0.5098 0.20646   -0.610473
 O 0.3221 0.4097 0.26566   -0.697989
 O 0.0076 0.7368 0.1566   -0.717584
 O 0.9112 0.8584 0.08883   -0.872123
 O 0.0633 0.8086 0.9834   -0.716812
 O 0.2522 0.6577 0.00838   -0.410158
 O 0.7006 0.2956 0.1233   -0.728954
 O 0.4482 0.3858 0.1171   -0.420574
