{'_ref': 'TBD', '_srcid': 'CAKYAQ_clean', 'submitters': [{'name': 'Dalar Nazarian Jeff Camp and David Sholl', 'email': 'dalar@gatech.edu jcamp6@gatech.edu'}], '_method': 'VASP DFT with PBE;DDEC'}
data_InH11C22O5
_symmetry_space_group_name_H-M   'P 1'
_cell_length_a   14.32530000
_cell_length_b   15.63229993
_cell_length_c   16.18540000
_cell_angle_alpha   90.00000000
_cell_angle_beta   90.00000000
_cell_angle_gamma   103.23700103
_symmetry_Int_Tables_number   1
_chemical_formula_structural   InH11C22O5
_chemical_formula_sum   'In4 H44 C88 O20'
_cell_volume   3528.21724582
_cell_formula_units_Z   4
loop_
 _symmetry_equiv_pos_site_id
 _symmetry_equiv_pos_as_xyz
  1  'x, y, z'
loop_
 _atom_site_label
 _atom_site_fract_x
 _atom_site_fract_y
 _atom_site_fract_z
 _atom_site_charge
 In 0.0 0.5 0.0   1.766048
 In 0.5 0.5 0.0   1.766048
 In 0.25 0.5 0.0082   1.741564
 In 0.75 0.5 0.9918   1.741564
 H 0.1516 0.6997 0.5035   0.14825
 H 0.2174 0.9109 0.7194   0.138101
 H 0.2153 0.9109 0.2878   0.138019
 H 0.3237 0.6768 0.8018   0.11381
 H 0.3259 0.7281 0.6562   0.105369
 H 0.0707 0.8082 0.7065   0.103917
 H 0.0502 0.7174 0.8337   0.109404
 H 0.3254 0.6734 0.2075   0.111721
 H 0.329 0.7314 0.3508   0.10362
 H 0.067 0.8 0.3014   0.102198
 H 0.0459 0.7025 0.1785   0.111744
 H 0.3484 0.3003 0.5035   0.148251
 H 0.2826 0.0891 0.7194   0.138102
 H 0.2847 0.0891 0.2878   0.138021
 H 0.1763 0.3232 0.8018   0.11381
 H 0.1741 0.2719 0.6562   0.105369
 H 0.4293 0.1918 0.7065   0.103917
 H 0.4498 0.2826 0.8337   0.109404
 H 0.1746 0.3266 0.2075   0.111721
 H 0.171 0.2686 0.3508   0.10362
 H 0.433 0.2 0.3014   0.102198
 H 0.4541 0.2975 0.1785   0.111744
 H 0.8484 0.3003 0.4965   0.148251
 H 0.7826 0.0891 0.2806   0.138101
 H 0.7847 0.0891 0.7122   0.138019
 H 0.6763 0.3232 0.1982   0.11381
 H 0.6741 0.2719 0.3438   0.105369
 H 0.9293 0.1918 0.2935   0.103917
 H 0.9498 0.2826 0.1663   0.109404
 H 0.6746 0.3266 0.7925   0.11172
 H 0.671 0.2686 0.6492   0.10362
 H 0.933 0.2 0.6986   0.102198
 H 0.9541 0.2975 0.8215   0.111744
 H 0.6516 0.6997 0.4965   0.148252
 H 0.7174 0.9109 0.2806   0.138103
 H 0.7153 0.9109 0.7122   0.138021
 H 0.8237 0.6768 0.1982   0.11381
 H 0.8259 0.7281 0.3438   0.105369
 H 0.5707 0.8082 0.2935   0.103917
 H 0.5502 0.7174 0.1663   0.109404
 H 0.8254 0.6734 0.7925   0.11172
 H 0.829 0.7314 0.6492   0.103621
 H 0.567 0.8 0.6986   0.102198
 H 0.5459 0.7025 0.8215   0.111744
 C 0.1587 0.6104 0.8813   0.663372
 C 0.1652 0.6103 0.1225   0.704642
 C 0.1802 0.6806 0.8195   -0.084287
 C 0.1817 0.6759 0.1889   -0.096753
 C 0.2603 0.6941 0.7757   -0.024526
 C 0.262 0.6913 0.2327   -0.034086
 C 0.2648 0.7305 0.6955   -0.176523
 C 0.2667 0.7308 0.3118   -0.170866
 C 0.1945 0.7687 0.6656   0.084215
 C 0.1954 0.7682 0.3411   0.080551
 C 0.1228 0.7693 0.7206   -0.178597
 C 0.1212 0.7633 0.2876   -0.174241
 C 0.1136 0.7212 0.7953   -0.046384
 C 0.1119 0.7122 0.2144   -0.044998
 C 0.2031 0.8186 0.5813   0.053373
 C 0.2024 0.8185 0.4256   0.053387
 C 0.2261 0.9105 0.5824   0.017464
 C 0.2264 0.9104 0.4245   0.016879
 C 0.2312 0.9517 0.6641   -0.127819
 C 0.2306 0.9516 0.343   -0.126627
 C 0.182 0.7703 0.5035   -0.224392
 C 0.2343 0.9555 0.5034   0.019097
 C 0.3413 0.3896 0.8813   0.663372
 C 0.3348 0.3897 0.1225   0.704642
 C 0.3198 0.3194 0.8195   -0.084287
 C 0.3183 0.3241 0.1889   -0.096753
 C 0.2397 0.3059 0.7757   -0.024526
 C 0.238 0.3087 0.2327   -0.034085
 C 0.2352 0.2695 0.6955   -0.176523
 C 0.2333 0.2692 0.3118   -0.170865
 C 0.3055 0.2313 0.6656   0.084215
 C 0.3046 0.2318 0.3411   0.080551
 C 0.3772 0.2307 0.7206   -0.178597
 C 0.3788 0.2367 0.2876   -0.174241
 C 0.3864 0.2788 0.7953   -0.046384
 C 0.3881 0.2878 0.2144   -0.044998
 C 0.2969 0.1814 0.5813   0.053373
 C 0.2976 0.1815 0.4256   0.053387
 C 0.2739 0.0895 0.5824   0.017461
 C 0.2736 0.0896 0.4245   0.016877
 C 0.2688 0.0483 0.6641   -0.127817
 C 0.2694 0.0484 0.343   -0.126625
 C 0.318 0.2297 0.5035   -0.224392
 C 0.2657 0.0445 0.5034   0.019116
 C 0.8413 0.3896 0.1187   0.663372
 C 0.8348 0.3897 0.8775   0.704642
 C 0.8198 0.3194 0.1805   -0.084287
 C 0.8183 0.3241 0.8111   -0.096753
 C 0.7397 0.3059 0.2243   -0.024526
 C 0.738 0.3087 0.7673   -0.034085
 C 0.7352 0.2695 0.3045   -0.176523
 C 0.7333 0.2692 0.6882   -0.170866
 C 0.8055 0.2313 0.3344   0.084215
 C 0.8046 0.2318 0.6589   0.080551
 C 0.8772 0.2307 0.2794   -0.178597
 C 0.8788 0.2367 0.7124   -0.174241
 C 0.8864 0.2788 0.2047   -0.046384
 C 0.8881 0.2878 0.7856   -0.044997
 C 0.7969 0.1814 0.4187   0.053373
 C 0.7976 0.1815 0.5744   0.053387
 C 0.7739 0.0895 0.4176   0.017464
 C 0.7736 0.0896 0.5755   0.01688
 C 0.7688 0.0483 0.3359   -0.127819
 C 0.7694 0.0484 0.657   -0.126627
 C 0.818 0.2297 0.4965   -0.224392
 C 0.7657 0.0445 0.4966   0.019097
 C 0.6587 0.6104 0.1187   0.663372
 C 0.6652 0.6103 0.8775   0.704642
 C 0.6802 0.6806 0.1805   -0.084287
 C 0.6817 0.6759 0.8111   -0.096753
 C 0.7603 0.6941 0.2243   -0.024526
 C 0.762 0.6913 0.7673   -0.034085
 C 0.7648 0.7305 0.3045   -0.176523
 C 0.7667 0.7308 0.6882   -0.170866
 C 0.6945 0.7687 0.3344   0.084215
 C 0.6954 0.7682 0.6589   0.080551
 C 0.6228 0.7693 0.2794   -0.178597
 C 0.6212 0.7633 0.7124   -0.174241
 C 0.6136 0.7212 0.2047   -0.046384
 C 0.6119 0.7122 0.7856   -0.044997
 C 0.7031 0.8186 0.4187   0.053373
 C 0.7024 0.8185 0.5744   0.053387
 C 0.7261 0.9105 0.4176   0.017462
 C 0.7264 0.9104 0.5755   0.016877
 C 0.7312 0.9517 0.3359   -0.127817
 C 0.7306 0.9516 0.657   -0.126625
 C 0.682 0.7703 0.4965   -0.224392
 C 0.7343 0.9555 0.4966   0.019116
 O 0.887 0.5548 0.9986   -0.802305
 O 0.0744 0.5787 0.9004   -0.59373
 O 0.2358 0.5827 0.1052   -0.586449
 O 0.2316 0.5737 0.8995   -0.592227
 O 0.0777 0.5781 0.0987   -0.648142
 O 0.613 0.4452 0.9986   -0.802305
 O 0.4256 0.4213 0.9004   -0.59373
 O 0.2642 0.4173 0.1052   -0.586449
 O 0.2684 0.4263 0.8995   -0.592227
 O 0.4223 0.4219 0.0987   -0.648142
 O 0.113 0.4452 0.0014   -0.802305
 O 0.9256 0.4213 0.0996   -0.59373
 O 0.7642 0.4173 0.8948   -0.586449
 O 0.7684 0.4263 0.1005   -0.592227
 O 0.9223 0.4219 0.9013   -0.648142
 O 0.387 0.5548 0.0014   -0.802305
 O 0.5744 0.5787 0.0996   -0.59373
 O 0.7358 0.5827 0.8948   -0.586449
 O 0.7316 0.5737 0.1005   -0.592227
 O 0.5777 0.5781 0.9013   -0.648142
