{'_ref': 'TBD', '_srcid': 'CAKYAQ_clean', 'submitters': [{'name': 'Dalar Nazarian Jeff Camp and David Sholl', 'email': 'dalar@gatech.edu jcamp6@gatech.edu'}], '_method': 'VASP DFT with PBE;DDEC'}
data_Ce2H3C7O13
_symmetry_space_group_name_H-M   'P 1'
_cell_length_a   10.38700000
_cell_length_b   13.00900000
_cell_length_c   22.10200000
_cell_angle_alpha   90.00000000
_cell_angle_beta   90.00000000
_cell_angle_gamma   90.00000000
_symmetry_Int_Tables_number   1
_chemical_formula_structural   Ce2H3C7O13
_chemical_formula_sum   'Ce16 H24 C56 O104'
_cell_volume   2986.52132327
_cell_formula_units_Z   8
loop_
 _symmetry_equiv_pos_site_id
 _symmetry_equiv_pos_as_xyz
  1  'x, y, z'
loop_
 _atom_site_label
 _atom_site_fract_x
 _atom_site_fract_y
 _atom_site_fract_z
 _atom_site_charge
 Ce 0.69691 0.45159 0.52079   2.239239
 Ce 0.28583 0.53889 0.74509   2.259091
 Ce 0.30309 0.04841 0.02079   2.239239
 Ce 0.71417 0.96111 0.24509   2.259091
 Ce 0.19691 0.54841 0.97921   2.239239
 Ce 0.78583 0.46111 0.75491   2.259091
 Ce 0.80309 0.95159 0.47921   2.239239
 Ce 0.21417 0.03889 0.25491   2.259091
 Ce 0.30309 0.54841 0.47921   2.23924
 Ce 0.71417 0.46111 0.25491   2.259091
 Ce 0.69691 0.95159 0.97921   2.23924
 Ce 0.28583 0.03889 0.75491   2.259091
 Ce 0.80309 0.45159 0.02079   2.23924
 Ce 0.21417 0.53889 0.24509   2.259091
 Ce 0.19691 0.04841 0.52079   2.23924
 Ce 0.78583 0.96111 0.74509   2.259091
 H 0.4739 0.3265 0.467   0.396133
 H 0.575 0.1751 0.4625   0.078179
 H 0.5988 0.2209 0.4038   0.113362
 H 0.5261 0.1735 0.967   0.396133
 H 0.425 0.3249 0.9625   0.078179
 H 0.4012 0.2791 0.9038   0.113362
 H 0.9739 0.6735 0.033   0.396133
 H 0.075 0.8249 0.0375   0.078179
 H 0.0988 0.7791 0.0962   0.113362
 H 0.0261 0.8265 0.533   0.396133
 H 0.925 0.6751 0.5375   0.078179
 H 0.9012 0.7209 0.5962   0.113362
 H 0.5261 0.6735 0.533   0.396133
 H 0.425 0.8249 0.5375   0.078179
 H 0.4012 0.7791 0.5962   0.113362
 H 0.4739 0.8265 0.033   0.396133
 H 0.575 0.6751 0.0375   0.078179
 H 0.5988 0.7209 0.0962   0.113362
 H 0.0261 0.3265 0.967   0.396133
 H 0.925 0.1751 0.9625   0.078179
 H 0.9012 0.2209 0.9038   0.113362
 H 0.9739 0.1735 0.467   0.396133
 H 0.075 0.3249 0.4625   0.078179
 H 0.0988 0.2791 0.4038   0.113362
 C 0.0148 0.4782 0.53181   0.567707
 C 0.4464 0.4889 0.61366   0.609809
 C 0.5612 0.4882 0.65763   0.587888
 C 0.3354 0.2881 0.77826   0.572784
 C 0.2275 0.286 0.7297   0.559225
 C 0.6183 0.2283 0.4432   0.021528
 C 0.76 0.2261 0.45722   0.713095
 C 0.9852 0.0218 0.03181   0.567707
 C 0.5536 0.0111 0.11366   0.609809
 C 0.4388 0.0118 0.15763   0.587888
 C 0.6646 0.2119 0.27826   0.572784
 C 0.7725 0.214 0.2297   0.559225
 C 0.3817 0.2717 0.9432   0.021528
 C 0.24 0.2739 0.95722   0.713095
 C 0.5148 0.5218 0.96819   0.567707
 C 0.9464 0.5111 0.88634   0.609809
 C 0.0612 0.5118 0.84237   0.587888
 C 0.8354 0.7119 0.72174   0.572784
 C 0.7275 0.714 0.7703   0.559226
 C 0.1183 0.7717 0.0568   0.021528
 C 0.26 0.7739 0.04278   0.713095
 C 0.4852 0.9782 0.46819   0.567707
 C 0.0536 0.9889 0.38634   0.609809
 C 0.9388 0.9882 0.34237   0.587888
 C 0.1646 0.7881 0.22174   0.572784
 C 0.2725 0.786 0.2703   0.559226
 C 0.8817 0.7283 0.5568   0.021528
 C 0.74 0.7261 0.54278   0.713095
 C 0.9852 0.5218 0.46819   0.567707
 C 0.5536 0.5111 0.38634   0.609809
 C 0.4388 0.5118 0.34237   0.587888
 C 0.6646 0.7119 0.22174   0.572784
 C 0.7725 0.714 0.2703   0.559225
 C 0.3817 0.7717 0.5568   0.021528
 C 0.24 0.7739 0.54278   0.713095
 C 0.0148 0.9782 0.96819   0.567707
 C 0.4464 0.9889 0.88634   0.609809
 C 0.5612 0.9882 0.84237   0.587888
 C 0.3354 0.7881 0.72174   0.572784
 C 0.2275 0.786 0.7703   0.559225
 C 0.6183 0.7283 0.0568   0.021528
 C 0.76 0.7261 0.04278   0.713095
 C 0.4852 0.4782 0.03181   0.567707
 C 0.0536 0.4889 0.11366   0.609809
 C 0.9388 0.4882 0.15763   0.587888
 C 0.1646 0.2881 0.27826   0.572784
 C 0.2725 0.286 0.2297   0.559226
 C 0.8817 0.2283 0.9432   0.021528
 C 0.74 0.2261 0.95722   0.713095
 C 0.5148 0.0218 0.53181   0.567707
 C 0.9464 0.0111 0.61366   0.609809
 C 0.0612 0.0118 0.65763   0.587888
 C 0.8354 0.2119 0.77826   0.572784
 C 0.7275 0.214 0.7297   0.559226
 C 0.1183 0.2717 0.4432   0.021528
 C 0.26 0.2739 0.45722   0.713095
 O 0.9179 0.4567 0.56338   -0.690065
 O 0.8708 0.5326 0.45387   -0.621437
 O 0.4696 0.4709 0.55786   -0.760327
 O 0.3395 0.5088 0.63422   -0.599526
 O 0.6727 0.4772 0.63619   -0.700513
 O 0.5358 0.4979 0.71293   -0.696894
 O 0.3694 0.376 0.79544   -0.652147
 O 0.3783 0.7042 0.70397   -0.655873
 O 0.1917 0.3715 0.70905   -0.633649
 O 0.186 0.7002 0.78731   -0.664057
 O 0.569 0.3233 0.46279   -0.66985
 O 0.8157 0.3096 0.4683   -0.67432
 O 0.6827 0.6402 0.544   -0.699383
 O 0.0821 0.0433 0.06338   -0.690065
 O 0.1292 0.9674 0.95387   -0.621437
 O 0.5304 0.0291 0.05786   -0.760327
 O 0.6605 0.9912 0.13422   -0.599526
 O 0.3273 0.0228 0.13619   -0.700513
 O 0.4642 0.0021 0.21293   -0.696894
 O 0.6306 0.124 0.29544   -0.652147
 O 0.6217 0.7958 0.20397   -0.655873
 O 0.8083 0.1285 0.20905   -0.633649
 O 0.814 0.7998 0.28731   -0.664057
 O 0.431 0.1767 0.96279   -0.66985
 O 0.1843 0.1904 0.9683   -0.674321
 O 0.3173 0.8598 0.044   -0.699383
 O 0.4179 0.5433 0.93662   -0.690065
 O 0.3708 0.4674 0.04613   -0.621437
 O 0.9696 0.5291 0.94214   -0.760327
 O 0.8395 0.4912 0.86578   -0.599526
 O 0.1727 0.5228 0.86381   -0.700513
 O 0.0358 0.5021 0.78707   -0.696894
 O 0.8694 0.624 0.70456   -0.652147
 O 0.8783 0.2958 0.79603   -0.655873
 O 0.6917 0.6285 0.79095   -0.633649
 O 0.686 0.2998 0.71269   -0.664058
 O 0.069 0.6767 0.03721   -0.66985
 O 0.3157 0.6904 0.0317   -0.674321
 O 0.1827 0.3598 0.956   -0.699383
 O 0.5821 0.9567 0.43662   -0.690065
 O 0.6292 0.0326 0.54613   -0.621437
 O 0.0304 0.9709 0.44214   -0.760327
 O 0.1605 0.0088 0.36578   -0.599526
 O 0.8273 0.9772 0.36381   -0.700513
 O 0.9642 0.9979 0.28707   -0.696894
 O 0.1306 0.876 0.20456   -0.652147
 O 0.1217 0.2042 0.29603   -0.655873
 O 0.3083 0.8715 0.29095   -0.633649
 O 0.314 0.2002 0.21269   -0.664058
 O 0.931 0.8233 0.53721   -0.66985
 O 0.6843 0.8096 0.5317   -0.674321
 O 0.8173 0.1402 0.456   -0.699383
 O 0.0821 0.5433 0.43662   -0.690065
 O 0.1292 0.4674 0.54613   -0.621437
 O 0.5304 0.5291 0.44214   -0.760327
 O 0.6605 0.4912 0.36578   -0.599526
 O 0.3273 0.5228 0.36381   -0.700513
 O 0.4642 0.5021 0.28707   -0.696894
 O 0.6306 0.624 0.20456   -0.652147
 O 0.6217 0.2958 0.29603   -0.655873
 O 0.8083 0.6285 0.29095   -0.633649
 O 0.814 0.2998 0.21269   -0.664057
 O 0.431 0.6767 0.53721   -0.66985
 O 0.1843 0.6904 0.5317   -0.674321
 O 0.3173 0.3598 0.456   -0.699383
 O 0.9179 0.9567 0.93662   -0.690065
 O 0.8708 0.0326 0.04613   -0.621437
 O 0.4696 0.9709 0.94214   -0.760327
 O 0.3395 0.0088 0.86578   -0.599526
 O 0.6727 0.9772 0.86381   -0.700513
 O 0.5358 0.9979 0.78707   -0.696894
 O 0.3694 0.876 0.70456   -0.652147
 O 0.3783 0.2042 0.79603   -0.655873
 O 0.1917 0.8715 0.79095   -0.633649
 O 0.186 0.2002 0.71269   -0.664057
 O 0.569 0.8233 0.03721   -0.66985
 O 0.8157 0.8096 0.0317   -0.674321
 O 0.6827 0.1402 0.956   -0.699383
 O 0.5821 0.4567 0.06338   -0.690065
 O 0.6292 0.5326 0.95387   -0.621437
 O 0.0304 0.4709 0.05786   -0.760327
 O 0.1605 0.5088 0.13422   -0.599526
 O 0.8273 0.4772 0.13619   -0.700513
 O 0.9642 0.4979 0.21293   -0.696894
 O 0.1306 0.376 0.29544   -0.652147
 O 0.1217 0.7042 0.20397   -0.655873
 O 0.3083 0.3715 0.20905   -0.633649
 O 0.314 0.7002 0.28731   -0.664058
 O 0.931 0.3233 0.96279   -0.66985
 O 0.6843 0.3096 0.9683   -0.674321
 O 0.8173 0.6402 0.044   -0.699383
 O 0.4179 0.0433 0.56338   -0.690065
 O 0.3708 0.9674 0.45387   -0.621437
 O 0.9696 0.0291 0.55786   -0.760327
 O 0.8395 0.9912 0.63422   -0.599526
 O 0.1727 0.0228 0.63619   -0.700513
 O 0.0358 0.0021 0.71293   -0.696894
 O 0.8694 0.124 0.79544   -0.652147
 O 0.8783 0.7958 0.70397   -0.655873
 O 0.6917 0.1285 0.70905   -0.633649
 O 0.686 0.7998 0.78731   -0.664058
 O 0.069 0.1767 0.46279   -0.66985
 O 0.3157 0.1904 0.4683   -0.674321
 O 0.1827 0.8598 0.544   -0.699383
