{'_ref': 'TBD', '_srcid': 'CAKYAQ_clean', 'submitters': [{'name': 'Dalar Nazarian Jeff Camp and David Sholl', 'email': 'dalar@gatech.edu jcamp6@gatech.edu'}], '_method': 'VASP DFT with PBE;DDEC'}
data_CuH2(C3O2)2
_symmetry_space_group_name_H-M   'P 1'
_cell_length_a   18.51370042
_cell_length_b   18.51370025
_cell_length_c   18.51370000
_cell_angle_alpha   60.00000045
_cell_angle_beta   60.00000075
_cell_angle_gamma   60.00000020
_symmetry_Int_Tables_number   1
_chemical_formula_structural   CuH2(C3O2)2
_chemical_formula_sum   'Cu12 H24 C72 O48'
_cell_volume   4487.08904989
_cell_formula_units_Z   12
loop_
 _symmetry_equiv_pos_site_id
 _symmetry_equiv_pos_as_xyz
  1  'x, y, z'
loop_
 _atom_site_label
 _atom_site_fract_x
 _atom_site_fract_y
 _atom_site_fract_z
 _atom_site_charge
 Cu 0.0 0.42992 0.57008   0.890226
 Cu 0.42992 0.0 0.0   0.890227
 Cu 0.57008 0.0 0.0   0.890227
 Cu 0.0 0.57008 0.42992   0.890226
 Cu 0.0 0.57008 0.0   0.890227
 Cu 0.42992 0.0 0.57008   0.890226
 Cu 0.57008 0.0 0.42992   0.890226
 Cu 0.0 0.42992 0.0   0.890227
 Cu 0.0 0.0 0.42992   0.890227
 Cu 0.42992 0.57008 0.0   0.890226
 Cu 0.57008 0.42992 0.0   0.890226
 Cu 0.0 0.0 0.57008   0.890227
 H 0.9703 0.2715 0.4867   0.103926
 H 0.2715 0.9703 0.2715   0.103926
 H 0.4867 0.2715 0.9703   0.103926
 H 0.2715 0.4867 0.2715   0.103926
 H 0.9703 0.4867 0.2715   0.103926
 H 0.2715 0.2715 0.4867   0.103926
 H 0.4867 0.9703 0.2715   0.103926
 H 0.2715 0.2715 0.9703   0.103926
 H 0.9703 0.2715 0.2715   0.103926
 H 0.2715 0.4867 0.9703   0.103926
 H 0.4867 0.2715 0.2715   0.103926
 H 0.2715 0.9703 0.4867   0.103926
 H 0.7285 0.0297 0.5133   0.103926
 H 0.0297 0.7285 0.7285   0.103926
 H 0.7285 0.5133 0.0297   0.103926
 H 0.5133 0.7285 0.7285   0.103926
 H 0.5133 0.0297 0.7285   0.103926
 H 0.7285 0.7285 0.5133   0.103926
 H 0.0297 0.5133 0.7285   0.103926
 H 0.7285 0.7285 0.0297   0.103926
 H 0.7285 0.0297 0.7285   0.103926
 H 0.5133 0.7285 0.0297   0.103926
 H 0.7285 0.5133 0.7285   0.103926
 H 0.0297 0.7285 0.5133   0.103926
 C 0.9676 0.302 0.4284   0.042943
 C 0.302 0.9676 0.302   0.042943
 C 0.4284 0.302 0.9676   0.042943
 C 0.302 0.4284 0.302   0.042942
 C 0.9676 0.4284 0.302   0.042943
 C 0.302 0.302 0.4284   0.042942
 C 0.4284 0.9676 0.302   0.042943
 C 0.302 0.302 0.9676   0.042943
 C 0.9676 0.302 0.302   0.042943
 C 0.302 0.4284 0.9676   0.042943
 C 0.4284 0.302 0.302   0.042942
 C 0.302 0.9676 0.4284   0.042943
 C 0.698 0.0324 0.5716   0.042943
 C 0.0324 0.698 0.698   0.042943
 C 0.698 0.5716 0.0324   0.042943
 C 0.5716 0.698 0.698   0.042942
 C 0.5716 0.0324 0.698   0.042943
 C 0.698 0.698 0.5716   0.042942
 C 0.0324 0.5716 0.698   0.042943
 C 0.698 0.698 0.0324   0.042943
 C 0.698 0.0324 0.698   0.042943
 C 0.5716 0.698 0.0324   0.042942
 C 0.698 0.5716 0.698   0.042942
 C 0.0324 0.698 0.5716   0.042943
 C 0.9652 0.389 0.389   -0.170666
 C 0.9771 0.4305 0.4305   0.690693
 C 0.389 0.9652 0.2568   -0.170666
 C 0.4305 0.9771 0.1619   0.690693
 C 0.389 0.2568 0.9652   -0.170666
 C 0.4305 0.1619 0.9771   0.690693
 C 0.2568 0.389 0.389   -0.170666
 C 0.1619 0.4305 0.4305   0.690692
 C 0.9652 0.389 0.2568   -0.170666
 C 0.9771 0.4305 0.1619   0.690692
 C 0.389 0.2568 0.389   -0.170666
 C 0.4305 0.1619 0.4305   0.690692
 C 0.389 0.9652 0.389   -0.170666
 C 0.4305 0.9771 0.4305   0.690693
 C 0.2568 0.389 0.9652   -0.170666
 C 0.1619 0.4305 0.9771   0.690693
 C 0.9652 0.2568 0.389   -0.170666
 C 0.9771 0.1619 0.4305   0.690692
 C 0.389 0.389 0.9652   -0.170665
 C 0.4305 0.4305 0.9771   0.690689
 C 0.389 0.389 0.2568   -0.170665
 C 0.4305 0.4305 0.1619   0.690689
 C 0.2568 0.9652 0.389   -0.170666
 C 0.1619 0.9771 0.4305   0.690693
 C 0.611 0.0348 0.611   -0.170666
 C 0.5695 0.0229 0.5695   0.690693
 C 0.0348 0.611 0.7432   -0.170666
 C 0.0229 0.5695 0.8381   0.690693
 C 0.7432 0.611 0.0348   -0.170666
 C 0.8381 0.5695 0.0229   0.690693
 C 0.611 0.7432 0.611   -0.170666
 C 0.5695 0.8381 0.5695   0.690692
 C 0.611 0.0348 0.7432   -0.170666
 C 0.5695 0.0229 0.8381   0.690693
 C 0.7432 0.611 0.611   -0.170666
 C 0.8381 0.5695 0.5695   0.690692
 C 0.0348 0.611 0.611   -0.170666
 C 0.0229 0.5695 0.5695   0.690693
 C 0.611 0.7432 0.0348   -0.170666
 C 0.5695 0.8381 0.0229   0.690693
 C 0.7432 0.0348 0.611   -0.170666
 C 0.8381 0.0229 0.5695   0.690693
 C 0.611 0.611 0.0348   -0.170665
 C 0.5695 0.5695 0.0229   0.690689
 C 0.611 0.611 0.7432   -0.170665
 C 0.5695 0.5695 0.8381   0.690689
 C 0.0348 0.7432 0.611   -0.170666
 C 0.0229 0.8381 0.5695   0.690693
 O 0.9791 0.3871 0.5075   -0.556004
 O 0.3871 0.9791 0.1263   -0.556005
 O 0.5075 0.1263 0.9791   -0.556004
 O 0.1263 0.5075 0.3871   -0.556004
 O 0.9791 0.5075 0.1263   -0.556004
 O 0.3871 0.1263 0.5075   -0.556004
 O 0.5075 0.9791 0.3871   -0.556004
 O 0.1263 0.3871 0.9791   -0.556005
 O 0.9791 0.1263 0.3871   -0.556005
 O 0.3871 0.5075 0.9791   -0.556003
 O 0.5075 0.3871 0.1263   -0.556002
 O 0.1263 0.9791 0.5075   -0.556004
 O 0.6129 0.0209 0.4925   -0.556004
 O 0.0209 0.6129 0.8737   -0.556005
 O 0.8737 0.4925 0.0209   -0.556004
 O 0.4925 0.8737 0.6129   -0.556004
 O 0.4925 0.0209 0.8737   -0.556004
 O 0.8737 0.6129 0.4925   -0.556004
 O 0.0209 0.4925 0.6129   -0.556004
 O 0.6129 0.8737 0.0209   -0.556005
 O 0.8737 0.0209 0.6129   -0.556005
 O 0.4925 0.6129 0.0209   -0.556002
 O 0.6129 0.4925 0.8737   -0.556003
 O 0.0209 0.8737 0.4925   -0.556004
 O 0.0209 0.6129 0.4925   -0.556004
 O 0.6129 0.0209 0.8737   -0.556005
 O 0.4925 0.8737 0.0209   -0.556004
 O 0.8737 0.4925 0.6129   -0.556004
 O 0.0209 0.4925 0.8737   -0.556004
 O 0.6129 0.8737 0.4925   -0.556004
 O 0.4925 0.0209 0.6129   -0.556004
 O 0.8737 0.6129 0.0209   -0.556005
 O 0.0209 0.8737 0.6129   -0.556005
 O 0.6129 0.4925 0.0209   -0.556003
 O 0.4925 0.6129 0.8737   -0.556002
 O 0.8737 0.0209 0.4925   -0.556004
 O 0.3871 0.9791 0.5075   -0.556004
 O 0.9791 0.3871 0.1263   -0.556005
 O 0.1263 0.5075 0.9791   -0.556004
 O 0.5075 0.1263 0.3871   -0.556004
 O 0.5075 0.9791 0.1263   -0.556004
 O 0.1263 0.3871 0.5075   -0.556004
 O 0.9791 0.5075 0.3871   -0.556004
 O 0.3871 0.1263 0.9791   -0.556005
 O 0.1263 0.9791 0.3871   -0.556005
 O 0.5075 0.3871 0.9791   -0.556002
 O 0.3871 0.5075 0.1263   -0.556003
 O 0.9791 0.1263 0.5075   -0.556004
