{'_ref': 'TBD', '_srcid': 'CAKYAQ_clean', 'submitters': [{'name': 'Dalar Nazarian Jeff Camp and David Sholl', 'email': 'dalar@gatech.edu jcamp6@gatech.edu'}], '_method': 'VASP DFT with PBE;DDEC'}
data_CuH2(C3O2)2
_symmetry_space_group_name_H-M   'P 1'
_cell_length_a   18.62289957
_cell_length_b   18.62289981
_cell_length_c   18.62290000
_cell_angle_alpha   59.99999966
_cell_angle_beta   59.99999924
_cell_angle_gamma   59.99999991
_symmetry_Int_Tables_number   1
_chemical_formula_structural   CuH2(C3O2)2
_chemical_formula_sum   'Cu12 H24 C72 O48'
_cell_volume   4566.95694744
_cell_formula_units_Z   12
loop_
 _symmetry_equiv_pos_site_id
 _symmetry_equiv_pos_as_xyz
  1  'x, y, z'
loop_
 _atom_site_label
 _atom_site_fract_x
 _atom_site_fract_y
 _atom_site_fract_z
 _atom_site_charge
 Cu 0.0 0.43 0.57   0.936512
 Cu 0.43 0.0 0.0   0.936512
 Cu 0.57 0.0 0.0   0.936512
 Cu 0.0 0.57 0.43   0.936512
 Cu 0.0 0.57 0.0   0.936512
 Cu 0.43 0.0 0.57   0.936511
 Cu 0.57 0.0 0.43   0.936512
 Cu 0.0 0.43 0.0   0.936512
 Cu 0.0 0.0 0.43   0.936512
 Cu 0.43 0.57 0.0   0.936512
 Cu 0.57 0.43 0.0   0.936512
 Cu 0.0 0.0 0.57   0.936512
 H 0.9718 0.2704 0.4874   0.116146
 H 0.2704 0.9718 0.2704   0.116146
 H 0.4874 0.2704 0.9718   0.116146
 H 0.2704 0.4874 0.2704   0.116146
 H 0.9718 0.4874 0.2704   0.116146
 H 0.2704 0.2704 0.4874   0.116146
 H 0.4874 0.9718 0.2704   0.116146
 H 0.2704 0.2704 0.9718   0.116146
 H 0.9718 0.2704 0.2704   0.116146
 H 0.2704 0.4874 0.9718   0.116146
 H 0.4874 0.2704 0.2704   0.116146
 H 0.2704 0.9718 0.4874   0.116146
 H 0.7296 0.0282 0.5126   0.116146
 H 0.0282 0.7296 0.7296   0.116146
 H 0.7296 0.5126 0.0282   0.116146
 H 0.5126 0.7296 0.7296   0.116146
 H 0.5126 0.0282 0.7296   0.116146
 H 0.7296 0.7296 0.5126   0.116146
 H 0.0282 0.5126 0.7296   0.116146
 H 0.7296 0.7296 0.0282   0.116146
 H 0.7296 0.0282 0.7296   0.116146
 H 0.5126 0.7296 0.0282   0.116146
 H 0.7296 0.5126 0.7296   0.116146
 H 0.0282 0.7296 0.5126   0.116146
 C 0.97092 0.3001 0.42888   0.029995
 C 0.3001 0.97092 0.3001   0.029995
 C 0.42888 0.3001 0.97092   0.029995
 C 0.3001 0.42888 0.3001   0.029994
 C 0.97092 0.42888 0.3001   0.029995
 C 0.3001 0.3001 0.42888   0.029994
 C 0.42888 0.97092 0.3001   0.029995
 C 0.3001 0.3001 0.97092   0.029995
 C 0.97092 0.3001 0.3001   0.029995
 C 0.3001 0.42888 0.97092   0.029995
 C 0.42888 0.3001 0.3001   0.029994
 C 0.3001 0.97092 0.42888   0.029995
 C 0.6999 0.02908 0.57112   0.029995
 C 0.02908 0.6999 0.6999   0.029995
 C 0.6999 0.57112 0.02908   0.029995
 C 0.57112 0.6999 0.6999   0.029994
 C 0.57112 0.02908 0.6999   0.029995
 C 0.6999 0.6999 0.57112   0.029994
 C 0.02908 0.57112 0.6999   0.029995
 C 0.6999 0.6999 0.02908   0.029995
 C 0.6999 0.02908 0.6999   0.029995
 C 0.57112 0.6999 0.02908   0.029995
 C 0.6999 0.57112 0.6999   0.029994
 C 0.02908 0.6999 0.57112   0.029995
 C 0.9704 0.3863 0.3863   -0.165065
 C 0.97722 0.4302 0.4302   0.691493
 C 0.3863 0.9704 0.257   -0.165065
 C 0.4302 0.97722 0.16238   0.691493
 C 0.3863 0.257 0.9704   -0.165065
 C 0.4302 0.16238 0.97722   0.691493
 C 0.257 0.3863 0.3863   -0.165065
 C 0.16238 0.4302 0.4302   0.691493
 C 0.9704 0.3863 0.257   -0.165065
 C 0.97722 0.4302 0.16238   0.691493
 C 0.3863 0.257 0.3863   -0.165065
 C 0.4302 0.16238 0.4302   0.691493
 C 0.3863 0.9704 0.3863   -0.165065
 C 0.4302 0.97722 0.4302   0.691493
 C 0.257 0.3863 0.9704   -0.165065
 C 0.16238 0.4302 0.97722   0.691493
 C 0.9704 0.257 0.3863   -0.165065
 C 0.97722 0.16238 0.4302   0.691493
 C 0.3863 0.3863 0.9704   -0.165065
 C 0.4302 0.4302 0.97722   0.691493
 C 0.3863 0.3863 0.257   -0.165065
 C 0.4302 0.4302 0.16238   0.691493
 C 0.257 0.9704 0.3863   -0.165065
 C 0.16238 0.97722 0.4302   0.691493
 C 0.6137 0.0296 0.6137   -0.165065
 C 0.5698 0.02278 0.5698   0.691493
 C 0.0296 0.6137 0.743   -0.165065
 C 0.02278 0.5698 0.83762   0.691493
 C 0.743 0.6137 0.0296   -0.165065
 C 0.83762 0.5698 0.02278   0.691493
 C 0.6137 0.743 0.6137   -0.165065
 C 0.5698 0.83762 0.5698   0.691493
 C 0.6137 0.0296 0.743   -0.165065
 C 0.5698 0.02278 0.83762   0.691493
 C 0.743 0.6137 0.6137   -0.165065
 C 0.83762 0.5698 0.5698   0.691493
 C 0.0296 0.6137 0.6137   -0.165065
 C 0.02278 0.5698 0.5698   0.691493
 C 0.6137 0.743 0.0296   -0.165065
 C 0.5698 0.83762 0.02278   0.691493
 C 0.743 0.0296 0.6137   -0.165065
 C 0.83762 0.02278 0.5698   0.691493
 C 0.6137 0.6137 0.0296   -0.165065
 C 0.5698 0.5698 0.02278   0.691493
 C 0.6137 0.6137 0.743   -0.165065
 C 0.5698 0.5698 0.83762   0.691493
 C 0.0296 0.743 0.6137   -0.165065
 C 0.02278 0.83762 0.5698   0.691493
 O 0.97996 0.3874 0.50684   -0.570413
 O 0.3874 0.97996 0.1258   -0.570413
 O 0.50684 0.1258 0.97996   -0.570412
 O 0.1258 0.50684 0.3874   -0.570412
 O 0.97996 0.50684 0.1258   -0.570412
 O 0.3874 0.1258 0.50684   -0.570412
 O 0.50684 0.97996 0.3874   -0.570413
 O 0.1258 0.3874 0.97996   -0.570413
 O 0.97996 0.1258 0.3874   -0.570413
 O 0.3874 0.50684 0.97996   -0.570413
 O 0.50684 0.3874 0.1258   -0.570412
 O 0.1258 0.97996 0.50684   -0.570412
 O 0.6126 0.02004 0.49316   -0.570413
 O 0.02004 0.6126 0.8742   -0.570413
 O 0.8742 0.49316 0.02004   -0.570412
 O 0.49316 0.8742 0.6126   -0.570412
 O 0.49316 0.02004 0.8742   -0.570412
 O 0.8742 0.6126 0.49316   -0.570412
 O 0.02004 0.49316 0.6126   -0.570413
 O 0.6126 0.8742 0.02004   -0.570413
 O 0.8742 0.02004 0.6126   -0.570413
 O 0.49316 0.6126 0.02004   -0.570413
 O 0.6126 0.49316 0.8742   -0.570412
 O 0.02004 0.8742 0.49316   -0.570412
 O 0.02004 0.6126 0.49316   -0.570413
 O 0.6126 0.02004 0.8742   -0.570413
 O 0.49316 0.8742 0.02004   -0.570412
 O 0.8742 0.49316 0.6126   -0.570412
 O 0.02004 0.49316 0.8742   -0.570412
 O 0.6126 0.8742 0.49316   -0.570412
 O 0.49316 0.02004 0.6126   -0.570413
 O 0.8742 0.6126 0.02004   -0.570413
 O 0.02004 0.8742 0.6126   -0.570413
 O 0.6126 0.49316 0.02004   -0.570413
 O 0.49316 0.6126 0.8742   -0.570412
 O 0.8742 0.02004 0.49316   -0.570412
 O 0.3874 0.97996 0.50684   -0.570413
 O 0.97996 0.3874 0.1258   -0.570413
 O 0.1258 0.50684 0.97996   -0.570412
 O 0.50684 0.1258 0.3874   -0.570412
 O 0.50684 0.97996 0.1258   -0.570412
 O 0.1258 0.3874 0.50684   -0.570412
 O 0.97996 0.50684 0.3874   -0.570413
 O 0.3874 0.1258 0.97996   -0.570413
 O 0.1258 0.97996 0.3874   -0.570413
 O 0.50684 0.3874 0.97996   -0.570413
 O 0.3874 0.50684 0.1258   -0.570412
 O 0.97996 0.1258 0.50684   -0.570412
