{'_ref': 'TBD', '_srcid': 'CAKYAQ_clean', 'submitters': [{'name': 'Dalar Nazarian Jeff Camp and David Sholl', 'email': 'dalar@gatech.edu jcamp6@gatech.edu'}], '_method': 'VASP DFT with PBE;DDEC'}
data_CuH2(C3O2)2
_symmetry_space_group_name_H-M   'P 1'
_cell_length_a   18.65819984
_cell_length_b   18.65820029
_cell_length_c   18.65820000
_cell_angle_alpha   60.00000051
_cell_angle_beta   59.99999971
_cell_angle_gamma   60.00000163
_symmetry_Int_Tables_number   1
_chemical_formula_structural   CuH2(C3O2)2
_chemical_formula_sum   'Cu12 H24 C72 O48'
_cell_volume   4592.97671054
_cell_formula_units_Z   12
loop_
 _symmetry_equiv_pos_site_id
 _symmetry_equiv_pos_as_xyz
  1  'x, y, z'
loop_
 _atom_site_label
 _atom_site_fract_x
 _atom_site_fract_y
 _atom_site_fract_z
 _atom_site_charge
 Cu 0.57012 0.42988 0.0   0.899529
 Cu 0.42988 0.57012 0.0   0.899523
 Cu 0.0 0.0 0.57012   0.899526
 Cu 0.0 0.0 0.42988   0.899522
 Cu 0.57012 0.0 0.0   0.899527
 Cu 0.42988 0.0 0.0   0.899522
 Cu 0.0 0.57012 0.42988   0.899529
 Cu 0.0 0.42988 0.57012   0.899523
 Cu 0.57012 0.0 0.42988   0.899529
 Cu 0.42988 0.0 0.57012   0.899524
 Cu 0.0 0.42988 0.0   0.899527
 Cu 0.0 0.57012 0.0   0.899522
 H 0.2703 0.4885 0.9709   0.12401
 H 0.4885 0.2703 0.2703   0.124012
 H 0.9709 0.2703 0.2703   0.124011
 H 0.2703 0.9709 0.4885   0.124012
 H 0.2703 0.9709 0.2703   0.124011
 H 0.4885 0.2703 0.9709   0.124014
 H 0.9709 0.2703 0.4885   0.124013
 H 0.2703 0.4885 0.2703   0.124009
 H 0.2703 0.2703 0.4885   0.124012
 H 0.4885 0.9709 0.2703   0.124013
 H 0.9709 0.4885 0.2703   0.12401
 H 0.2703 0.2703 0.9709   0.124012
 H 0.5115 0.7297 0.0291   0.124013
 H 0.7297 0.5115 0.7297   0.124008
 H 0.7297 0.0291 0.7297   0.12401
 H 0.0291 0.7297 0.5115   0.124012
 H 0.0291 0.7297 0.7297   0.124011
 H 0.7297 0.5115 0.0291   0.12401
 H 0.7297 0.0291 0.5115   0.124012
 H 0.5115 0.7297 0.7297   0.124012
 H 0.7297 0.7297 0.5115   0.124012
 H 0.0291 0.5115 0.7297   0.12401
 H 0.5115 0.0291 0.7297   0.124013
 H 0.7297 0.7297 0.0291   0.124012
 C 0.2996 0.42966 0.97114   0.012696
 C 0.42966 0.2996 0.2996   0.012697
 C 0.97114 0.2996 0.2996   0.012692
 C 0.2996 0.97114 0.42966   0.012695
 C 0.2996 0.97114 0.2996   0.012695
 C 0.42966 0.2996 0.97114   0.012698
 C 0.97114 0.2996 0.42966   0.012692
 C 0.2996 0.42966 0.2996   0.012695
 C 0.2996 0.2996 0.42966   0.012698
 C 0.42966 0.97114 0.2996   0.012703
 C 0.97114 0.42966 0.2996   0.012697
 C 0.2996 0.2996 0.97114   0.012699
 C 0.57034 0.7004 0.02886   0.012698
 C 0.7004 0.57034 0.7004   0.012695
 C 0.7004 0.02886 0.7004   0.012695
 C 0.02886 0.7004 0.57034   0.012692
 C 0.02886 0.7004 0.7004   0.012692
 C 0.7004 0.57034 0.02886   0.012696
 C 0.7004 0.02886 0.57034   0.012695
 C 0.57034 0.7004 0.7004   0.012698
 C 0.7004 0.7004 0.57034   0.012698
 C 0.02886 0.57034 0.7004   0.012697
 C 0.57034 0.02886 0.7004   0.012703
 C 0.7004 0.7004 0.02886   0.012698
 C 0.3854 0.3854 0.9713   -0.143394
 C 0.4304 0.4304 0.97802   0.670097
 C 0.3854 0.3854 0.2579   -0.143394
 C 0.4304 0.4304 0.16118   0.670094
 C 0.9713 0.2579 0.3854   -0.143381
 C 0.97802 0.16118 0.4304   0.670092
 C 0.2579 0.9713 0.3854   -0.143382
 C 0.16118 0.97802 0.4304   0.670092
 C 0.3854 0.9713 0.2579   -0.143405
 C 0.4304 0.97802 0.16118   0.670098
 C 0.3854 0.2579 0.9713   -0.143401
 C 0.4304 0.16118 0.97802   0.670098
 C 0.9713 0.3854 0.3854   -0.143395
 C 0.97802 0.4304 0.4304   0.670098
 C 0.2579 0.3854 0.3854   -0.143394
 C 0.16118 0.4304 0.4304   0.670094
 C 0.3854 0.2579 0.3854   -0.143401
 C 0.4304 0.16118 0.4304   0.670097
 C 0.3854 0.9713 0.3854   -0.143404
 C 0.4304 0.97802 0.4304   0.6701
 C 0.9713 0.3854 0.2579   -0.143396
 C 0.97802 0.4304 0.16118   0.670096
 C 0.2579 0.3854 0.9713   -0.143394
 C 0.16118 0.4304 0.97802   0.670095
 C 0.6146 0.6146 0.0287   -0.143394
 C 0.5696 0.5696 0.02198   0.670097
 C 0.6146 0.6146 0.7421   -0.143394
 C 0.5696 0.5696 0.83882   0.670095
 C 0.7421 0.0287 0.6146   -0.143382
 C 0.83882 0.02198 0.5696   0.670092
 C 0.0287 0.7421 0.6146   -0.143381
 C 0.02198 0.83882 0.5696   0.670092
 C 0.0287 0.6146 0.7421   -0.143396
 C 0.02198 0.5696 0.83882   0.670096
 C 0.7421 0.6146 0.0287   -0.143394
 C 0.83882 0.5696 0.02198   0.670096
 C 0.6146 0.0287 0.6146   -0.143404
 C 0.5696 0.02198 0.5696   0.6701
 C 0.6146 0.7421 0.6146   -0.143401
 C 0.5696 0.83882 0.5696   0.670098
 C 0.7421 0.6146 0.6146   -0.143394
 C 0.83882 0.5696 0.5696   0.670094
 C 0.0287 0.6146 0.6146   -0.143395
 C 0.02198 0.5696 0.5696   0.670098
 C 0.6146 0.0287 0.7421   -0.143405
 C 0.5696 0.02198 0.83882   0.670098
 C 0.6146 0.7421 0.0287   -0.143401
 C 0.5696 0.83882 0.02198   0.670099
 O 0.50726 0.38738 0.97994   -0.556589
 O 0.38738 0.50726 0.12542   -0.556584
 O 0.97994 0.12542 0.50726   -0.556586
 O 0.12542 0.97994 0.38738   -0.556586
 O 0.50726 0.97994 0.12542   -0.556587
 O 0.38738 0.12542 0.97994   -0.556587
 O 0.97994 0.50726 0.38738   -0.556589
 O 0.12542 0.38738 0.50726   -0.556584
 O 0.50726 0.12542 0.38738   -0.556585
 O 0.38738 0.97994 0.50726   -0.556588
 O 0.97994 0.38738 0.12542   -0.556587
 O 0.12542 0.50726 0.97994   -0.556586
 O 0.61262 0.49274 0.02006   -0.556589
 O 0.49274 0.61262 0.87458   -0.556584
 O 0.87458 0.02006 0.49274   -0.556585
 O 0.02006 0.87458 0.61262   -0.556587
 O 0.02006 0.49274 0.87458   -0.556587
 O 0.87458 0.61262 0.02006   -0.556587
 O 0.49274 0.02006 0.61262   -0.556588
 O 0.61262 0.87458 0.49274   -0.556585
 O 0.87458 0.49274 0.61262   -0.556584
 O 0.02006 0.61262 0.49274   -0.556589
 O 0.61262 0.02006 0.87458   -0.556587
 O 0.49274 0.87458 0.02006   -0.556587
 O 0.49274 0.61262 0.02006   -0.556587
 O 0.61262 0.49274 0.87458   -0.556583
 O 0.02006 0.87458 0.49274   -0.556584
 O 0.87458 0.02006 0.61262   -0.556585
 O 0.49274 0.02006 0.87458   -0.556585
 O 0.61262 0.87458 0.02006   -0.556587
 O 0.02006 0.49274 0.61262   -0.556587
 O 0.87458 0.61262 0.49274   -0.556583
 O 0.49274 0.87458 0.61262   -0.556583
 O 0.61262 0.02006 0.49274   -0.556588
 O 0.02006 0.61262 0.87458   -0.556585
 O 0.87458 0.49274 0.02006   -0.556585
 O 0.38738 0.50726 0.97994   -0.556587
 O 0.50726 0.38738 0.12542   -0.556583
 O 0.12542 0.97994 0.50726   -0.556585
 O 0.97994 0.12542 0.38738   -0.556585
 O 0.97994 0.50726 0.12542   -0.556585
 O 0.12542 0.38738 0.97994   -0.556586
 O 0.50726 0.97994 0.38738   -0.556588
 O 0.38738 0.12542 0.50726   -0.556583
 O 0.12542 0.50726 0.38738   -0.556583
 O 0.97994 0.38738 0.50726   -0.556587
 O 0.38738 0.97994 0.12542   -0.556586
 O 0.50726 0.12542 0.97994   -0.556586
