{'_ref': 'TBD', '_srcid': 'CAKYAQ_clean', 'submitters': [{'name': 'Dalar Nazarian Jeff Camp and David Sholl', 'email': 'dalar@gatech.edu jcamp6@gatech.edu'}], '_method': 'VASP DFT with PBE;DDEC'}
data_CuH2(C3O2)2
_symmetry_space_group_name_H-M   'P 1'
_cell_length_a   18.60259985
_cell_length_b   18.60259974
_cell_length_c   18.60260000
_cell_angle_alpha   59.99999954
_cell_angle_beta   59.99999973
_cell_angle_gamma   59.99999963
_symmetry_Int_Tables_number   1
_chemical_formula_structural   CuH2(C3O2)2
_chemical_formula_sum   'Cu12 H24 C72 O48'
_cell_volume   4552.03856079
_cell_formula_units_Z   12
loop_
 _symmetry_equiv_pos_site_id
 _symmetry_equiv_pos_as_xyz
  1  'x, y, z'
loop_
 _atom_site_label
 _atom_site_fract_x
 _atom_site_fract_y
 _atom_site_fract_z
 _atom_site_charge
 Cu 0.0 0.42992 0.57008   0.934731
 Cu 0.42992 0.0 0.0   0.934731
 Cu 0.57008 0.0 0.0   0.934731
 Cu 0.0 0.57008 0.42992   0.934731
 Cu 0.0 0.57008 0.0   0.934731
 Cu 0.42992 0.0 0.57008   0.934731
 Cu 0.57008 0.0 0.42992   0.934731
 Cu 0.0 0.42992 0.0   0.934731
 Cu 0.0 0.0 0.42992   0.934731
 Cu 0.42992 0.57008 0.0   0.934732
 Cu 0.57008 0.42992 0.0   0.934732
 Cu 0.0 0.0 0.57008   0.934731
 H 0.9728 0.27 0.4872   0.117484
 H 0.27 0.9728 0.27   0.117483
 H 0.4872 0.27 0.9728   0.117484
 H 0.27 0.4872 0.27   0.117484
 H 0.9728 0.4872 0.27   0.117484
 H 0.27 0.27 0.4872   0.117484
 H 0.4872 0.9728 0.27   0.117484
 H 0.27 0.27 0.9728   0.117483
 H 0.9728 0.27 0.27   0.117483
 H 0.27 0.4872 0.9728   0.117484
 H 0.4872 0.27 0.27   0.117484
 H 0.27 0.9728 0.4872   0.117484
 H 0.73 0.0272 0.5128   0.117484
 H 0.0272 0.73 0.73   0.117483
 H 0.73 0.5128 0.0272   0.117484
 H 0.5128 0.73 0.73   0.117484
 H 0.5128 0.0272 0.73   0.117484
 H 0.73 0.73 0.5128   0.117484
 H 0.0272 0.5128 0.73   0.117484
 H 0.73 0.73 0.0272   0.117483
 H 0.73 0.0272 0.73   0.117483
 H 0.5128 0.73 0.0272   0.117484
 H 0.73 0.5128 0.73   0.117484
 H 0.0272 0.73 0.5128   0.117484
 C 0.97118 0.3 0.42882   0.025079
 C 0.3 0.97118 0.3   0.025079
 C 0.42882 0.3 0.97118   0.025079
 C 0.3 0.42882 0.3   0.025078
 C 0.97118 0.42882 0.3   0.025079
 C 0.3 0.3 0.42882   0.025078
 C 0.42882 0.97118 0.3   0.025079
 C 0.3 0.3 0.97118   0.025079
 C 0.97118 0.3 0.3   0.025079
 C 0.3 0.42882 0.97118   0.025079
 C 0.42882 0.3 0.3   0.025078
 C 0.3 0.97118 0.42882   0.025079
 C 0.7 0.02882 0.57118   0.025079
 C 0.02882 0.7 0.7   0.025079
 C 0.7 0.57118 0.02882   0.025079
 C 0.57118 0.7 0.7   0.025078
 C 0.57118 0.02882 0.7   0.025079
 C 0.7 0.7 0.57118   0.025078
 C 0.02882 0.57118 0.7   0.025079
 C 0.7 0.7 0.02882   0.025079
 C 0.7 0.02882 0.7   0.025079
 C 0.57118 0.7 0.02882   0.025079
 C 0.7 0.57118 0.7   0.025078
 C 0.02882 0.7 0.57118   0.025079
 C 0.97048 0.386 0.386   -0.158323
 C 0.97786 0.4301 0.4301   0.68299
 C 0.386 0.97048 0.25752   -0.158323
 C 0.4301 0.97786 0.16194   0.68299
 C 0.386 0.25752 0.97048   -0.158323
 C 0.4301 0.16194 0.97786   0.68299
 C 0.25752 0.386 0.386   -0.158323
 C 0.16194 0.4301 0.4301   0.68299
 C 0.97048 0.386 0.25752   -0.158323
 C 0.97786 0.4301 0.16194   0.68299
 C 0.386 0.25752 0.386   -0.158323
 C 0.4301 0.16194 0.4301   0.68299
 C 0.386 0.97048 0.386   -0.158323
 C 0.4301 0.97786 0.4301   0.68299
 C 0.25752 0.386 0.97048   -0.158323
 C 0.16194 0.4301 0.97786   0.68299
 C 0.97048 0.25752 0.386   -0.158323
 C 0.97786 0.16194 0.4301   0.68299
 C 0.386 0.386 0.97048   -0.158322
 C 0.4301 0.4301 0.97786   0.68299
 C 0.386 0.386 0.25752   -0.158322
 C 0.4301 0.4301 0.16194   0.68299
 C 0.25752 0.97048 0.386   -0.158323
 C 0.16194 0.97786 0.4301   0.68299
 C 0.614 0.02952 0.614   -0.158323
 C 0.5699 0.02214 0.5699   0.68299
 C 0.02952 0.614 0.74248   -0.158323
 C 0.02214 0.5699 0.83806   0.68299
 C 0.74248 0.614 0.02952   -0.158323
 C 0.83806 0.5699 0.02214   0.68299
 C 0.614 0.74248 0.614   -0.158323
 C 0.5699 0.83806 0.5699   0.68299
 C 0.614 0.02952 0.74248   -0.158323
 C 0.5699 0.02214 0.83806   0.68299
 C 0.74248 0.614 0.614   -0.158323
 C 0.83806 0.5699 0.5699   0.68299
 C 0.02952 0.614 0.614   -0.158323
 C 0.02214 0.5699 0.5699   0.68299
 C 0.614 0.74248 0.02952   -0.158323
 C 0.5699 0.83806 0.02214   0.68299
 C 0.74248 0.02952 0.614   -0.158323
 C 0.83806 0.02214 0.5699   0.68299
 C 0.614 0.614 0.02952   -0.158322
 C 0.5699 0.5699 0.02214   0.68299
 C 0.614 0.614 0.74248   -0.158322
 C 0.5699 0.5699 0.83806   0.68299
 C 0.02952 0.74248 0.614   -0.158323
 C 0.02214 0.83806 0.5699   0.68299
 O 0.98012 0.3872 0.50712   -0.567298
 O 0.3872 0.98012 0.12556   -0.567298
 O 0.50712 0.12556 0.98012   -0.567297
 O 0.12556 0.50712 0.3872   -0.567297
 O 0.98012 0.50712 0.12556   -0.567297
 O 0.3872 0.12556 0.50712   -0.567297
 O 0.50712 0.98012 0.3872   -0.567298
 O 0.12556 0.3872 0.98012   -0.567298
 O 0.98012 0.12556 0.3872   -0.567298
 O 0.3872 0.50712 0.98012   -0.567298
 O 0.50712 0.3872 0.12556   -0.567299
 O 0.12556 0.98012 0.50712   -0.567297
 O 0.6128 0.01988 0.49288   -0.567298
 O 0.01988 0.6128 0.87444   -0.567298
 O 0.87444 0.49288 0.01988   -0.567297
 O 0.49288 0.87444 0.6128   -0.567297
 O 0.49288 0.01988 0.87444   -0.567297
 O 0.87444 0.6128 0.49288   -0.567297
 O 0.01988 0.49288 0.6128   -0.567298
 O 0.6128 0.87444 0.01988   -0.567297
 O 0.87444 0.01988 0.6128   -0.567298
 O 0.49288 0.6128 0.01988   -0.567299
 O 0.6128 0.49288 0.87444   -0.567297
 O 0.01988 0.87444 0.49288   -0.567297
 O 0.01988 0.6128 0.49288   -0.567298
 O 0.6128 0.01988 0.87444   -0.567298
 O 0.49288 0.87444 0.01988   -0.567297
 O 0.87444 0.49288 0.6128   -0.567297
 O 0.01988 0.49288 0.87444   -0.567297
 O 0.6128 0.87444 0.49288   -0.567297
 O 0.49288 0.01988 0.6128   -0.567298
 O 0.87444 0.6128 0.01988   -0.567298
 O 0.01988 0.87444 0.6128   -0.567298
 O 0.6128 0.49288 0.01988   -0.567298
 O 0.49288 0.6128 0.87444   -0.567299
 O 0.87444 0.01988 0.49288   -0.567297
 O 0.3872 0.98012 0.50712   -0.567298
 O 0.98012 0.3872 0.12556   -0.567298
 O 0.12556 0.50712 0.98012   -0.567297
 O 0.50712 0.12556 0.3872   -0.567297
 O 0.50712 0.98012 0.12556   -0.567297
 O 0.12556 0.3872 0.50712   -0.567297
 O 0.98012 0.50712 0.3872   -0.567298
 O 0.3872 0.12556 0.98012   -0.567298
 O 0.12556 0.98012 0.3872   -0.567298
 O 0.50712 0.3872 0.98012   -0.567299
 O 0.3872 0.50712 0.12556   -0.567297
 O 0.98012 0.12556 0.50712   -0.567297
