{'_ref': 'TBD', '_srcid': 'CAKYAQ_clean', 'submitters': [{'name': 'Dalar Nazarian Jeff Camp and David Sholl', 'email': 'dalar@gatech.edu jcamp6@gatech.edu'}], '_method': 'VASP DFT with PBE;DDEC'}
data_Zn4H32C46O17
_symmetry_space_group_name_H-M   'P 1'
_cell_length_a   17.11680000
_cell_length_b   17.22150000
_cell_length_c   17.22150000
_cell_angle_alpha   90.00000000
_cell_angle_beta   90.00000000
_cell_angle_gamma   90.00000000
_symmetry_Int_Tables_number   1
_chemical_formula_structural   Zn4H32C46O17
_chemical_formula_sum   'Zn8 H64 C92 O34'
_cell_volume   5076.50160952
_cell_formula_units_Z   2
loop_
 _symmetry_equiv_pos_site_id
 _symmetry_equiv_pos_as_xyz
  1  'x, y, z'
loop_
 _atom_site_label
 _atom_site_fract_x
 _atom_site_fract_y
 _atom_site_fract_z
 _atom_site_charge
 Zn 0.05519 0.93462 0.43462   1.096832
 Zn 0.05519 0.06538 0.56538   1.09674
 Zn 0.18439 0.93437 0.56563   1.107091
 Zn 0.18439 0.06563 0.43437   1.106662
 Zn 0.94481 0.43462 0.06538   1.096928
 Zn 0.94481 0.56538 0.93462   1.096887
 Zn 0.81561 0.56563 0.06563   1.105332
 Zn 0.81561 0.43437 0.93437   1.107384
 H 0.04505 0.89789 0.19781   0.111281
 H 0.04846 0.89642 0.05068   0.104793
 H 0.18544 0.10013 0.20162   0.114875
 H 0.50465 0.88967 0.6986   0.077321
 H 0.26401 0.21327 0.04224   0.093644
 H 0.26992 0.14597 0.12663   0.06305
 H 0.18226 0.20856 0.11338   0.067032
 H 0.04505 0.10211 0.80219   0.111628
 H 0.04846 0.10358 0.94932   0.10503
 H 0.18603 0.89909 0.80007   0.121801
 H 0.20754 0.76744 0.93846   0.07945
 H 0.2952 0.83003 0.92521   0.063818
 H 0.21345 0.83474 0.85407   0.060528
 H 0.04505 0.30219 0.60211   0.114283
 H 0.04846 0.44932 0.60358   0.103174
 H 0.18603 0.30007 0.39909   0.12326
 H 0.54635 0.79894 0.65693   0.090088
 H 0.21345 0.35407 0.33474   0.060209
 H 0.2952 0.42521 0.33003   0.065898
 H 0.20754 0.43846 0.26744   0.08071
 H 0.04505 0.69781 0.39789   0.106567
 H 0.04846 0.55068 0.39642   0.099369
 H 0.18544 0.70162 0.60013   0.101849
 H 0.8184 0.09066 0.59066   0.125074
 H 0.6699 0.08921 0.58921   0.111109
 H 0.8184 0.90934 0.40934   0.121058
 H 0.6699 0.91079 0.41079   0.10869
 H 0.41865 0.90881 0.59119   0.158202
 H 0.46295 0.848 0.60787   0.080036
 H 0.41865 0.09119 0.40881   0.14554
 H 0.95495 0.19781 0.10211   0.110544
 H 0.95154 0.05068 0.10358   0.104465
 H 0.81397 0.19993 0.89909   0.116786
 H 0.51943 0.67852 0.10209   0.078764
 H 0.81657 0.09951 0.78167   0.069652
 H 0.74397 0.13651 0.85316   0.064019
 H 0.72327 0.04623 0.79738   0.089393
 H 0.95495 0.80219 0.89789   0.112717
 H 0.95154 0.94932 0.89642   0.10511
 H 0.81397 0.80007 0.10091   0.11738
 H 0.79927 0.85806 0.1759   0.062275
 H 0.70597 0.91134 0.1602   0.060547
 H 0.77857 0.94834 0.23169   0.085224
 H 0.95495 0.60211 0.69781   0.107617
 H 0.95154 0.60358 0.55068   0.100212
 H 0.81456 0.39987 0.70162   0.103374
 H 0.44719 0.68279 0.18279   0.098306
 H 0.95495 0.39789 0.30219   0.113106
 H 0.95154 0.39642 0.44932   0.10201
 H 0.81397 0.60091 0.30007   0.118794
 H 0.70597 0.6602 0.41134   0.06082
 H 0.79927 0.6759 0.35806   0.062968
 H 0.77857 0.73169 0.44834   0.088645
 H 0.1816 0.59066 0.90934   0.125194
 H 0.3301 0.58921 0.91079   0.110555
 H 0.1816 0.40934 0.09066   0.119878
 H 0.3301 0.41079 0.08921   0.109087
 H 0.58135 0.59119 0.09119   0.146925
 H 0.51943 0.60209 0.17852   0.078016
 H 0.58135 0.40881 0.90881   0.146715
 H 0.18753 0.54891 0.59767   0.098226
 H 0.56684 0.08912 0.41088   0.106651
 H 0.81247 0.40233 0.54891   0.098004
 H 0.43316 0.41088 0.91088   0.106568
 C 0.1173 0.000500000000002 0.2908   0.70636
 C 0.1153 0.9995 0.2045   -0.0333
 C 0.0787 0.945 0.1655   -0.107854
 C 0.0805 0.944 0.0839   -0.108006
 C 0.1186 0.9971 0.0442   0.011029
 C 0.1543 0.0506 0.0817   0.217568
 C 0.1535 0.0529 0.1678   -0.215579
 C 0.2291 0.1734 0.0821   -0.062873
 C 0.1173 0.9995 0.7092   0.706902
 C 0.1153 0.000500000000002 0.7955   -0.03433
 C 0.0787 0.055 0.8345   -0.112635
 C 0.0805 0.056 0.9161   -0.104372
 C 0.1186 0.0029 0.9558   0.009369
 C 0.1543 0.9494 0.9183   0.213831
 C 0.1535 0.9471 0.8322   -0.208197
 C 0.2291 0.8266 0.9179   -0.052845
 C 0.1173 0.2092 0.4995   0.705377
 C 0.1153 0.2955 0.5005   -0.033672
 C 0.0787 0.3345 0.555   -0.115193
 C 0.0805 0.4161 0.556   -0.108633
 C 0.1186 0.4558 0.5029   -0.02094
 C 0.1543 0.4183 0.4494   0.217316
 C 0.1535 0.3322 0.4471   -0.207915
 C 0.2291 0.4179 0.3266   -0.054459
 C 0.1173 0.7908 0.5005   0.711606
 C 0.1153 0.7045 0.4995   -0.091519
 C 0.0787 0.6655 0.445   -0.054639
 C 0.0805 0.5839 0.444   -0.144334
 C 0.1186 0.5442 0.4971   0.129176
 C 0.1543 0.5817 0.5506   -0.164715
 C 0.1535 0.6678 0.5529   -0.06828
 C 0.7859 0.0498 0.5498   -0.033672
 C 0.704 0.049 0.549   -0.17642
 C 0.7859 0.9502 0.4502   -0.0394
 C 0.704 0.951 0.451   -0.17846
 C 0.5324 0.95094 0.54906   0.242733
 C 0.4508 0.9498 0.5502   -0.259578
 C 0.5189 0.8575 0.6425   -0.083807
 C 0.5324 0.04906 0.45094   -0.110721
 C 0.4508 0.0502 0.4498   -0.129388
 C 0.9086 0.0 0.5   0.586716
 C 0.8282 0.0 0.5   -0.077039
 C 0.6598 0.0 0.5   0.14377
 C 0.5785 0.0 0.5   -0.046609
 C 0.4153 0.0 0.5   0.015316
 C 0.3237 0.0 0.5   0.536576
 C 0.8827 0.2908 0.9995   0.706321
 C 0.8847 0.2045 0.000500000000002   -0.032974
 C 0.9213 0.1655 0.055   -0.10985
 C 0.9195 0.0839 0.056   -0.107347
 C 0.8814 0.0442 0.0029   0.01009
 C 0.8457 0.0817 0.9494   0.215268
 C 0.8465 0.1678 0.9471   -0.211513
 C 0.7709 0.0821 0.8266   -0.062281
 C 0.8827 0.7092 0.000500000000002   0.706716
 C 0.8847 0.7955 0.9995   -0.033445
 C 0.9213 0.8345 0.945   -0.110821
 C 0.9195 0.9161 0.944   -0.105154
 C 0.8814 0.9558 0.9971   0.010348
 C 0.8457 0.9183 0.0506   0.214559
 C 0.8465 0.8322 0.0529   -0.211457
 C 0.7709 0.9179 0.1734   -0.054734
 C 0.8827 0.4995 0.7908   0.710606
 C 0.8847 0.5005 0.7045   -0.091303
 C 0.9213 0.555 0.6655   -0.057595
 C 0.9195 0.556 0.5839   -0.144225
 C 0.8814 0.5029 0.5442   0.127972
 C 0.8457 0.4494 0.5817   -0.165084
 C 0.8465 0.4471 0.6678   -0.06872
 C 0.8827 0.5005 0.2092   0.705942
 C 0.8847 0.4995 0.2955   -0.032754
 C 0.9213 0.445 0.3345   -0.110708
 C 0.9195 0.444 0.4161   -0.110499
 C 0.8814 0.4971 0.4558   -0.01858
 C 0.8457 0.5506 0.4183   0.217893
 C 0.8465 0.5529 0.3322   -0.210371
 C 0.7709 0.6734 0.4179   -0.05652
 C 0.2141 0.5498 0.9502   -0.036371
 C 0.296 0.549 0.951   -0.175946
 C 0.2141 0.4502 0.0498   -0.035829
 C 0.296 0.451 0.049   -0.17864
 C 0.4676 0.54906 0.04906   0.240495
 C 0.5492 0.5502 0.0502   -0.259455
 C 0.4811 0.6425 0.1425   -0.080591
 C 0.4676 0.45094 0.95094   -0.114366
 C 0.5492 0.4498 0.9498   -0.126334
 C 0.0914 0.5 0.0   0.586906
 C 0.1718 0.5 0.0   -0.077517
 C 0.3402 0.5 0.0   0.143332
 C 0.4215 0.5 0.0   -0.042237
 C 0.5847 0.5 0.0   0.016999
 C 0.6763 0.5 0.0   0.535682
 O 0.072 0.9504 0.32523   -0.633811
 O 0.1577 0.0483 0.3254   -0.599917
 O 0.1931 0.1141 0.0373   -0.269021
 O 0.072 0.0496 0.67477   -0.633064
 O 0.1577 0.9517 0.6746   -0.602697
 O 0.1931 0.8859 0.9627   -0.264206
 O 0.072 0.17477 0.5496   -0.631156
 O 0.1577 0.1746 0.4517   -0.601142
 O 0.1931 0.4627 0.3859   -0.263568
 O 0.072 0.82523 0.4504   -0.635168
 O 0.1577 0.8254 0.5483   -0.606047
 O 0.9442 0.9475 0.4475   -0.586322
 O 0.9442 0.0525 0.5525   -0.586804
 O 0.291 0.946 0.554   -0.555539
 O 0.5707 0.901 0.599   -0.213119
 O 0.291 0.054 0.446   -0.558006
 O 0.119 0.0 0.5   -1.255805
 O 0.928 0.32523 0.0496   -0.634878
 O 0.8423 0.3254 0.9517   -0.599351
 O 0.8069 0.0373 0.8859   -0.26754
 O 0.928 0.67477 0.9504   -0.632361
 O 0.8423 0.6746 0.0483   -0.603448
 O 0.8069 0.9627 0.1141   -0.265132
 O 0.928 0.5496 0.82523   -0.63511
 O 0.8423 0.4517 0.8254   -0.603882
 O 0.928 0.4504 0.17477   -0.631945
 O 0.8423 0.5483 0.1746   -0.601695
 O 0.8069 0.6141 0.4627   -0.263842
 O 0.0558 0.4475 0.0525   -0.587216
 O 0.0558 0.5525 0.9475   -0.586417
 O 0.709 0.554 0.054   -0.554688
 O 0.4293 0.599 0.099   -0.216486
 O 0.709 0.446 0.946   -0.556932
 O 0.881 0.5 0.0   -1.255616
