{'_ref': 'TBD', '_srcid': 'CAKYAQ_clean', 'submitters': [{'name': 'Dalar Nazarian Jeff Camp and David Sholl', 'email': 'dalar@gatech.edu jcamp6@gatech.edu'}], '_method': 'VASP DFT with PBE;DDEC'}
data_Co3H12C20(N8Cl3)2
_symmetry_space_group_name_H-M   'P 1'
_cell_length_a   7.04719957
_cell_length_b   13.49190008
_cell_length_c   13.49190000
_cell_angle_alpha   97.13639952
_cell_angle_beta   98.65849777
_cell_angle_gamma   98.65849840
_symmetry_Int_Tables_number   1
_chemical_formula_structural   Co3H12C20(N8Cl3)2
_chemical_formula_sum   'Co3 H12 C20 N16 Cl6'
_cell_volume   1239.49578038
_cell_formula_units_Z   1
loop_
 _symmetry_equiv_pos_site_id
 _symmetry_equiv_pos_as_xyz
  1  'x, y, z'
loop_
 _atom_site_label
 _atom_site_fract_x
 _atom_site_fract_y
 _atom_site_fract_z
 _atom_site_charge
 Co 0.0 0.0 0.0   0.507571
 Co 0.5 0.0 0.5   0.34265
 Co 0.5 0.5 0.0   0.34265
 H 0.0614 0.0028 0.7746   0.076322
 H 0.5819 0.0061 0.8843   0.066155
 H 0.4145 0.0072 0.7254   0.088252
 H 0.9386 0.2254 0.9972   0.076322
 H 0.4181 0.1157 0.9939   0.066154
 H 0.5855 0.2746 0.9928   0.088252
 H 0.9386 0.9972 0.2254   0.076321
 H 0.4181 0.9939 0.1157   0.066156
 H 0.5855 0.9928 0.2746   0.088251
 H 0.0614 0.7746 0.0028   0.076321
 H 0.5819 0.8843 0.0061   0.066155
 H 0.4145 0.7254 0.0072   0.088252
 C 0.8277 0.00256 0.66966   0.062305
 C 0.9281 0.00321 0.76587   0.125623
 C 0.6489 0.00542 0.82996   0.104218
 C 0.5473 0.00561 0.73365   0.092209
 C 0.9213 0.000779999999999 0.57988   0.284691
 C 0.1723 0.33034 0.99744   0.062305
 C 0.0719 0.23413 0.99679   0.125621
 C 0.3511 0.17004 0.99458   0.104217
 C 0.4527 0.26635 0.99439   0.092208
 C 0.0787 0.42012 0.99922   0.28469
 C 0.1723 0.99744 0.33034   0.062305
 C 0.0719 0.99679 0.23413   0.125624
 C 0.3511 0.99458 0.17004   0.104217
 C 0.4527 0.99439 0.26635   0.09221
 C 0.0787 0.99922 0.42012   0.284681
 C 0.8277 0.66966 0.00256   0.062305
 C 0.9281 0.76587 0.00321   0.125622
 C 0.6489 0.82996 0.00542   0.104216
 C 0.5473 0.73365 0.00561   0.092209
 C 0.9213 0.57988 0.000779999999999   0.284681
 N 0.6338 0.00357 0.65287   -0.107558
 N 0.8399 0.00436 0.84696   -0.220457
 N 0.8067 0.99985 0.49081   -0.015174
 N 0.114 0.0002 0.59182   -0.189545
 N 0.3662 0.34713 0.99643   -0.107557
 N 0.1601 0.15304 0.99564   -0.220457
 N 0.1933 0.50919 0.000149999999998   -0.015174
 N 0.886 0.40818 0.9998   -0.189545
 N 0.3662 0.99643 0.34713   -0.107558
 N 0.1601 0.99564 0.15304   -0.220457
 N 0.1933 0.000149999999998 0.50919   -0.015139
 N 0.886 0.9998 0.40818   -0.189514
 N 0.6338 0.65287 0.00357   -0.107558
 N 0.8399 0.84696 0.00436   -0.220456
 N 0.8067 0.49081 0.99985   -0.015139
 N 0.114 0.59182 0.0002   -0.189514
 Cl 0.6043 0.17652 0.52468   -0.429751
 Cl 0.3957 0.47532 0.82348   -0.429752
 Cl 0.3957 0.82348 0.47532   -0.429745
 Cl 0.6043 0.52468 0.17652   -0.429746
 Cl 0.76422 0.07688 0.07688   -0.471075
 Cl 0.23578 0.92312 0.92312   -0.471075
