{'_ref': 'TBD', '_srcid': 'CAKYAQ_clean', 'submitters': [{'name': 'Dalar Nazarian Jeff Camp and David Sholl', 'email': 'dalar@gatech.edu jcamp6@gatech.edu'}], '_method': 'VASP DFT with PBE;DDEC'}
data_NiH18(C10N3)2
_symmetry_space_group_name_H-M   'P 1'
_cell_length_a   15.09580000
_cell_length_b   17.00710000
_cell_length_c   17.48420000
_cell_angle_alpha   90.00000000
_cell_angle_beta   90.00000000
_cell_angle_gamma   90.00000000
_symmetry_Int_Tables_number   1
_chemical_formula_structural   NiH18(C10N3)2
_chemical_formula_sum   'Ni8 H144 C160 N48'
_cell_volume   4488.81972782
_cell_formula_units_Z   8
loop_
 _symmetry_equiv_pos_site_id
 _symmetry_equiv_pos_as_xyz
  1  'x, y, z'
loop_
 _atom_site_label
 _atom_site_fract_x
 _atom_site_fract_y
 _atom_site_fract_z
 _atom_site_charge
 Ni 0.5166 0.9315 0.8371   0.079522
 Ni 0.9919 0.4338 0.9354   0.006096
 Ni 0.9834 0.9315 0.3371   0.079522
 Ni 0.5081 0.4338 0.4354   0.006096
 Ni 0.4834 0.0685 0.3371   0.079502
 Ni 0.0081 0.5662 0.4354   0.006075
 Ni 0.0166 0.0685 0.8371   0.079502
 Ni 0.4919 0.5662 0.9354   0.006075
 H 0.1793 0.0901 0.6481   0.282441
 H 0.703 0.2573 0.6927   0.289687
 H 0.7983 0.7528 0.0862   0.295055
 H 0.3115 0.6098 0.1342   0.285946
 H 0.9724 0.0609 0.4731   0.058494
 H 0.0504 0.0974 0.5788   0.126636
 H 0.2452 0.9487 0.5136   0.132697
 H 0.1607 0.9175 0.4089   0.057205
 H 0.4008 0.072 0.8066   0.073709
 H 0.2913 0.1185 0.729   0.132373
 H 0.2931 0.9103 0.6171   0.127758
 H 0.406 0.8712 0.6973   0.06073
 H 0.5449 0.0366 0.6992   0.061123
 H 0.6089 0.1524 0.6626   0.134735
 H 0.7218 0.1659 0.8725   0.132305
 H 0.6544 0.0487 0.9012   0.060384
 H 0.8047 0.3738 0.9457   0.042287
 H 0.7026 0.2982 0.8814   0.141286
 H 0.8578 0.3126 0.6941   0.130386
 H 0.9549 0.3885 0.7635   0.068146
 H 0.7081 0.8795 0.8341   0.034787
 H 0.8066 0.8008 0.8976   0.143002
 H 0.6464 0.8146 0.0829   0.13196
 H 0.5523 0.8919 0.0122   0.065343
 H 0.8518 0.5522 0.8706   0.061025
 H 0.7838 0.6685 0.9022   0.130961
 H 0.8853 0.6432 0.115   0.130905
 H 0.9508 0.53 0.0757   0.059781
 H 0.0948 0.5836 0.9686   0.075227
 H 0.1984 0.6344 0.0508   0.132914
 H 0.2161 0.4201 0.1506   0.128899
 H 0.1098 0.3771 0.0659   0.062419
 H 0.5253 0.5622 0.3018   0.059337
 H 0.4475 0.6058 0.1977   0.128838
 H 0.2481 0.4605 0.2596   0.133166
 H 0.3315 0.4241 0.3629   0.056496
 H 0.3207 0.0901 0.1481   0.282441
 H 0.797 0.2573 0.1927   0.289684
 H 0.7017 0.7528 0.5862   0.295052
 H 0.1885 0.6098 0.6342   0.285946
 H 0.5276 0.0609 0.9731   0.058482
 H 0.4496 0.0974 0.0788   0.126636
 H 0.2548 0.9487 0.0136   0.132697
 H 0.3393 0.9175 0.9089   0.057206
 H 0.0992 0.072 0.3066   0.07371
 H 0.2087 0.1185 0.229   0.132366
 H 0.2069 0.9103 0.1171   0.127742
 H 0.094 0.8712 0.1973   0.060726
 H 0.9551 0.0366 0.1992   0.061123
 H 0.8911 0.1524 0.1626   0.134733
 H 0.7782 0.1659 0.3725   0.132302
 H 0.8456 0.0487 0.4012   0.060379
 H 0.6953 0.3738 0.4457   0.042283
 H 0.7974 0.2982 0.3814   0.141282
 H 0.6422 0.3126 0.1941   0.130386
 H 0.5451 0.3885 0.2635   0.068146
 H 0.7919 0.8795 0.3341   0.034784
 H 0.6934 0.8008 0.3976   0.142996
 H 0.8536 0.8146 0.5829   0.13196
 H 0.9477 0.8919 0.5122   0.065343
 H 0.6482 0.5522 0.3706   0.061019
 H 0.7162 0.6685 0.4022   0.130956
 H 0.6147 0.6432 0.615   0.1309
 H 0.5492 0.53 0.5757   0.059781
 H 0.4052 0.5836 0.4686   0.075228
 H 0.3016 0.6344 0.5508   0.132897
 H 0.2839 0.4201 0.6506   0.128893
 H 0.3902 0.3771 0.5659   0.062418
 H 0.9747 0.5622 0.8018   0.059321
 H 0.0525 0.6058 0.6977   0.128839
 H 0.2519 0.4605 0.7596   0.133166
 H 0.1685 0.4241 0.8629   0.056496
 H 0.8207 0.9099 0.1481   0.282403
 H 0.297 0.7427 0.1927   0.289617
 H 0.2017 0.2472 0.5862   0.29497
 H 0.6885 0.3902 0.6342   0.285921
 H 0.0276 0.9391 0.9731   0.058476
 H 0.9496 0.9026 0.0788   0.126578
 H 0.7548 0.0513 0.0136   0.132674
 H 0.8393 0.0825 0.9089   0.057188
 H 0.5992 0.928 0.3066   0.07369
 H 0.7087 0.8815 0.229   0.132269
 H 0.7069 0.0897 0.1171   0.12772
 H 0.594 0.1288 0.1973   0.060668
 H 0.4551 0.9634 0.1992   0.061127
 H 0.3911 0.8476 0.1626   0.134688
 H 0.2782 0.8341 0.3725   0.132256
 H 0.3456 0.9513 0.4012   0.060381
 H 0.1953 0.6262 0.4457   0.042277
 H 0.2974 0.7018 0.3814   0.141239
 H 0.1422 0.6874 0.1941   0.130324
 H 0.0451 0.6115 0.2635   0.068113
 H 0.2919 0.1205 0.3341   0.034759
 H 0.1934 0.1992 0.3976   0.142956
 H 0.3536 0.1854 0.5829   0.131895
 H 0.4477 0.1081 0.5122   0.065327
 H 0.1482 0.4478 0.3706   0.061022
 H 0.2162 0.3315 0.4022   0.130931
 H 0.1147 0.3568 0.615   0.130865
 H 0.0492 0.47 0.5757   0.059768
 H 0.9052 0.4164 0.4686   0.075205
 H 0.8016 0.3656 0.5508   0.132818
 H 0.7839 0.5799 0.6506   0.128853
 H 0.8902 0.6229 0.5659   0.062387
 H 0.4747 0.4378 0.8018   0.059325
 H 0.5525 0.3942 0.6977   0.128803
 H 0.7519 0.5395 0.7596   0.133149
 H 0.6685 0.5759 0.8629   0.056492
 H 0.6793 0.9099 0.6481   0.282403
 H 0.203 0.7427 0.6927   0.289615
 H 0.2983 0.2472 0.0862   0.294968
 H 0.8115 0.3902 0.1342   0.285921
 H 0.4724 0.9391 0.4731   0.058465
 H 0.5504 0.9026 0.5788   0.126579
 H 0.7452 0.0513 0.5136   0.132673
 H 0.6607 0.0825 0.4089   0.057188
 H 0.9008 0.928 0.8066   0.073691
 H 0.7913 0.8815 0.729   0.132264
 H 0.7931 0.0897 0.6171   0.127706
 H 0.906 0.1288 0.6973   0.060664
 H 0.0449 0.9634 0.6992   0.061127
 H 0.1089 0.8476 0.6626   0.134686
 H 0.2218 0.8341 0.8725   0.132253
 H 0.1544 0.9513 0.9012   0.060377
 H 0.3047 0.6262 0.9457   0.042274
 H 0.2026 0.7018 0.8814   0.141235
 H 0.3578 0.6874 0.6941   0.130324
 H 0.4549 0.6115 0.7635   0.068113
 H 0.2081 0.1205 0.8341   0.034758
 H 0.3066 0.1992 0.8976   0.142951
 H 0.1464 0.1854 0.0829   0.131895
 H 0.0523 0.1081 0.0122   0.065327
 H 0.3518 0.4478 0.8706   0.061017
 H 0.2838 0.3315 0.9022   0.130927
 H 0.3853 0.3568 0.115   0.130862
 H 0.4508 0.47 0.0757   0.059768
 H 0.5948 0.4164 0.9686   0.075206
 H 0.6984 0.3656 0.0508   0.132803
 H 0.7161 0.5799 0.1506   0.128849
 H 0.6098 0.6229 0.0659   0.062386
 H 0.0253 0.4378 0.3018   0.05931
 H 0.9475 0.3942 0.1977   0.128804
 H 0.7481 0.5395 0.2596   0.133149
 H 0.8315 0.5759 0.3629   0.056492
 C 0.0272 0.0375 0.4817   0.133855
 C 0.0737 0.0599 0.5458   -0.311891
 C 0.1574 0.0255 0.5615   0.258674
 C 0.1898 0.9717 0.5073   -0.308964
 C 0.1378 0.9531 0.4441   0.132659
 C 0.3788 0.0392 0.7686   0.13599
 C 0.3121 0.0674 0.7224   -0.303188
 C 0.2751 0.0189 0.665   0.250473
 C 0.3131 0.9439 0.6554   -0.298363
 C 0.3814 0.9208 0.7045   0.128996
 C 0.5801 0.0631 0.7344   0.136237
 C 0.6186 0.133 0.7116   -0.319854
 C 0.6733 0.1749 0.7637   0.270022
 C 0.6862 0.1413 0.8364   -0.317636
 C 0.6444 0.0704 0.8531   0.153036
 C 0.816 0.3606 0.8951   0.125484
 C 0.7542 0.3143 0.8569   -0.288348
 C 0.7706 0.2924 0.7812   0.244255
 C 0.8466 0.3231 0.7454   -0.307516
 C 0.9046 0.3691 0.7878   0.136226
 C 0.6946 0.8644 0.8838   0.134622
 C 0.7546 0.8169 0.9215   -0.291242
 C 0.7352 0.7932 0.9976   0.246538
 C 0.6591 0.825 0.0319   -0.306058
 C 0.6029 0.872 0.9887   0.137088
 C 0.86 0.5717 0.9197   0.148092
 C 0.818 0.6421 0.9383   -0.321112
 C 0.8283 0.6728 0.0128   0.264745
 C 0.8787 0.627 0.0646   -0.317904
 C 0.9179 0.5585 0.0403   0.134004
 C 0.1196 0.5507 0.0053   0.130956
 C 0.1828 0.5816 0.0541   -0.302797
 C 0.2236 0.5324 0.1089   0.256383
 C 0.1934 0.4542 0.1138   -0.299893
 C 0.1289 0.429 0.0626   0.13368
 C 0.4694 0.5412 0.2928   0.13021
 C 0.423 0.5678 0.2296   -0.311186
 C 0.3379 0.5366 0.2138   0.26005
 C 0.3043 0.4818 0.2663   -0.305818
 C 0.3557 0.4597 0.3284   0.137341
 C 0.4728 0.0375 0.9817   0.133858
 C 0.4263 0.0599 0.0458   -0.311892
 C 0.3426 0.0255 0.0615   0.258674
 C 0.3102 0.9717 0.0073   -0.308962
 C 0.3622 0.9531 0.9441   0.132649
 C 0.1212 0.0392 0.2686   0.135982
 C 0.1879 0.0674 0.2224   -0.303185
 C 0.2249 0.0189 0.165   0.250471
 C 0.1869 0.9439 0.1554   -0.298357
 C 0.1186 0.9208 0.2045   0.128996
 C 0.9199 0.0631 0.2344   0.136237
 C 0.8814 0.133 0.2116   -0.319853
 C 0.8267 0.1749 0.2637   0.270021
 C 0.8138 0.1413 0.3364   -0.317635
 C 0.8556 0.0704 0.3531   0.153036
 C 0.684 0.3606 0.3951   0.125485
 C 0.7458 0.3143 0.3569   -0.288346
 C 0.7294 0.2924 0.2812   0.244254
 C 0.6534 0.3231 0.2454   -0.307516
 C 0.5954 0.3691 0.2878   0.136227
 C 0.8054 0.8644 0.3838   0.134622
 C 0.7454 0.8169 0.4215   -0.29124
 C 0.7648 0.7932 0.4976   0.246537
 C 0.8409 0.825 0.5319   -0.306058
 C 0.8971 0.872 0.4887   0.137086
 C 0.64 0.5717 0.4197   0.148095
 C 0.682 0.6421 0.4383   -0.321111
 C 0.6717 0.6728 0.5128   0.264743
 C 0.6213 0.627 0.5646   -0.317903
 C 0.5821 0.5585 0.5403   0.134003
 C 0.3804 0.5507 0.5053   0.130947
 C 0.3172 0.5816 0.5541   -0.302789
 C 0.2764 0.5324 0.6089   0.25638
 C 0.3066 0.4542 0.6138   -0.29989
 C 0.3711 0.429 0.5626   0.133679
 C 0.0306 0.5412 0.7928   0.130216
 C 0.077 0.5678 0.7296   -0.311188
 C 0.1621 0.5366 0.7138   0.26005
 C 0.1957 0.4818 0.7663   -0.305817
 C 0.1443 0.4597 0.8284   0.137334
 C 0.9728 0.9625 0.9817   0.133857
 C 0.9263 0.9401 0.0458   -0.311875
 C 0.8426 0.9745 0.0615   0.258646
 C 0.8102 0.0283 0.0073   -0.30896
 C 0.8622 0.0469 0.9441   0.132639
 C 0.6212 0.9608 0.2686   0.135977
 C 0.6879 0.9326 0.2224   -0.303147
 C 0.7249 0.9811 0.165   0.250429
 C 0.6869 0.0561 0.1554   -0.298362
 C 0.6186 0.0792 0.2045   0.129003
 C 0.4199 0.9369 0.2344   0.136222
 C 0.3814 0.867 0.2116   -0.31984
 C 0.3267 0.8251 0.2637   0.269985
 C 0.3138 0.8587 0.3364   -0.317615
 C 0.3556 0.9296 0.3531   0.153025
 C 0.184 0.6394 0.3951   0.125444
 C 0.2458 0.6857 0.3569   -0.288326
 C 0.2294 0.7076 0.2812   0.244218
 C 0.1534 0.6769 0.2454   -0.307506
 C 0.0954 0.6309 0.2878   0.136224
 C 0.3054 0.1356 0.3838   0.134601
 C 0.2454 0.1831 0.4215   -0.291225
 C 0.2648 0.2068 0.4976   0.246504
 C 0.3409 0.175 0.5319   -0.306045
 C 0.3971 0.128 0.4887   0.137078
 C 0.14 0.4283 0.4197   0.148084
 C 0.182 0.3579 0.4383   -0.321096
 C 0.1717 0.3272 0.5128   0.264715
 C 0.1213 0.373 0.5646   -0.317907
 C 0.0821 0.4415 0.5403   0.133998
 C 0.8804 0.4493 0.5053   0.130935
 C 0.8172 0.4184 0.5541   -0.302759
 C 0.7764 0.4676 0.6089   0.256344
 C 0.8066 0.5458 0.6138   -0.299899
 C 0.8711 0.571 0.5626   0.133683
 C 0.5306 0.4588 0.7928   0.130206
 C 0.577 0.4322 0.7296   -0.311173
 C 0.6621 0.4634 0.7138   0.26002
 C 0.6957 0.5182 0.7663   -0.305813
 C 0.6443 0.5403 0.8284   0.137319
 C 0.5272 0.9625 0.4817   0.133859
 C 0.5737 0.9401 0.5458   -0.311876
 C 0.6574 0.9745 0.5615   0.258645
 C 0.6898 0.0283 0.5073   -0.308958
 C 0.6378 0.0469 0.4441   0.13263
 C 0.8788 0.9608 0.7686   0.135968
 C 0.8121 0.9326 0.7224   -0.303144
 C 0.7751 0.9811 0.665   0.250427
 C 0.8131 0.0561 0.6554   -0.298357
 C 0.8814 0.0792 0.7045   0.129002
 C 0.0801 0.9369 0.7344   0.136222
 C 0.1186 0.867 0.7116   -0.31984
 C 0.1733 0.8251 0.7637   0.269985
 C 0.1862 0.8587 0.8364   -0.317614
 C 0.1444 0.9296 0.8531   0.153026
 C 0.316 0.6394 0.8951   0.125444
 C 0.2542 0.6857 0.8569   -0.288325
 C 0.2706 0.7076 0.7812   0.244217
 C 0.3466 0.6769 0.7454   -0.307507
 C 0.4046 0.6309 0.7878   0.136225
 C 0.1946 0.1356 0.8838   0.1346
 C 0.2546 0.1831 0.9215   -0.291223
 C 0.2352 0.2068 0.9976   0.246503
 C 0.1591 0.175 0.0319   -0.306045
 C 0.1029 0.128 0.9887   0.137076
 C 0.36 0.4283 0.9197   0.148086
 C 0.318 0.3579 0.9383   -0.321096
 C 0.3283 0.3272 0.0128   0.264714
 C 0.3787 0.373 0.0646   -0.317905
 C 0.4179 0.4415 0.0403   0.133998
 C 0.6196 0.4493 0.0053   0.130926
 C 0.6828 0.4184 0.0541   -0.302753
 C 0.7236 0.4676 0.1089   0.256341
 C 0.6934 0.5458 0.1138   -0.299897
 C 0.6289 0.571 0.0626   0.133682
 C 0.9694 0.4588 0.2928   0.130212
 C 0.923 0.4322 0.2296   -0.311175
 C 0.8379 0.4634 0.2138   0.26002
 C 0.8043 0.5182 0.2663   -0.305812
 C 0.8557 0.5403 0.3284   0.137313
 N 0.056 0.9834 0.4299   -0.264347
 N 0.2015 0.049 0.6269   -0.364892
 N 0.4142 0.9659 0.7618   -0.270573
 N 0.5903 0.0306 0.805   -0.267081
 N 0.7137 0.2432 0.739   -0.391573
 N 0.8921 0.3875 0.8626   -0.260022
 N 0.6172 0.8907 0.9141   -0.27691
 N 0.7889 0.741 0.0391   -0.389056
 N 0.9117 0.5297 0.9675   -0.26679
 N 0.0921 0.475 0.0082   -0.248556
 N 0.2933 0.5649 0.1505   -0.373007
 N 0.4384 0.4862 0.3423   -0.24832
 N 0.444 0.9834 0.9299   -0.264347
 N 0.2985 0.049 0.1269   -0.364891
 N 0.0858 0.9659 0.2618   -0.270573
 N 0.9097 0.0306 0.305   -0.267081
 N 0.7863 0.2432 0.239   -0.391572
 N 0.6079 0.3875 0.3626   -0.260024
 N 0.8828 0.8907 0.4141   -0.276909
 N 0.7111 0.741 0.5391   -0.389054
 N 0.5883 0.5297 0.4675   -0.266791
 N 0.4079 0.475 0.5082   -0.248556
 N 0.2067 0.5649 0.6505   -0.373006
 N 0.0616 0.4862 0.8423   -0.248323
 N 0.944 0.0166 0.9299   -0.264344
 N 0.7985 0.951 0.1269   -0.364866
 N 0.5858 0.0341 0.2618   -0.270574
 N 0.4097 0.9694 0.305   -0.267075
 N 0.2863 0.7568 0.239   -0.391537
 N 0.1079 0.6125 0.3626   -0.260017
 N 0.3828 0.1093 0.4141   -0.276906
 N 0.2111 0.259 0.5391   -0.389015
 N 0.0883 0.4703 0.4675   -0.266787
 N 0.9079 0.525 0.5082   -0.248554
 N 0.7067 0.4351 0.6505   -0.372988
 N 0.5616 0.5138 0.8423   -0.248315
 N 0.556 0.0166 0.4299   -0.264344
 N 0.7015 0.951 0.6269   -0.364866
 N 0.9142 0.0341 0.7618   -0.270574
 N 0.0903 0.9694 0.805   -0.267075
 N 0.2137 0.7568 0.739   -0.391536
 N 0.3921 0.6125 0.8626   -0.260019
 N 0.1172 0.1093 0.9141   -0.276905
 N 0.2889 0.259 0.0391   -0.389014
 N 0.4117 0.4703 0.9675   -0.266787
 N 0.5921 0.525 0.0082   -0.248554
 N 0.7933 0.4351 0.1505   -0.372987
 N 0.9384 0.5138 0.3423   -0.248318
