{'_ref': 'TBD', '_srcid': 'CAKYAQ_clean', 'submitters': [{'name': 'Dalar Nazarian Jeff Camp and David Sholl', 'email': 'dalar@gatech.edu jcamp6@gatech.edu'}], '_method': 'VASP DFT with PBE;DDEC'}
data_VH4C8O5
_symmetry_space_group_name_H-M   'P 1'
_cell_length_a   14.44470000
_cell_length_b   15.66090000
_cell_length_c   20.45630000
_cell_angle_alpha   90.00000000
_cell_angle_beta   90.00000000
_cell_angle_gamma   90.00000000
_symmetry_Int_Tables_number   1
_chemical_formula_structural   VH4C8O5
_chemical_formula_sum   'V12 H48 C96 O60'
_cell_volume   4627.56286272
_cell_formula_units_Z   12
loop_
 _symmetry_equiv_pos_site_id
 _symmetry_equiv_pos_as_xyz
  1  'x, y, z'
loop_
 _atom_site_label
 _atom_site_fract_x
 _atom_site_fract_y
 _atom_site_fract_z
 _atom_site_charge
 V 0.236 0.742 0.2795   2.075946
 V 0.73 0.246 0.3955   2.164237
 V 0.235 0.744 0.432   1.656581
 V 0.764 0.242 0.7205   2.075946
 V 0.27 0.746 0.6045   2.164237
 V 0.765 0.244 0.568   1.656582
 V 0.264 0.742 0.7795   2.075946
 V 0.77 0.246 0.8955   2.164237
 V 0.265 0.744 0.932   1.656581
 V 0.736 0.242 0.2205   2.075946
 V 0.23 0.746 0.1045   2.164237
 V 0.735 0.244 0.068   1.656582
 H 0.43332 0.56632 0.60131   0.094802
 H 0.55109 0.44909 0.61064   0.113689
 H 0.4489 0.55092 0.38936   0.113869
 H 0.56669 0.43367 0.3987   0.103871
 H 0.04588 0.54624 0.44123   0.104769
 H 0.92929 0.42892 0.42659   0.112716
 H 0.07072 0.57109 0.23042   0.111081
 H 0.95417 0.4538 0.21575   0.108239
 H 0.4407 0.55902 0.2702   0.117704
 H 0.55904 0.44142 0.27026   0.120579
 H 0.44101 0.55852 0.05771   0.109571
 H 0.5592 0.44108 0.05774   0.11257
 H 0.56668 0.06632 0.39869   0.094802
 H 0.44891 0.94909 0.38936   0.113689
 H 0.5511 0.05092 0.61064   0.113869
 H 0.43331 0.93367 0.6013   0.103871
 H 0.95412 0.04624 0.55877   0.104769
 H 0.07071 0.92892 0.57341   0.112716
 H 0.92928 0.07109 0.76958   0.111081
 H 0.04583 0.9538 0.78425   0.108239
 H 0.5593 0.05902 0.7298   0.117704
 H 0.44096 0.94142 0.72974   0.120579
 H 0.55899 0.05852 0.94229   0.109571
 H 0.4408 0.94108 0.94226   0.112569
 H 0.06668 0.56632 0.10131   0.094802
 H 0.94891 0.44909 0.11064   0.113689
 H 0.0511 0.55092 0.88936   0.113869
 H 0.93331 0.43367 0.8987   0.103871
 H 0.45412 0.54624 0.94123   0.104769
 H 0.57071 0.42892 0.92659   0.112716
 H 0.42928 0.57109 0.73042   0.111081
 H 0.54583 0.4538 0.71575   0.108239
 H 0.0593 0.55902 0.7702   0.117704
 H 0.94096 0.44142 0.77026   0.120579
 H 0.05899 0.55852 0.55771   0.109572
 H 0.9408 0.44108 0.55774   0.11257
 H 0.93332 0.06632 0.89869   0.094802
 H 0.05109 0.94909 0.88936   0.113689
 H 0.9489 0.05092 0.11064   0.113869
 H 0.06669 0.93367 0.1013   0.103871
 H 0.54588 0.04624 0.05877   0.104769
 H 0.42929 0.92892 0.07341   0.112716
 H 0.57072 0.07109 0.26958   0.111081
 H 0.45417 0.9538 0.28425   0.108239
 H 0.9407 0.05902 0.2298   0.117704
 H 0.05904 0.94142 0.22974   0.120579
 H 0.94101 0.05852 0.44229   0.109572
 H 0.0592 0.94108 0.44226   0.11257
 C 0.4357 0.564 0.4949   -0.065594
 C 0.4636 0.5362 0.5553   -0.064631
 C 0.5279 0.4722 0.5604   -0.079345
 C 0.4721 0.5278 0.4396   -0.080445
 C 0.5364 0.4638 0.4447   -0.074482
 C 0.5643 0.436 0.5051   -0.056476
 C 0.3653 0.634 0.4894   0.641418
 C 0.6347 0.366 0.5106   0.631235
 C 0.0636 0.564 0.336   -0.073389
 C 0.0249 0.5251 0.39   -0.085276
 C 0.9613 0.4611 0.382   -0.074733
 C 0.0387 0.5389 0.275   -0.086966
 C 0.9751 0.4749 0.267   -0.061099
 C 0.9364 0.436 0.32   -0.060753
 C 0.1332 0.6341 0.346   0.584423
 C 0.8668 0.3659 0.311   0.68814
 C 0.4354 0.564 0.164   -0.052437
 C 0.4676 0.5322 0.222   -0.070967
 C 0.5322 0.4681 0.222   -0.081751
 C 0.4678 0.5319 0.106   -0.076984
 C 0.5324 0.4678 0.106   -0.076675
 C 0.5646 0.436 0.164   -0.062067
 C 0.3646 0.6341 0.164   0.675454
 C 0.6354 0.3659 0.164   0.623693
 C 0.5643 0.064 0.5051   -0.065595
 C 0.5364 0.0362 0.4447   -0.064631
 C 0.4721 0.9722 0.4396   -0.079346
 C 0.5279 0.0278 0.5604   -0.080446
 C 0.4636 0.9638 0.5553   -0.074483
 C 0.4357 0.936 0.4949   -0.056476
 C 0.6347 0.134 0.5106   0.641416
 C 0.3653 0.866 0.4894   0.631235
 C 0.9364 0.064 0.664   -0.073389
 C 0.9751 0.0251 0.61   -0.085276
 C 0.0387 0.9611 0.618   -0.074733
 C 0.9613 0.0389 0.725   -0.086966
 C 0.0249 0.9749 0.733   -0.061099
 C 0.0636 0.936 0.68   -0.060753
 C 0.8668 0.1341 0.654   0.584423
 C 0.1332 0.8659 0.689   0.68814
 C 0.5646 0.064 0.836   -0.052437
 C 0.5324 0.0322 0.778   -0.070967
 C 0.4678 0.9681 0.778   -0.081751
 C 0.5322 0.0319 0.894   -0.076984
 C 0.4676 0.9678 0.894   -0.076675
 C 0.4354 0.936 0.836   -0.062067
 C 0.6354 0.1341 0.836   0.675454
 C 0.3646 0.8659 0.836   0.623693
 C 0.0643 0.564 0.9949   -0.065594
 C 0.0364 0.5362 0.0553   -0.064631
 C 0.9721 0.4722 0.0604   -0.079345
 C 0.0279 0.5278 0.9396   -0.080445
 C 0.9636 0.4638 0.9447   -0.074482
 C 0.9357 0.436 0.0051   -0.056475
 C 0.1347 0.634 0.9894   0.641418
 C 0.8653 0.366 0.0106   0.631235
 C 0.4364 0.564 0.836   -0.07339
 C 0.4751 0.5251 0.89   -0.085276
 C 0.5387 0.4611 0.882   -0.074734
 C 0.4613 0.5389 0.775   -0.086966
 C 0.5249 0.4749 0.767   -0.061099
 C 0.5636 0.436 0.82   -0.060753
 C 0.3668 0.6341 0.846   0.584423
 C 0.6332 0.3659 0.811   0.68814
 C 0.0646 0.564 0.664   -0.052437
 C 0.0324 0.5322 0.722   -0.070968
 C 0.9678 0.4681 0.722   -0.081751
 C 0.0322 0.5319 0.606   -0.076985
 C 0.9676 0.4678 0.606   -0.076675
 C 0.9354 0.436 0.664   -0.062067
 C 0.1354 0.6341 0.664   0.675454
 C 0.8646 0.3659 0.664   0.623693
 C 0.9357 0.064 0.0051   -0.065595
 C 0.9636 0.0362 0.9447   -0.064631
 C 0.0279 0.9722 0.9396   -0.079346
 C 0.9721 0.0278 0.0604   -0.080446
 C 0.0364 0.9638 0.0553   -0.074483
 C 0.0643 0.936 0.9949   -0.056476
 C 0.8653 0.134 0.0106   0.641416
 C 0.1347 0.866 0.9894   0.631235
 C 0.5636 0.064 0.164   -0.07339
 C 0.5249 0.0251 0.11   -0.085276
 C 0.4613 0.9611 0.118   -0.074734
 C 0.5387 0.0389 0.225   -0.086966
 C 0.4751 0.9749 0.233   -0.061099
 C 0.4364 0.936 0.18   -0.060753
 C 0.6332 0.1341 0.154   0.584423
 C 0.3668 0.8659 0.189   0.68814
 C 0.9354 0.064 0.336   -0.052437
 C 0.9676 0.0322 0.278   -0.070968
 C 0.0322 0.9681 0.278   -0.081751
 C 0.9678 0.0319 0.394   -0.076985
 C 0.0324 0.9678 0.394   -0.076675
 C 0.0646 0.936 0.336   -0.062067
 C 0.8646 0.1341 0.336   0.675454
 C 0.1354 0.8659 0.336   0.623693
 O 0.31 0.729 0.355   -0.775547
 O 0.76422 0.25813 0.46104   -0.689936
 O 0.203 0.75814 0.19173   -1.057002
 O 0.3388 0.6604 0.432   -0.461283
 O 0.6692 0.3317 0.458   -0.616295
 O 0.3308 0.6683 0.542   -0.72639
 O 0.6612 0.3396 0.568   -0.515896
 O 0.1699 0.671 0.295   -0.608543
 O 0.8431 0.3421 0.252   -0.613169
 O 0.1569 0.6579 0.404   -0.606321
 O 0.8301 0.329 0.362   -0.644513
 O 0.3341 0.6644 0.109   -0.620319
 O 0.6662 0.3354 0.109   -0.669567
 O 0.3338 0.6646 0.219   -0.645859
 O 0.6659 0.3356 0.22   -0.529881
 O 0.69 0.229 0.645   -0.775547
 O 0.23578 0.75813 0.53896   -0.689926
 O 0.797 0.25814 0.80827   -1.057002
 O 0.6612 0.1604 0.568   -0.461283
 O 0.3308 0.8317 0.542   -0.616295
 O 0.6692 0.1683 0.458   -0.72638
 O 0.3388 0.8396 0.432   -0.515896
 O 0.8301 0.171 0.705   -0.608543
 O 0.1569 0.8421 0.748   -0.613169
 O 0.8431 0.1579 0.596   -0.606321
 O 0.1699 0.829 0.638   -0.644514
 O 0.6659 0.1644 0.891   -0.620319
 O 0.3338 0.8354 0.891   -0.669566
 O 0.6662 0.1646 0.781   -0.645859
 O 0.3341 0.8356 0.78   -0.529881
 O 0.19 0.729 0.855   -0.775547
 O 0.73578 0.25813 0.96104   -0.689936
 O 0.297 0.75814 0.69173   -1.057001
 O 0.1612 0.6604 0.932   -0.461283
 O 0.8308 0.3317 0.958   -0.616295
 O 0.1692 0.6683 0.042   -0.72639
 O 0.8388 0.3396 0.068   -0.515896
 O 0.3301 0.671 0.795   -0.608543
 O 0.6569 0.3421 0.752   -0.613169
 O 0.3431 0.6579 0.904   -0.606321
 O 0.6699 0.329 0.862   -0.644513
 O 0.1659 0.6644 0.609   -0.620319
 O 0.8338 0.3354 0.609   -0.669567
 O 0.1662 0.6646 0.719   -0.645859
 O 0.8341 0.3356 0.72   -0.529881
 O 0.81 0.229 0.145   -0.775547
 O 0.26422 0.75813 0.03896   -0.689926
 O 0.703 0.25814 0.30827   -1.057002
 O 0.8388 0.1604 0.068   -0.461283
 O 0.1692 0.8317 0.042   -0.616295
 O 0.8308 0.1683 0.958   -0.72638
 O 0.1612 0.8396 0.932   -0.515896
 O 0.6699 0.171 0.205   -0.608543
 O 0.3431 0.8421 0.248   -0.613169
 O 0.6569 0.1579 0.096   -0.606321
 O 0.3301 0.829 0.138   -0.644514
 O 0.8341 0.1644 0.391   -0.620319
 O 0.1662 0.8354 0.391   -0.669566
 O 0.8338 0.1646 0.281   -0.645859
 O 0.1659 0.8356 0.28   -0.529881
