{'_ref': 'TBD', '_srcid': 'CAKYAQ_clean', 'submitters': [{'name': 'Dalar Nazarian Jeff Camp and David Sholl', 'email': 'dalar@gatech.edu jcamp6@gatech.edu'}], '_method': 'VASP DFT with PBE;DDEC'}
data_CoH2(C3O2)2
_symmetry_space_group_name_H-M   'P 1'
_cell_length_a   10.10699979
_cell_length_b   10.25800000
_cell_length_c   16.27600000
_cell_angle_alpha   90.00000000
_cell_angle_beta   95.37999832
_cell_angle_gamma   90.00000000
_symmetry_Int_Tables_number   1
_chemical_formula_structural   CoH2(C3O2)2
_chemical_formula_sum   'Co6 H12 C36 O24'
_cell_volume   1680.02302348
_cell_formula_units_Z   6
loop_
 _symmetry_equiv_pos_site_id
 _symmetry_equiv_pos_as_xyz
  1  'x, y, z'
loop_
 _atom_site_label
 _atom_site_fract_x
 _atom_site_fract_y
 _atom_site_fract_z
 _atom_site_charge
 Co 0.227 0.25396 0.57763   0.900915
 Co 0.773 0.75396 0.92237   0.900915
 Co 0.773 0.74604 0.42237   0.900917
 Co 0.227 0.24604 0.07763   0.900917
 Co 0.0 0.0 0.0   0.93335
 Co 0.0 0.5 0.5   0.93335
 H 0.0506 0.6407 0.7503   0.110652
 H 0.4364 0.5568 0.7368   0.114778
 H 0.3248 0.7747 0.9229   0.113689
 H 0.9494 0.1407 0.7497   0.110652
 H 0.5636 0.0568 0.7632   0.114778
 H 0.6752 0.2747 0.5771   0.113689
 H 0.9494 0.3593 0.2497   0.110652
 H 0.5636 0.4432 0.2632   0.114778
 H 0.6752 0.2253 0.0771   0.113689
 H 0.0506 0.8593 0.2503   0.110652
 H 0.4364 0.9432 0.2368   0.114778
 H 0.3248 0.7253 0.4229   0.113689
 C 0.0642 0.7798 0.8897   0.708293
 C 0.1703 0.717 0.8441   -0.178219
 C 0.1389 0.648 0.7716   0.023956
 C 0.2377 0.5897 0.7304   -0.159821
 C 0.3702 0.5985 0.763   0.027251
 C 0.403 0.67 0.8347   -0.148871
 C 0.3028 0.7278 0.8747   0.028792
 C 0.2011 0.5161 0.6521   0.708685
 C 0.5454 0.6876 0.8676   0.650503
 C 0.9358 0.2798 0.6103   0.708293
 C 0.8297 0.217 0.6559   -0.178219
 C 0.8611 0.148 0.7284   0.023956
 C 0.7623 0.0897 0.7696   -0.159821
 C 0.6298 0.0985 0.737   0.02725
 C 0.597 0.17 0.6653   -0.148871
 C 0.6972 0.2278 0.6253   0.028792
 C 0.7989 0.0161 0.8479   0.708685
 C 0.4546 0.1876 0.6324   0.650503
 C 0.9358 0.2202 0.1103   0.708293
 C 0.8297 0.283 0.1559   -0.178219
 C 0.8611 0.352 0.2284   0.023956
 C 0.7623 0.4103 0.2696   -0.159821
 C 0.6298 0.4015 0.237   0.027251
 C 0.597 0.33 0.1653   -0.148871
 C 0.6972 0.2722 0.1253   0.028792
 C 0.7989 0.4839 0.3479   0.708685
 C 0.4546 0.3124 0.1324   0.650503
 C 0.0642 0.7202 0.3897   0.708293
 C 0.1703 0.783 0.3441   -0.178219
 C 0.1389 0.852 0.2716   0.023956
 C 0.2377 0.9103 0.2304   -0.159821
 C 0.3702 0.9015 0.263   0.02725
 C 0.403 0.83 0.3347   -0.148871
 C 0.3028 0.7722 0.3747   0.028792
 C 0.2011 0.9839 0.1521   0.708685
 C 0.5454 0.8124 0.3676   0.650503
 O 0.9468 0.7466 0.8689   -0.582019
 O 0.1032 0.8608 0.9445   -0.568488
 O 0.094 0.5502 0.6121   -0.585234
 O 0.2795 0.4286 0.6333   -0.556373
 O 0.6371 0.6614 0.8235   -0.522105
 O 0.5695 0.7323 0.9396   -0.553058
 O 0.0532 0.2466 0.6311   -0.582019
 O 0.8968 0.3608 0.5555   -0.568488
 O 0.906 0.0502 0.8879   -0.585234
 O 0.7205 0.9286 0.8667   -0.556373
 O 0.3629 0.1614 0.6765   -0.522105
 O 0.4305 0.2323 0.5604   -0.553058
 O 0.0532 0.2534 0.1311   -0.582019
 O 0.8968 0.1392 0.0555   -0.568488
 O 0.906 0.4498 0.3879   -0.585234
 O 0.7205 0.5714 0.3667   -0.556374
 O 0.3629 0.3386 0.1765   -0.522106
 O 0.4305 0.2677 0.0604   -0.553058
 O 0.9468 0.7534 0.3689   -0.582019
 O 0.1032 0.6392 0.4445   -0.568488
 O 0.094 0.9498 0.1121   -0.585234
 O 0.2795 0.0714 0.1333   -0.556374
 O 0.6371 0.8386 0.3235   -0.522106
 O 0.5695 0.7677 0.4396   -0.553058
