{'_ref': 'TBD', '_srcid': 'CAKYAQ_clean', 'submitters': [{'name': 'Dalar Nazarian Jeff Camp and David Sholl', 'email': 'dalar@gatech.edu jcamp6@gatech.edu'}], '_method': 'VASP DFT with PBE;DDEC'}
data_Cd2H20C28SN2O11
_symmetry_space_group_name_H-M   'P 1'
_cell_length_a   9.25060000
_cell_length_b   18.77000000
_cell_length_c   19.69500000
_cell_angle_alpha   90.00000000
_cell_angle_beta   90.00000000
_cell_angle_gamma   90.00000000
_symmetry_Int_Tables_number   1
_chemical_formula_structural   Cd2H20C28SN2O11
_chemical_formula_sum   'Cd8 H80 C112 S4 N8 O44'
_cell_volume   3419.71694259
_cell_formula_units_Z   4
loop_
 _symmetry_equiv_pos_site_id
 _symmetry_equiv_pos_as_xyz
  1  'x, y, z'
loop_
 _atom_site_label
 _atom_site_fract_x
 _atom_site_fract_y
 _atom_site_fract_z
 _atom_site_charge
 Cd 0.16348 0.72963 0.33698   1.006409
 Cd 0.29166 0.28265 0.89282   0.947219
 Cd 0.83652 0.22963 0.66302   1.006409
 Cd 0.70834 0.78265 0.10718   0.947219
 Cd 0.33652 0.72963 0.83698   1.006409
 Cd 0.20834 0.28265 0.39282   0.947218
 Cd 0.66348 0.22963 0.16302   1.006409
 Cd 0.79166 0.78265 0.60718   0.947218
 H 0.3284 0.6025 0.7006   0.384391
 H 0.2295 0.4198 0.5338   0.387802
 H 0.2325 0.0786 0.5625   0.11398
 H 0.3659 0.0614 0.4654   0.100484
 H 0.3365 0.9591 0.4018   0.09143
 H 0.2424 0.9172 0.6931   0.114198
 H 0.411 0.9367 0.7761   0.101838
 H 0.426 0.047 0.8275   0.091805
 H 0.0653 0.6974 0.4846   0.07739
 H 0.0708 0.6175 0.5708   0.131392
 H 0.3789 0.5111 0.4709   0.124315
 H 0.3621 0.5941 0.3869   0.074962
 H 0.1285 0.4928 0.6053   0.062323
 H 0.4249 0.5262 0.6304   0.059509
 H 0.1496 0.5098 0.7556   0.11474
 H 0.1323 0.423 0.8347   0.070802
 H 0.4631 0.3244 0.7592   0.079693
 H 0.4901 0.4091 0.6769   0.128408
 H 0.0524 0.3158 0.9626   0.520167
 H 0.0851 0.2831 0.8958   0.416653
 H 0.6716 0.1025 0.2994   0.384391
 H 0.7705 0.9198 0.4662   0.387802
 H 0.7675 0.5786 0.4375   0.113979
 H 0.6341 0.5614 0.5346   0.100484
 H 0.6635 0.4591 0.5982   0.091429
 H 0.7576 0.4172 0.3069   0.114198
 H 0.589 0.4367 0.2239   0.101838
 H 0.574 0.547 0.1725   0.091805
 H 0.9347 0.1974 0.5154   0.07739
 H 0.9292 0.1175 0.4292   0.131392
 H 0.6211 0.0111 0.5291   0.124315
 H 0.6379 0.0941 0.6131   0.074962
 H 0.8715 0.9928 0.3947   0.062323
 H 0.5751 0.0262 0.3696   0.059509
 H 0.8504 0.0098 0.2444   0.11474
 H 0.8677 0.923 0.1653   0.070802
 H 0.5369 0.8244 0.2408   0.079693
 H 0.5099 0.9091 0.3231   0.128408
 H 0.9476 0.8158 0.0374   0.520167
 H 0.9149 0.7831 0.1042   0.416653
 H 0.1716 0.6025 0.2006   0.384391
 H 0.2705 0.4198 0.0338   0.387801
 H 0.2675 0.0786 0.0625   0.113979
 H 0.1341 0.0614 0.9654   0.100484
 H 0.1635 0.9591 0.9018   0.09143
 H 0.2576 0.9172 0.1931   0.114199
 H 0.089 0.9367 0.2761   0.101839
 H 0.074 0.047 0.3275   0.091804
 H 0.4347 0.6974 0.9846   0.07739
 H 0.4292 0.6175 0.0708   0.131392
 H 0.1211 0.5111 0.9709   0.124316
 H 0.1379 0.5941 0.8869   0.074963
 H 0.3715 0.4928 0.1053   0.062323
 H 0.0751 0.5262 0.1304   0.059509
 H 0.3504 0.5098 0.2556   0.11474
 H 0.3677 0.423 0.3347   0.070804
 H 0.0369 0.3244 0.2592   0.079693
 H 0.0099 0.4091 0.1769   0.128408
 H 0.4476 0.3158 0.4626   0.520167
 H 0.4149 0.2831 0.3958   0.416654
 H 0.8284 0.1025 0.7994   0.384391
 H 0.7295 0.9198 0.9662   0.387801
 H 0.7325 0.5786 0.9375   0.113979
 H 0.8659 0.5614 0.0346   0.100484
 H 0.8365 0.4591 0.0982   0.091429
 H 0.7424 0.4172 0.8069   0.114199
 H 0.911 0.4367 0.7239   0.101839
 H 0.926 0.547 0.6725   0.091804
 H 0.5653 0.1974 0.0154   0.07739
 H 0.5708 0.1175 0.9292   0.131392
 H 0.8789 0.0111 0.0291   0.124316
 H 0.8621 0.0941 0.1131   0.074963
 H 0.6285 0.9928 0.8947   0.062323
 H 0.9249 0.0262 0.8696   0.059509
 H 0.6496 0.0098 0.7444   0.11474
 H 0.6323 0.923 0.6653   0.070804
 H 0.9631 0.8244 0.7408   0.079693
 H 0.9901 0.9091 0.8231   0.128407
 H 0.5524 0.8158 0.5374   0.520167
 H 0.5851 0.7831 0.6042   0.416654
 C 0.1854 0.9133 0.4616   -0.100895
 C 0.1053 0.9228 0.5212   -0.063467
 C 0.1251 0.9851 0.5594   0.02329
 C 0.2213 0.0369 0.5376   -0.095449
 C 0.3004 0.0268 0.4793   -0.094552
 C 0.2828 0.9655 0.4413   -0.053486
 C 0.9997 0.8687 0.548   0.632808
 C 0.1673 0.848 0.4192   0.640918
 C 0.1513 0.016 0.6951   0.017457
 C 0.2475 0.9614 0.7143   -0.089947
 C 0.3478 0.9729 0.7635   -0.089964
 C 0.3553 0.039 0.7948   -0.04939
 C 0.2607 0.0931 0.7786   -0.105697
 C 0.1568 0.0812 0.7282   -0.061528
 C 0.0513 0.138 0.706   0.63825
 C 0.2683 0.1624 0.8159   0.652985
 C 0.1297 0.6594 0.482   0.200638
 C 0.132 0.6114 0.5338   -0.180032
 C 0.2246 0.5539 0.5318   0.094259
 C 0.3136 0.5485 0.4749   -0.204857
 C 0.3035 0.5991 0.425   0.169014
 C 0.2271 0.4989 0.588   0.169675
 C 0.325 0.5238 0.6469   0.170837
 C 0.3176 0.4693 0.704   0.093923
 C 0.214 0.4718 0.7543   -0.201493
 C 0.2045 0.4194 0.802   0.170772
 C 0.3976 0.3619 0.7578   0.180609
 C 0.4145 0.4127 0.7078   -0.18385
 C 0.8146 0.4133 0.5384   -0.100895
 C 0.8947 0.4228 0.4788   -0.063467
 C 0.8749 0.4851 0.4406   0.023289
 C 0.7787 0.5369 0.4624   -0.095449
 C 0.6996 0.5268 0.5207   -0.094552
 C 0.7172 0.4655 0.5587   -0.053486
 C 0.000300000000003 0.3687 0.452   0.632808
 C 0.8327 0.348 0.5808   0.640918
 C 0.8487 0.516 0.3049   0.017457
 C 0.7525 0.4614 0.2857   -0.089947
 C 0.6522 0.4729 0.2365   -0.089964
 C 0.6447 0.539 0.2052   -0.04939
 C 0.7393 0.5931 0.2214   -0.105697
 C 0.8432 0.5812 0.2718   -0.061528
 C 0.9487 0.638 0.294   0.63825
 C 0.7317 0.6624 0.1841   0.652985
 C 0.8703 0.1594 0.518   0.200638
 C 0.868 0.1114 0.4662   -0.180032
 C 0.7754 0.0539 0.4682   0.094259
 C 0.6864 0.0485 0.5251   -0.204857
 C 0.6965 0.0991 0.575   0.169014
 C 0.7729 0.9989 0.412   0.169675
 C 0.675 0.0238 0.3531   0.170837
 C 0.6824 0.9693 0.296   0.093923
 C 0.786 0.9718 0.2457   -0.201493
 C 0.7955 0.9194 0.198   0.170772
 C 0.6024 0.8619 0.2422   0.180609
 C 0.5855 0.9127 0.2922   -0.18385
 C 0.3146 0.9133 0.9616   -0.100895
 C 0.3947 0.9228 0.0212   -0.063467
 C 0.3749 0.9851 0.0594   0.02329
 C 0.2787 0.0369 0.0376   -0.095449
 C 0.1996 0.0268 0.9793   -0.094552
 C 0.2172 0.9655 0.9413   -0.053487
 C 0.5003 0.8687 0.048   0.632808
 C 0.3327 0.848 0.9192   0.640918
 C 0.3487 0.016 0.1951   0.017457
 C 0.2525 0.9614 0.2143   -0.089947
 C 0.1522 0.9729 0.2635   -0.089965
 C 0.1447 0.039 0.2948   -0.04939
 C 0.2393 0.0931 0.2786   -0.105697
 C 0.3432 0.0812 0.2282   -0.061528
 C 0.4487 0.138 0.206   0.63825
 C 0.2317 0.1624 0.3159   0.652985
 C 0.3703 0.6594 0.982   0.200638
 C 0.368 0.6114 0.0338   -0.180032
 C 0.2754 0.5539 0.0318   0.09426
 C 0.1864 0.5485 0.9749   -0.204857
 C 0.1965 0.5991 0.925   0.169014
 C 0.2729 0.4989 0.088   0.169675
 C 0.175 0.5238 0.1469   0.170837
 C 0.1824 0.4693 0.204   0.093923
 C 0.286 0.4718 0.2543   -0.201493
 C 0.2955 0.4194 0.302   0.170771
 C 0.1024 0.3619 0.2578   0.180609
 C 0.0855 0.4127 0.2078   -0.18385
 C 0.6854 0.4133 0.0384   -0.100895
 C 0.6053 0.4228 0.9788   -0.063467
 C 0.6251 0.4851 0.9406   0.023289
 C 0.7213 0.5369 0.9624   -0.095449
 C 0.8004 0.5268 0.0207   -0.094552
 C 0.7828 0.4655 0.0587   -0.053486
 C 0.4997 0.3687 0.952   0.632808
 C 0.6673 0.348 0.0808   0.640918
 C 0.6513 0.516 0.8049   0.017457
 C 0.7475 0.4614 0.7857   -0.089947
 C 0.8478 0.4729 0.7365   -0.089965
 C 0.8553 0.539 0.7052   -0.04939
 C 0.7607 0.5931 0.7214   -0.105697
 C 0.6568 0.5812 0.7718   -0.061528
 C 0.5513 0.638 0.794   0.63825
 C 0.7683 0.6624 0.6841   0.652985
 C 0.6297 0.1594 0.018   0.200638
 C 0.632 0.1114 0.9662   -0.180032
 C 0.7246 0.0539 0.9682   0.094259
 C 0.8136 0.0485 0.0251   -0.204857
 C 0.8035 0.0991 0.075   0.169014
 C 0.7271 0.9989 0.912   0.169675
 C 0.825 0.0238 0.8531   0.170837
 C 0.8176 0.9693 0.796   0.093923
 C 0.714 0.9718 0.7457   -0.201493
 C 0.7045 0.9194 0.698   0.170771
 C 0.8976 0.8619 0.7422   0.180609
 C 0.9145 0.9127 0.7922   -0.18385
 S 0.01698 3.00000000024e-05 0.63252   -0.043474
 S 0.98302 0.50003 0.36748   -0.043474
 S 0.48302 3.00000000024e-05 0.13252   -0.043474
 S 0.51698 0.50003 0.86748   -0.043474
 N 0.2928 0.3634 0.8045   -0.375645
 N 0.2152 0.6547 0.4277   -0.404178
 N 0.7072 0.8634 0.1955   -0.375645
 N 0.7848 0.1547 0.5723   -0.404178
 N 0.2072 0.3634 0.3045   -0.375645
 N 0.2848 0.6547 0.9277   -0.404178
 N 0.7928 0.8634 0.6955   -0.375645
 N 0.7152 0.1547 0.0723   -0.404178
 O 0.0435 0.81599 0.58086   -0.56888
 O 0.8662 0.88015 0.53864   -0.595606
 O 0.0523 0.81372 0.42038   -0.554409
 O 0.2727 0.82994 0.38154   -0.61072
 O 0.0926 0.18569 0.66628   -0.568813
 O 0.9227 0.1326 0.72487   -0.589027
 O 0.1587 0.20051 0.8212   -0.594636
 O 0.3859 0.1806 0.8422   -0.578141
 O 0.2833 0.5907 0.6665   -0.567661
 O 0.2779 0.4334 0.56616   -0.580398
 O 0.0564 0.3146 0.9246   -0.84915
 O 0.9565 0.31599 0.41914   -0.56888
 O 0.1338 0.38015 0.46136   -0.595606
 O 0.9477 0.31372 0.57962   -0.55441
 O 0.7273 0.32994 0.61846   -0.61072
 O 0.9074 0.68569 0.33372   -0.568813
 O 0.0773 0.6326 0.27513   -0.589027
 O 0.8413 0.70051 0.1788   -0.594636
 O 0.6141 0.6806 0.1578   -0.578141
 O 0.7167 0.0907 0.3335   -0.567661
 O 0.7221 0.9334 0.43384   -0.580398
 O 0.9436 0.8146 0.0754   -0.84915
 O 0.4565 0.81599 0.08086   -0.56888
 O 0.6338 0.88015 0.03864   -0.595606
 O 0.4477 0.81372 0.92038   -0.554409
 O 0.2273 0.82994 0.88154   -0.61072
 O 0.4074 0.18569 0.16628   -0.568813
 O 0.5773 0.1326 0.22487   -0.589027
 O 0.3413 0.20051 0.3212   -0.594636
 O 0.1141 0.1806 0.3422   -0.578141
 O 0.2167 0.5907 0.1665   -0.567661
 O 0.2221 0.4334 0.06616   -0.580398
 O 0.4436 0.3146 0.4246   -0.84915
 O 0.5435 0.31599 0.91914   -0.56888
 O 0.3662 0.38015 0.96136   -0.595606
 O 0.5523 0.31372 0.07962   -0.55441
 O 0.7727 0.32994 0.11846   -0.61072
 O 0.5926 0.68569 0.83372   -0.568813
 O 0.4227 0.6326 0.77513   -0.589027
 O 0.6587 0.70051 0.6788   -0.594636
 O 0.8859 0.6806 0.6578   -0.578141
 O 0.7833 0.0907 0.8335   -0.567661
 O 0.7779 0.9334 0.93384   -0.580398
 O 0.5564 0.8146 0.5754   -0.84915
