{'_ref': 'TBD', '_srcid': 'CAKYAQ_clean', 'submitters': [{'name': 'Dalar Nazarian Jeff Camp and David Sholl', 'email': 'dalar@gatech.edu jcamp6@gatech.edu'}], '_method': 'VASP DFT with PBE;DDEC'}
data_CuH10C17NO4
_symmetry_space_group_name_H-M   'P 1'
_cell_length_a   15.37599992
_cell_length_b   19.84819964
_cell_length_c   19.84820000
_cell_angle_alpha   73.35829928
_cell_angle_beta   67.21089974
_cell_angle_gamma   67.21090025
_symmetry_Int_Tables_number   1
_chemical_formula_structural   CuH10C17NO4
_chemical_formula_sum   'Cu4 H40 C68 N4 O16'
_cell_volume   5081.90432311
_cell_formula_units_Z   4
loop_
 _symmetry_equiv_pos_site_id
 _symmetry_equiv_pos_as_xyz
  1  'x, y, z'
loop_
 _atom_site_label
 _atom_site_fract_x
 _atom_site_fract_y
 _atom_site_fract_z
 _atom_site_charge
 Cu 0.531 0.532 0.532   0.891631
 Cu 0.095 0.968 0.968   0.892252
 Cu 0.905 0.032 0.032   0.89225
 Cu 0.469 0.468 0.468   0.891629
 H 0.6664 0.4978 0.2448   0.106005
 H 0.7759 0.5289 0.1321   0.126677
 H 0.8652 0.6296 0.2294   0.126499
 H 0.7533 0.5996 0.3422   0.108789
 H 0.93 0.6229 0.9591   0.12266
 H 0.909 0.0022 0.2552   0.107698
 H 0.9369 0.9711 0.3679   0.124952
 H 0.2242 0.8704 0.2706   0.127215
 H 0.1951 0.9004 0.1578   0.107771
 H 0.012 0.8771 0.5409   0.121599
 H 0.091 0.7448 0.9978   0.107698
 H 0.0631 0.6321 0.0289   0.124952
 H 0.7758 0.7294 0.1296   0.127216
 H 0.8049 0.8422 0.0996   0.107771
 H 0.988 0.4591 0.1229   0.121599
 H 0.3336 0.7552 0.5022   0.106005
 H 0.2241 0.8679 0.4711   0.126677
 H 0.1348 0.7706 0.3704   0.1265
 H 0.2467 0.6578 0.4004   0.10879
 H 0.07 0.0409 0.3771   0.12266
 H 0.3336 0.5022 0.7552   0.106005
 H 0.2241 0.4711 0.8679   0.126678
 H 0.1348 0.3704 0.7706   0.126499
 H 0.2467 0.4004 0.6578   0.108789
 H 0.07 0.3771 0.0409   0.12266
 H 0.091 0.9978 0.7448   0.107698
 H 0.0631 0.0289 0.6321   0.124953
 H 0.7758 0.1296 0.7294   0.127215
 H 0.8049 0.0996 0.8422   0.107771
 H 0.988 0.1229 0.4591   0.121598
 H 0.909 0.2552 0.0022   0.107698
 H 0.9369 0.3679 0.9711   0.124953
 H 0.2242 0.2706 0.8704   0.127216
 H 0.1951 0.1578 0.9004   0.107771
 H 0.012 0.5409 0.8771   0.121598
 H 0.6664 0.2448 0.4978   0.106005
 H 0.7759 0.1321 0.5289   0.126678
 H 0.8652 0.2294 0.6296   0.1265
 H 0.7533 0.3422 0.5996   0.108789
 H 0.93 0.9591 0.6229   0.12266
 C 0.62491 0.52837 0.37737   0.691329
 C 0.69709 0.54625 0.30479   -0.170743
 C 0.70569 0.5249 0.24192   0.003978
 C 0.77193 0.54303 0.17431   -0.223376
 C 0.83211 0.58192 0.16954   0.185857
 C 0.82493 0.60322 0.23232   -0.213697
 C 0.75767 0.5853 0.3   -0.004116
 C 0.95822 0.57319 0.97597   -0.149795
 C 0.03065 0.97163 0.12263   0.685306
 C 0.04813 0.95375 0.19521   -0.168011
 C 0.97251 0.9751 0.25808   -0.001806
 C 0.98927 0.95697 0.32569   -0.217793
 C 0.08357 0.91808 0.33046   0.185045
 C 0.16047 0.89678 0.26768   -0.215898
 C 0.14297 0.9147 0.2   -0.00153
 C 0.00738 0.92681 0.52403   -0.148053
 C 0.96935 0.87737 0.02837   0.685306
 C 0.95187 0.80479 0.04625   -0.16801
 C 0.02749 0.74192 0.0249   -0.001806
 C 0.01073 0.67431 0.04303   -0.217793
 C 0.91643 0.66954 0.08192   0.185045
 C 0.83953 0.73232 0.10322   -0.215898
 C 0.85703 0.8 0.0853   -0.001529
 C 0.99262 0.47597 0.07319   -0.148053
 C 0.37509 0.62263 0.47163   0.691329
 C 0.30291 0.69521 0.45375   -0.170743
 C 0.29431 0.75808 0.4751   0.003978
 C 0.22807 0.82569 0.45697   -0.223376
 C 0.16789 0.83046 0.41808   0.185857
 C 0.17507 0.76768 0.39678   -0.213697
 C 0.24233 0.7 0.4147   -0.004116
 C 0.04178 0.02403 0.42681   -0.149795
 C 0.37509 0.47163 0.62263   0.691329
 C 0.30291 0.45375 0.69521   -0.170743
 C 0.29431 0.4751 0.75808   0.003979
 C 0.22807 0.45697 0.82569   -0.223376
 C 0.16789 0.41808 0.83046   0.185857
 C 0.17507 0.39678 0.76768   -0.213697
 C 0.24233 0.4147 0.7   -0.004116
 C 0.04178 0.42681 0.02403   -0.149771
 C 0.96935 0.02837 0.87737   0.685305
 C 0.95187 0.04625 0.80479   -0.168011
 C 0.02749 0.0249 0.74192   -0.001805
 C 0.01073 0.04303 0.67431   -0.217794
 C 0.91643 0.08192 0.66954   0.185045
 C 0.83953 0.10322 0.73232   -0.215898
 C 0.85703 0.0853 0.8   -0.00153
 C 0.99262 0.07319 0.47597   -0.148029
 C 0.03065 0.12263 0.97163   0.685305
 C 0.04813 0.19521 0.95375   -0.16801
 C 0.97251 0.25808 0.9751   -0.001805
 C 0.98927 0.32569 0.95697   -0.217794
 C 0.08357 0.33046 0.91808   0.185045
 C 0.16047 0.26768 0.89678   -0.215898
 C 0.14297 0.2 0.9147   -0.001529
 C 0.00738 0.52403 0.92681   -0.148029
 C 0.62491 0.37737 0.52837   0.691328
 C 0.69709 0.30479 0.54625   -0.170743
 C 0.70569 0.24192 0.5249   0.003979
 C 0.77193 0.17431 0.54303   -0.223376
 C 0.83211 0.16954 0.58192   0.185857
 C 0.82493 0.23232 0.60322   -0.213697
 C 0.75767 0.3 0.5853   -0.004116
 C 0.95822 0.97597 0.57319   -0.149771
 C 0.94996 0.55004 0.05004   0.133096
 C 0.05004 0.94996 0.44996   0.133096
 C 0.05004 0.44996 0.94996   0.133089
 C 0.94996 0.05004 0.55004   0.133089
 N 0.89918 0.60082 0.10082   -0.129604
 N 0.10082 0.89918 0.39918   -0.129604
 N 0.10082 0.39918 0.89918   -0.129603
 N 0.89918 0.10082 0.60082   -0.129603
 O 0.62211 0.54892 0.4323   -0.579269
 O 0.57052 0.49419 0.37817   -0.57887
 O 0.10333 0.95108 0.0677   -0.576226
 O 0.94288 0.00581 0.12183   -0.577652
 O 0.89667 0.9323 0.04892   -0.576226
 O 0.05712 0.87817 0.99419   -0.577653
 O 0.37789 0.5677 0.45108   -0.579269
 O 0.42948 0.62183 0.50581   -0.57887
 O 0.37789 0.45108 0.5677   -0.579269
 O 0.42948 0.50581 0.62183   -0.578871
 O 0.89667 0.04892 0.9323   -0.576226
 O 0.05712 0.99419 0.87817   -0.577652
 O 0.10333 0.0677 0.95108   -0.576226
 O 0.94288 0.12183 0.00581   -0.577653
 O 0.62211 0.4323 0.54892   -0.579269
 O 0.57052 0.37817 0.49419   -0.57887
