{'_ref': 'TBD', '_srcid': 'CAKYAQ_clean', 'submitters': [{'name': 'Dalar Nazarian Jeff Camp and David Sholl', 'email': 'dalar@gatech.edu jcamp6@gatech.edu'}], '_method': 'VASP DFT with PBE;DDEC'}
data_ZnH3C5BrN4
_symmetry_space_group_name_H-M   'P 1'
_cell_length_a   10.20900000
_cell_length_b   13.63599996
_cell_length_c   14.12400000
_cell_angle_alpha   91.56800170
_cell_angle_beta   90.00000000
_cell_angle_gamma   90.00000000
_symmetry_Int_Tables_number   1
_chemical_formula_structural   ZnH3C5BrN4
_chemical_formula_sum   'Zn8 H24 C40 Br8 N32'
_cell_volume   1965.46472265
_cell_formula_units_Z   8
loop_
 _symmetry_equiv_pos_site_id
 _symmetry_equiv_pos_as_xyz
  1  'x, y, z'
loop_
 _atom_site_label
 _atom_site_fract_x
 _atom_site_fract_y
 _atom_site_fract_z
 _atom_site_charge
 Zn 0.91487 0.33746 0.32673   0.726667
 Zn 0.49603 0.30791 0.65462   0.721862
 Zn 0.41487 0.16254 0.17327   0.726667
 Zn 0.99603 0.19209 0.84538   0.721862
 Zn 0.08513 0.66254 0.67327   0.726667
 Zn 0.50397 0.69209 0.34538   0.721862
 Zn 0.58513 0.83746 0.82673   0.726667
 Zn 0.00397 0.80791 0.15462   0.721862
 H 0.0889 0.2632 0.4764   0.057857
 H 0.7044 0.2472 0.811   0.048279
 H 0.7066 0.3149 0.4782   0.077002
 H 0.3223 0.5308 0.2911   0.052646
 H 0.7085 0.1887 0.2372   0.04989
 H 0.7018 0.5259 0.3503   0.088581
 H 0.5889 0.2368 0.0236   0.057857
 H 0.2044 0.2528 0.689   0.048279
 H 0.2066 0.1851 0.0218   0.077002
 H 0.8223 0.9692 0.2089   0.052646
 H 0.2085 0.3113 0.2628   0.04989
 H 0.2018 0.9741 0.1497   0.088581
 H 0.9111 0.7368 0.5236   0.057857
 H 0.2956 0.7528 0.189   0.048279
 H 0.2934 0.6851 0.5218   0.077002
 H 0.6777 0.4692 0.7089   0.052646
 H 0.2915 0.8113 0.7628   0.04989
 H 0.2982 0.4741 0.6497   0.088581
 H 0.4111 0.7632 0.9764   0.057857
 H 0.7956 0.7472 0.311   0.048279
 H 0.7934 0.8149 0.9782   0.077002
 H 0.1777 0.0308 0.7911   0.052646
 H 0.7915 0.6887 0.7372   0.04989
 H 0.7982 0.0259 0.8503   0.088581
 C 0.0095 0.2661 0.5114   0.346453
 C 0.9012 0.2501 0.6476   0.399831
 C 0.748 0.2521 0.7519   0.355662
 C 0.7822 0.2753 0.6043   0.032393
 C 0.7846 0.2971 0.5102   0.153085
 C 0.4018 0.4946 0.2909   0.344969
 C 0.5111 0.3554 0.2625   0.389971
 C 0.6644 0.2488 0.2504   0.360144
 C 0.6291 0.3982 0.2945   0.029015
 C 0.6253 0.4942 0.3264   0.147895
 C 0.5095 0.2339 0.9886   0.346453
 C 0.4012 0.2499 0.8524   0.399831
 C 0.248 0.2479 0.7481   0.355662
 C 0.2822 0.2247 0.8957   0.032393
 C 0.2846 0.2029 0.9898   0.153085
 C 0.9018 0.0054 0.2091   0.344969
 C 0.0111 0.1446 0.2375   0.389971
 C 0.1644 0.2512 0.2496   0.360144
 C 0.1291 0.1018 0.2055   0.029015
 C 0.1253 0.0058 0.1736   0.147895
 C 0.9905 0.7339 0.4886   0.346452
 C 0.0988 0.7499 0.3524   0.39983
 C 0.252 0.7479 0.2481   0.355662
 C 0.2178 0.7247 0.3957   0.032393
 C 0.2154 0.7029 0.4898   0.153085
 C 0.5982 0.5054 0.7091   0.34497
 C 0.4889 0.6446 0.7375   0.389971
 C 0.3356 0.7512 0.7496   0.360144
 C 0.3709 0.6018 0.7055   0.029014
 C 0.3747 0.5058 0.6736   0.147895
 C 0.4905 0.7661 0.0114   0.346452
 C 0.5988 0.7501 0.1476   0.39983
 C 0.752 0.7521 0.2519   0.355662
 C 0.7178 0.7753 0.1043   0.032393
 C 0.7154 0.7971 0.0102   0.153085
 C 0.0982 0.9946 0.7909   0.344969
 C 0.9889 0.8554 0.7625   0.389971
 C 0.8356 0.7488 0.7504   0.360144
 C 0.8709 0.8982 0.7945   0.029014
 C 0.8747 0.9942 0.8264   0.147895
 Br 0.007 0.49529 0.32341   -0.52211
 Br 0.40893 0.27136 0.5041   -0.512592
 Br 0.507 0.00471 0.17659   -0.52211
 Br 0.90893 0.22864 0.9959   -0.512592
 Br 0.993 0.50471 0.67659   -0.52211
 Br 0.59107 0.72864 0.4959   -0.512593
 Br 0.493 0.99529 0.82341   -0.52211
 Br 0.09107 0.77136 0.0041   -0.512593
 N 0.8997 0.2928 0.464   -0.385539
 N 0.0155 0.2436 0.6025   -0.419114
 N 0.879 0.2361 0.7421   -0.469566
 N 0.6851 0.2751 0.6728   -0.398388
 N 0.5106 0.5421 0.3229   -0.391381
 N 0.3963 0.402 0.2592   -0.415205
 N 0.5349 0.2603 0.2343   -0.467056
 N 0.7265 0.3281 0.2865   -0.40125
 N 0.3997 0.2072 0.036   -0.385539
 N 0.5155 0.2564 0.8975   -0.419114
 N 0.379 0.2639 0.7579   -0.469566
 N 0.1851 0.2249 0.8272   -0.398388
 N 0.0106 0.9579 0.1771   -0.391381
 N 0.8963 0.098 0.2408   -0.415205
 N 0.0349 0.2397 0.2657   -0.467056
 N 0.2265 0.1719 0.2135   -0.40125
 N 0.1003 0.7072 0.536   -0.385539
 N 0.9845 0.7564 0.3975   -0.419114
 N 0.121 0.7639 0.2579   -0.469566
 N 0.3149 0.7249 0.3272   -0.398388
 N 0.4894 0.4579 0.6771   -0.391381
 N 0.6037 0.598 0.7408   -0.415205
 N 0.4651 0.7397 0.7657   -0.467056
 N 0.2735 0.6719 0.7135   -0.40125
 N 0.6003 0.7928 0.964   -0.385539
 N 0.4845 0.7436 0.1025   -0.419114
 N 0.621 0.7361 0.2421   -0.469566
 N 0.8149 0.7751 0.1728   -0.398388
 N 0.9894 0.0421 0.8229   -0.391381
 N 0.1037 0.902 0.7592   -0.415205
 N 0.9651 0.7603 0.7343   -0.467056
 N 0.7735 0.8281 0.7865   -0.40125
