{'_ref': 'TBD', '_srcid': 'CAKYAQ_clean', 'submitters': [{'name': 'Dalar Nazarian Jeff Camp and David Sholl', 'email': 'dalar@gatech.edu jcamp6@gatech.edu'}], '_method': 'VASP DFT with PBE;DDEC'}
data_GdH11C27N7O19
_symmetry_space_group_name_H-M   'P 1'
_cell_length_a   14.39200048
_cell_length_b   16.66899966
_cell_length_c   19.63700000
_cell_angle_alpha   105.47100093
_cell_angle_beta   96.28600072
_cell_angle_gamma   95.09999822
_symmetry_Int_Tables_number   1
_chemical_formula_structural   GdH11C27N7O19
_chemical_formula_sum   'Gd4 H44 C108 N28 O76'
_cell_volume   4478.50035829
_cell_formula_units_Z   4
loop_
 _symmetry_equiv_pos_site_id
 _symmetry_equiv_pos_as_xyz
  1  'x, y, z'
loop_
 _atom_site_label
 _atom_site_fract_x
 _atom_site_fract_y
 _atom_site_fract_z
 _atom_site_charge
 Gd 0.87328 0.95328 0.94255   2.118812
 Gd 0.3617 0.45887 0.4904   2.146802
 Gd 0.12672 0.04672 0.05745   2.118812
 Gd 0.6383 0.54113 0.5096   2.146802
 H 0.9243 0.1308 0.8155   0.119372
 H 0.1565 0.2458 0.9493   0.112755
 H 0.2452 0.2446 0.5972   0.133332
 H 0.148 0.4636 0.6748   0.119451
 H 0.7864 0.1028 0.0739   0.127692
 H 0.9256 0.0822 0.2562   0.13404
 H 0.6507 0.3916 0.3716   0.112066
 H 0.454 0.1969 0.3381   0.133765
 H 0.7052 0.4294 0.6787   0.111573
 H 0.4333 0.3526 0.6791   0.113609
 H 0.7015 0.0364 0.7546   0.12741
 H 0.6937 0.195 0.9457   0.127525
 H 0.718 0.8396 0.7971   0.072466
 H 0.6605 0.7123 0.7194   0.122823
 H 0.7082 0.5923 0.7424   0.09732
 H 0.8799 0.742 0.9116   0.065738
 H 0.8963 0.5952 0.8803   0.049474
 H 0.3719 0.6694 0.4761   0.069959
 H 0.2851 0.7743 0.4613   0.138504
 H 0.125 0.7568 0.4621   0.093112
 H 0.1489 0.535 0.5013   0.061722
 H 0.9884 0.6977 0.4901   0.00827
 H 0.0757 0.8692 0.1845   0.119372
 H 0.8435 0.7542 0.0507   0.112754
 H 0.7548 0.7554 0.4028   0.133332
 H 0.852 0.5364 0.3252   0.119451
 H 0.2136 0.8972 0.9261   0.127692
 H 0.0744 0.9178 0.7438   0.13404
 H 0.3493 0.6084 0.6284   0.112066
 H 0.546 0.8031 0.6619   0.133764
 H 0.2948 0.5706 0.3213   0.111573
 H 0.5667 0.6474 0.3209   0.113609
 H 0.2985 0.9636 0.2454   0.12741
 H 0.3063 0.805 0.0543   0.127526
 H 0.282 0.1604 0.2029   0.072465
 H 0.3395 0.2877 0.2806   0.122823
 H 0.2918 0.4077 0.2576   0.09732
 H 0.1201 0.258 0.0884   0.065738
 H 0.1037 0.4048 0.1197   0.049474
 H 0.6281 0.3306 0.5239   0.069959
 H 0.7149 0.2257 0.5387   0.138504
 H 0.875 0.2432 0.5379   0.093112
 H 0.8511 0.465 0.4987   0.061722
 H 0.0116 0.3023 0.5099   0.00827
 C 0.012 0.13 0.94   0.757479
 C 0.037 0.18 0.89   -0.145376
 C 0.98 0.167 0.826   0.014693
 C 0.006 0.208 0.777   -0.040863
 C 0.09 0.262 0.789   0.053271
 C 0.145 0.273 0.855   -0.011076
 C 0.119 0.235 0.905   0.000654
 C 0.126 0.297 0.732   0.042843
 C 0.175 0.248 0.681   -0.012758
 C 0.213 0.279 0.63   -0.015221
 C 0.204 0.359 0.628   -0.097559
 C 0.155 0.409 0.677   -0.005983
 C 0.117 0.378 0.728   -0.034276
 C 0.249 0.393 0.574   0.657635
 C 0.955 0.072 0.123   0.729215
 C 0.869 0.091 0.159   -0.114775
 C 0.791 0.109 0.123   -0.011456
 C 0.717 0.138 0.162   0.002798
 C 0.719 0.149 0.231   0.01913
 C 0.798 0.12 0.266   -0.038179
 C 0.873 0.096 0.232   -0.011427
 C 0.655 0.199 0.276   0.031063
 C 0.681 0.281 0.307   -0.029726
 C 0.629 0.335 0.352   -0.015668
 C 0.545 0.3 0.364   -0.108684
 C 0.513 0.219 0.332   -0.017037
 C 0.568 0.169 0.289   -0.035315
 C 0.487 0.354 0.413   0.730021
 C 0.537 0.452 0.622   0.768044
 C 0.564 0.401 0.672   -0.150862
 C 0.659 0.397 0.693   -0.009495
 C 0.684 0.345 0.734   -0.001983
 C 0.618 0.292 0.754   0.052305
 C 0.525 0.299 0.732   -0.077549
 C 0.497 0.351 0.692   0.019786
 C 0.646 0.227 0.79   0.031361
 C 0.664 0.148 0.751   -0.041819
 C 0.692 0.089 0.783   -0.002899
 C 0.705 0.105 0.855   -0.090718
 C 0.686 0.183 0.896   0.000571
 C 0.658 0.24 0.863   -0.02407
 C 0.745 0.044 0.89   0.669893
 C 0.74 0.792 0.806   0.26486
 C 0.704 0.716 0.759   -0.185173
 C 0.733 0.645 0.771   0.075719
 C 0.801 0.656 0.829   -0.202799
 C 0.834 0.736 0.873   0.250879
 C 0.845 0.585 0.845   0.400749
 C 0.307 0.662 0.477   0.180809
 C 0.256 0.726 0.469   -0.151462
 C 0.162 0.716 0.471   0.03964
 C 0.123 0.649 0.485   -0.219061
 C 0.179 0.583 0.493   0.259394
 C 0.02 0.652 0.491   0.500834
 C 0.988 0.87 0.06   0.757479
 C 0.963 0.82 0.11   -0.145377
 C 0.02 0.833 0.174   0.014693
 C 0.994 0.792 0.223   -0.040863
 C 0.91 0.738 0.211   0.053271
 C 0.855 0.727 0.145   -0.011076
 C 0.881 0.765 0.095   0.000654
 C 0.874 0.703 0.268   0.042843
 C 0.825 0.752 0.319   -0.012758
 C 0.787 0.721 0.37   -0.015221
 C 0.796 0.641 0.372   -0.097559
 C 0.845 0.591 0.323   -0.005983
 C 0.883 0.622 0.272   -0.034276
 C 0.751 0.607 0.426   0.657635
 C 0.045 0.928 0.877   0.729215
 C 0.131 0.909 0.841   -0.114775
 C 0.209 0.891 0.877   -0.011456
 C 0.283 0.862 0.838   0.002798
 C 0.281 0.851 0.769   0.01913
 C 0.202 0.88 0.734   -0.038179
 C 0.127 0.904 0.768   -0.011427
 C 0.345 0.801 0.724   0.031063
 C 0.319 0.719 0.693   -0.029726
 C 0.371 0.665 0.648   -0.015667
 C 0.455 0.7 0.636   -0.108684
 C 0.487 0.781 0.668   -0.017036
 C 0.432 0.831 0.711   -0.035316
 C 0.513 0.646 0.587   0.730021
 C 0.463 0.548 0.378   0.768044
 C 0.436 0.599 0.328   -0.150862
 C 0.341 0.603 0.307   -0.009495
 C 0.316 0.655 0.266   -0.001983
 C 0.382 0.708 0.246   0.052305
 C 0.475 0.701 0.268   -0.077549
 C 0.503 0.649 0.308   0.019786
 C 0.354 0.773 0.21   0.031361
 C 0.336 0.852 0.249   -0.041819
 C 0.308 0.911 0.217   -0.002899
 C 0.295 0.895 0.145   -0.090718
 C 0.314 0.817 0.104   0.000571
 C 0.342 0.76 0.137   -0.02407
 C 0.255 0.956 0.11   0.669893
 C 0.26 0.208 0.194   0.26486
 C 0.296 0.284 0.241   -0.185174
 C 0.267 0.355 0.229   0.075719
 C 0.199 0.344 0.171   -0.202799
 C 0.166 0.264 0.127   0.250879
 C 0.155 0.415 0.155   0.400749
 C 0.693 0.338 0.523   0.180809
 C 0.744 0.274 0.531   -0.151462
 C 0.838 0.284 0.529   0.03964
 C 0.877 0.351 0.515   -0.219061
 C 0.821 0.417 0.507   0.259394
 C 0.98 0.348 0.509   0.500834
 N 0.943 0.19 0.709   0.607553
 N 0.232 0.331 0.875   0.610342
 N 0.187 0.161 0.679   0.597803
 N 0.064 0.432 0.776   0.631775
 N 0.638 0.159 0.121   0.604094
 N 0.806 0.128 0.343   0.618263
 N 0.774 0.323 0.298   0.616762
 N 0.533 0.079 0.257   0.686383
 N 0.785 0.339 0.75   0.594775
 N 0.448 0.249 0.753   0.689074
 N 0.652 0.123 0.671   0.605515
 N 0.636 0.321 0.911   0.609616
 N 0.803 0.803 0.863   -0.533163
 N 0.27 0.587 0.488   -0.545874
 N 0.057 0.81 0.291   0.607553
 N 0.768 0.669 0.125   0.610342
 N 0.813 0.839 0.321   0.597803
 N 0.936 0.568 0.224   0.631775
 N 0.362 0.841 0.879   0.604094
 N 0.194 0.872 0.657   0.618263
 N 0.226 0.677 0.702   0.616762
 N 0.467 0.921 0.743   0.686383
 N 0.215 0.661 0.25   0.594775
 N 0.552 0.751 0.247   0.689074
 N 0.348 0.877 0.329   0.605515
 N 0.364 0.679 0.089   0.609616
 N 0.197 0.197 0.137   -0.533163
 N 0.73 0.413 0.512   -0.545874
 O 0.939 0.078 0.9196   -0.662919
 O 0.068 0.141 0.9974   -0.736987
 O 0.282 0.342 0.525   -0.658029
 O 0.257 0.47 0.5794   -0.670502
 O 0.863 0.16 0.707   -0.345988
 O 0.975 0.2 0.656   -0.355649
 O 0.296 0.316 0.914   -0.360816
 O 0.241 0.393 0.854   -0.345636
 O 0.191 0.139 0.734   -0.366658
 O 0.19 0.113 0.621   -0.337388
 O 0.031 0.409 0.823   -0.361982
 O 0.057 0.5 0.77   -0.349942
 O 0.942 0.04 0.055   -0.834404
 O 0.034 0.091 0.158   -0.588256
 O 0.528 0.419 0.4594   -0.814472
 O 0.401 0.332 0.4101   -0.626424
 O 0.657 0.194 0.075   -0.336494
 O 0.56 0.146 0.135   -0.352337
 O 0.883 0.143 0.377   -0.354276
 O 0.735 0.118 0.369   -0.354715
 O 0.794 0.306 0.236   -0.394716
 O 0.825 0.361 0.346   -0.278146
 O 0.577 0.029 0.236   -0.33154
 O 0.452 0.061 0.248   -0.393041
 O 0.602 0.497 0.6101   -0.714116
 O 0.451 0.44 0.594   -0.695723
 O 0.759 0.062 0.9562   -0.656409
 O 0.767 0.977 0.8502   -0.66825
 O 0.837 0.354 0.708   -0.358146
 O 0.812 0.32 0.804   -0.333867
 O 0.461 0.204 0.783   -0.310143
 O 0.373 0.273 0.753   -0.432433
 O 0.649 0.176 0.64   -0.357656
 O 0.655 0.049 0.641   -0.351509
 O 0.636 0.382 0.89   -0.345206
 O 0.62 0.321 0.97   -0.341385
 O 0.815 0.512 0.811   -0.407442
 O 0.99 0.597 0.498   -0.377287
 O 0.061 0.922 0.0804   -0.662919
 O 0.932 0.859 0.0026   -0.736987
 O 0.718 0.658 0.475   -0.658029
 O 0.743 0.53 0.4206   -0.670502
 O 0.137 0.84 0.293   -0.345988
 O 0.025 0.8 0.344   -0.355649
 O 0.704 0.684 0.086   -0.360816
 O 0.759 0.607 0.146   -0.345637
 O 0.809 0.861 0.266   -0.366658
 O 0.81 0.887 0.379   -0.337389
 O 0.969 0.591 0.177   -0.361982
 O 0.943 0.5 0.23   -0.349941
 O 0.058 0.96 0.945   -0.834404
 O 0.966 0.909 0.842   -0.588256
 O 0.472 0.581 0.5406   -0.814472
 O 0.599 0.668 0.5899   -0.626424
 O 0.343 0.806 0.925   -0.336494
 O 0.44 0.854 0.865   -0.352337
 O 0.117 0.857 0.623   -0.354277
 O 0.265 0.882 0.631   -0.354715
 O 0.206 0.694 0.764   -0.394715
 O 0.175 0.639 0.654   -0.278145
 O 0.423 0.971 0.764   -0.331538
 O 0.548 0.939 0.752   -0.393041
 O 0.398 0.503 0.3899   -0.714116
 O 0.549 0.56 0.406   -0.695723
 O 0.241 0.938 0.0438   -0.656409
 O 0.233 0.023 0.1498   -0.66825
 O 0.163 0.646 0.292   -0.358146
 O 0.188 0.68 0.196   -0.333867
 O 0.539 0.796 0.217   -0.310142
 O 0.627 0.727 0.247   -0.432433
 O 0.351 0.824 0.36   -0.357656
 O 0.345 0.951 0.359   -0.351509
 O 0.364 0.618 0.11   -0.345207
 O 0.38 0.679 0.03   -0.341385
 O 0.185 0.488 0.189   -0.407442
 O 0.01 0.403 0.502   -0.377286
