{'_ref': 'TBD', '_srcid': 'CAKYAQ_clean', 'submitters': [{'name': 'Dalar Nazarian Jeff Camp and David Sholl', 'email': 'dalar@gatech.edu jcamp6@gatech.edu'}], '_method': 'VASP DFT with PBE;DDEC'}
data_GdH11C27N7O19
_symmetry_space_group_name_H-M   'P 1'
_cell_length_a   14.63599979
_cell_length_b   19.26619967
_cell_length_c   19.26620000
_cell_angle_alpha   101.24100038
_cell_angle_beta   92.69999999
_cell_angle_gamma   92.69999901
_symmetry_Int_Tables_number   1
_chemical_formula_structural   GdH11C27N7O19
_chemical_formula_sum   'Gd4 H44 C108 N28 O76'
_cell_volume   5313.75651491
_cell_formula_units_Z   4
loop_
 _symmetry_equiv_pos_site_id
 _symmetry_equiv_pos_as_xyz
  1  'x, y, z'
loop_
 _atom_site_label
 _atom_site_fract_x
 _atom_site_fract_y
 _atom_site_fract_z
 _atom_site_charge
 Gd 0.36875 0.45527 0.98247   2.148369
 Gd 0.13125 0.01753 0.54473   2.148368
 Gd 0.63125 0.54473 0.01753   2.148369
 Gd 0.86875 0.98247 0.45527   2.148368
 H 0.4474 0.3093 0.1321   0.114174
 H 0.6965 0.4066 0.1654   0.111914
 H 0.758 0.0583 0.2379   0.135859
 H 0.6727 0.1741 0.4179   0.127472
 H 0.6857 0.4305 0.8597   0.1263
 H 0.5161 0.258 0.8416   0.135333
 H 0.1433 0.4894 0.996   0.063478
 H 0.0276 0.5602 0.9854   0.128099
 H 0.2156 0.7163 0.9777   0.143971
 H 0.3264 0.6387 0.9881   0.061556
 H 0.0502 0.7441 0.9769   0.04347
 H 0.0526 0.8679 0.6907   0.114174
 H 0.8035 0.8346 0.5934   0.111914
 H 0.742 0.7621 0.9417   0.135859
 H 0.8273 0.5821 0.8259   0.127472
 H 0.8143 0.1403 0.5695   0.1263
 H 0.9839 0.1584 0.742   0.135333
 H 0.3567 0.004 0.5106   0.063477
 H 0.4724 0.0146 0.4398   0.128099
 H 0.2844 0.0223 0.2837   0.143971
 H 0.1736 0.0119 0.3613   0.061556
 H 0.4498 0.0231 0.2559   0.043471
 H 0.5526 0.6907 0.8679   0.114173
 H 0.3035 0.5934 0.8346   0.111914
 H 0.242 0.9417 0.7621   0.135859
 H 0.3273 0.8259 0.5821   0.127472
 H 0.3143 0.5695 0.1403   0.1263
 H 0.4839 0.742 0.1584   0.135333
 H 0.8567 0.5106 0.004   0.063478
 H 0.9724 0.4398 0.0146   0.128099
 H 0.7844 0.2837 0.0223   0.143971
 H 0.6736 0.3613 0.0119   0.061556
 H 0.9498 0.2559 0.0231   0.043471
 H 0.9474 0.1321 0.3093   0.114173
 H 0.1965 0.1654 0.4066   0.111914
 H 0.258 0.2379 0.0583   0.13586
 H 0.1727 0.4179 0.1741   0.127472
 H 0.1857 0.8597 0.4305   0.1263
 H 0.0161 0.8416 0.258   0.135333
 H 0.6433 0.996 0.4894   0.063477
 H 0.5276 0.9854 0.5602   0.128099
 H 0.7156 0.9777 0.7163   0.143971
 H 0.8264 0.9881 0.6387   0.061556
 H 0.5502 0.9769 0.7441   0.043471
 C 0.539 0.4215 0.0999   0.782046
 C 0.5671 0.3682 0.1418   -0.148109
 C 0.5077 0.3125 0.1505   0.02038
 C 0.5391 0.2609 0.1873   -0.053184
 C 0.6266 0.263 0.2168   0.065994
 C 0.6845 0.318 0.2056   -0.026929
 C 0.6553 0.3699 0.1701   0.001734
 C 0.6582 0.2063 0.2561   0.033836
 C 0.6998 0.1484 0.2254   -0.027116
 C 0.7318 0.0986 0.2618   -0.009882
 C 0.7244 0.1094 0.335   -0.080294
 C 0.6807 0.1673 0.3695   -0.00904
 C 0.6494 0.2143 0.3305   -0.020305
 C 0.7663 0.0594 0.3774   0.660441
 C 0.5237 0.3914 0.9052   0.756137
 C 0.5919 0.3506 0.8582   -0.116067
 C 0.6716 0.3824 0.8428   -0.001652
 C 0.7316 0.3403 0.8005   -0.033554
 C 0.7164 0.27 0.775   0.040284
 C 0.6347 0.2387 0.7911   -0.04739
 C 0.5713 0.2791 0.8321   -0.013242
 C 0.1583 0.5358 0.9918   0.203168
 C 0.0881 0.5776 0.9858   -0.139315
 C 0.109 0.6477 0.9803   0.019421
 C 0.1991 0.67 0.9812   -0.155704
 C 0.2654 0.6225 0.9873   0.218071
 C 0.0344 0.6972 0.9788   0.379901
 C 0.961 0.9001 0.5785   0.782046
 C 0.9329 0.8582 0.6318   -0.148109
 C 0.9923 0.8495 0.6875   0.02038
 C 0.9609 0.8127 0.7391   -0.053184
 C 0.8734 0.7832 0.737   0.065994
 C 0.8155 0.7944 0.682   -0.026929
 C 0.8447 0.8299 0.6301   0.001734
 C 0.8418 0.7439 0.7937   0.033836
 C 0.8002 0.7746 0.8516   -0.027116
 C 0.7682 0.7382 0.9014   -0.009882
 C 0.7756 0.665 0.8906   -0.080294
 C 0.8193 0.6305 0.8327   -0.00904
 C 0.8506 0.6695 0.7857   -0.020305
 C 0.7337 0.6226 0.9406   0.660441
 C 0.9763 0.0948 0.6086   0.756137
 C 0.9081 0.1418 0.6494   -0.116067
 C 0.8284 0.1572 0.6176   -0.001652
 C 0.7684 0.1995 0.6597   -0.033554
 C 0.7836 0.225 0.73   0.040284
 C 0.8653 0.2089 0.7613   -0.047391
 C 0.9287 0.1679 0.7209   -0.013242
 C 0.3417 0.0082 0.4642   0.203168
 C 0.4119 0.0142 0.4224   -0.139314
 C 0.391 0.0197 0.3523   0.019421
 C 0.3009 0.0188 0.33   -0.155704
 C 0.2346 0.0127 0.3775   0.218071
 C 0.4656 0.0212 0.3028   0.379901
 C 0.461 0.5785 0.9001   0.782046
 C 0.4329 0.6318 0.8582   -0.148108
 C 0.4923 0.6875 0.8495   0.02038
 C 0.4609 0.7391 0.8127   -0.053184
 C 0.3734 0.737 0.7832   0.065994
 C 0.3155 0.682 0.7944   -0.026929
 C 0.3447 0.6301 0.8299   0.001734
 C 0.3418 0.7937 0.7439   0.033836
 C 0.3002 0.8516 0.7746   -0.027116
 C 0.2682 0.9014 0.7382   -0.009882
 C 0.2756 0.8906 0.665   -0.080294
 C 0.3193 0.8327 0.6305   -0.00904
 C 0.3506 0.7857 0.6695   -0.020305
 C 0.2337 0.9406 0.6226   0.660441
 C 0.4763 0.6086 0.0948   0.756137
 C 0.4081 0.6494 0.1418   -0.116067
 C 0.3284 0.6176 0.1572   -0.001652
 C 0.2684 0.6597 0.1995   -0.033554
 C 0.2836 0.73 0.225   0.040284
 C 0.3653 0.7613 0.2089   -0.04739
 C 0.4287 0.7209 0.1679   -0.013242
 C 0.8417 0.4642 0.0082   0.203168
 C 0.9119 0.4224 0.0142   -0.139315
 C 0.891 0.3523 0.0197   0.019421
 C 0.8009 0.33 0.0188   -0.155704
 C 0.7346 0.3775 0.0127   0.218071
 C 0.9656 0.3028 0.0212   0.379901
 C 0.039 0.0999 0.4215   0.782046
 C 0.0671 0.1418 0.3682   -0.148109
 C 0.0077 0.1505 0.3125   0.02038
 C 0.0391 0.1873 0.2609   -0.053184
 C 0.1266 0.2168 0.263   0.065994
 C 0.1845 0.2056 0.318   -0.026929
 C 0.1553 0.1701 0.3699   0.001734
 C 0.1582 0.2561 0.2063   0.033836
 C 0.1998 0.2254 0.1484   -0.027116
 C 0.2318 0.2618 0.0986   -0.009882
 C 0.2244 0.335 0.1094   -0.080294
 C 0.1807 0.3695 0.1673   -0.00904
 C 0.1494 0.3305 0.2143   -0.020305
 C 0.2663 0.3774 0.0594   0.660441
 C 0.0237 0.9052 0.3914   0.756136
 C 0.0919 0.8582 0.3506   -0.116067
 C 0.1716 0.8428 0.3824   -0.001652
 C 0.2316 0.8005 0.3403   -0.033555
 C 0.2164 0.775 0.27   0.040284
 C 0.1347 0.7911 0.2387   -0.047391
 C 0.0713 0.8321 0.2791   -0.013242
 C 0.6583 0.9918 0.5358   0.203168
 C 0.5881 0.9858 0.5776   -0.139315
 C 0.609 0.9803 0.6477   0.019421
 C 0.6991 0.9812 0.67   -0.155704
 C 0.7654 0.9873 0.6225   0.218071
 C 0.5344 0.9788 0.6972   0.379901
 N 0.4684 0.2048 0.1948   0.60876
 N 0.7822 0.3243 0.2299   0.597008
 N 0.7144 0.1328 0.1478   0.582506
 N 0.6003 0.2728 0.3684   0.59558
 N 0.8157 0.3797 0.7841   0.609968
 N 0.6119 0.1631 0.7723   0.64417
 N 0.2484 0.555 0.9922   -0.515738
 N 0.0316 0.8052 0.7952   0.60876
 N 0.7178 0.7701 0.6757   0.597008
 N 0.7856 0.8522 0.8672   0.582506
 N 0.8997 0.6316 0.7272   0.59558
 N 0.6843 0.2159 0.6203   0.609968
 N 0.8881 0.2277 0.8369   0.64417
 N 0.2516 0.0078 0.445   -0.515738
 N 0.5316 0.7952 0.8052   0.60876
 N 0.2178 0.6757 0.7701   0.597008
 N 0.2856 0.8672 0.8522   0.582506
 N 0.3997 0.7272 0.6316   0.59558
 N 0.1843 0.6203 0.2159   0.609968
 N 0.3881 0.8369 0.2277   0.64417
 N 0.7516 0.445 0.0078   -0.515738
 N 0.9684 0.1948 0.2048   0.60876
 N 0.2822 0.2299 0.3243   0.597008
 N 0.2144 0.1478 0.1328   0.582506
 N 0.1003 0.3684 0.2728   0.59558
 N 0.3157 0.7841 0.3797   0.609968
 N 0.1119 0.7723 0.1631   0.64417
 N 0.7484 0.9922 0.555   -0.515738
 O 0.4619 0.4093 0.0679   -0.688252
 O 0.5948 0.4718 0.0992   -0.729366
 O 0.7676 0.075 0.4438   -0.671715
 O 0.7957 0.0036 0.3444   -0.645761
 O 0.4063 0.1906 0.1496   -0.357426
 O 0.477 0.1773 0.2453   -0.340408
 O 0.8331 0.3658 0.2056   -0.353318
 O 0.808 0.2872 0.2698   -0.336506
 O 0.7099 0.1831 0.1165   -0.378105
 O 0.7336 0.0731 0.1205   -0.312643
 O 0.599 0.3285 0.3467   -0.357946
 O 0.5633 0.2645 0.4225   -0.346348
 O 0.5533 0.4473 0.9465   -0.815019
 O 0.4438 0.3673 0.9003   -0.637959
 O 0.8481 0.4271 0.8291   -0.334654
 O 0.8498 0.358 0.7288   -0.347063
 O 0.6771 0.1242 0.7738   -0.407341
 O 0.5396 0.1396 0.7654   -0.302471
 O 0.9538 0.6795 0.9799   -0.399578
 O 0.0381 0.9321 0.5907   -0.688251
 O 0.9052 0.9008 0.5282   -0.729366
 O 0.7324 0.5562 0.925   -0.671715
 O 0.7043 0.6556 0.9964   -0.645761
 O 0.0937 0.8504 0.8094   -0.357426
 O 0.023 0.7547 0.8227   -0.340408
 O 0.6669 0.7944 0.6342   -0.353318
 O 0.692 0.7302 0.7128   -0.336505
 O 0.7901 0.8835 0.8169   -0.378105
 O 0.7664 0.8795 0.9269   -0.312642
 O 0.901 0.6533 0.6715   -0.357947
 O 0.9367 0.5775 0.7355   -0.346349
 O 0.9467 0.0535 0.5527   -0.815019
 O 0.0562 0.0997 0.6327   -0.637959
 O 0.6519 0.1709 0.5729   -0.334654
 O 0.6502 0.2712 0.642   -0.347064
 O 0.8229 0.2262 0.8758   -0.407341
 O 0.9604 0.2346 0.8604   -0.30247
 O 0.5462 0.0201 0.3205   -0.399578
 O 0.5381 0.5907 0.9321   -0.688251
 O 0.4052 0.5282 0.9008   -0.729366
 O 0.2324 0.925 0.5562   -0.671715
 O 0.2043 0.9964 0.6556   -0.64576
 O 0.5937 0.8094 0.8504   -0.357425
 O 0.523 0.8227 0.7547   -0.340408
 O 0.1669 0.6342 0.7944   -0.353318
 O 0.192 0.7128 0.7302   -0.336506
 O 0.2901 0.8169 0.8835   -0.378105
 O 0.2664 0.9269 0.8795   -0.312642
 O 0.401 0.6715 0.6533   -0.357947
 O 0.4367 0.7355 0.5775   -0.346349
 O 0.4467 0.5527 0.0535   -0.815019
 O 0.5562 0.6327 0.0997   -0.637959
 O 0.1519 0.5729 0.1709   -0.334654
 O 0.1502 0.642 0.2712   -0.347063
 O 0.3229 0.8758 0.2262   -0.407341
 O 0.4604 0.8604 0.2346   -0.30247
 O 0.0462 0.3205 0.0201   -0.399578
 O 0.9619 0.0679 0.4093   -0.688251
 O 0.0948 0.0992 0.4718   -0.729366
 O 0.2676 0.4438 0.075   -0.671715
 O 0.2957 0.3444 0.0036   -0.645761
 O 0.9063 0.1496 0.1906   -0.357425
 O 0.977 0.2453 0.1773   -0.340408
 O 0.3331 0.2056 0.3658   -0.353318
 O 0.308 0.2698 0.2872   -0.336505
 O 0.2099 0.1165 0.1831   -0.378105
 O 0.2336 0.1205 0.0731   -0.312642
 O 0.099 0.3467 0.3285   -0.357948
 O 0.0633 0.4225 0.2645   -0.346349
 O 0.0533 0.9465 0.4473   -0.815019
 O 0.9438 0.9003 0.3673   -0.637958
 O 0.3481 0.8291 0.4271   -0.334654
 O 0.3498 0.7288 0.358   -0.347064
 O 0.1771 0.7738 0.1242   -0.407341
 O 0.0396 0.7654 0.1396   -0.30247
 O 0.4538 0.9799 0.6795   -0.399577
