{'_ref': 'TBD', '_srcid': 'CAKYAQ_clean', 'submitters': [{'name': 'Dalar Nazarian Jeff Camp and David Sholl', 'email': 'dalar@gatech.edu jcamp6@gatech.edu'}], '_method': 'VASP DFT with PBE;DDEC'}
data_MgH2(CO2)2
_symmetry_space_group_name_H-M   'P 1'
_cell_length_a   9.90470000
_cell_length_b   11.40069967
_cell_length_c   14.53570000
_cell_angle_alpha   91.31699874
_cell_angle_beta   90.00000000
_cell_angle_gamma   90.00000000
_symmetry_Int_Tables_number   1
_chemical_formula_structural   MgH2(CO2)2
_chemical_formula_sum   'Mg12 H24 C24 O48'
_cell_volume   1640.94506213
_cell_formula_units_Z   12
loop_
 _symmetry_equiv_pos_site_id
 _symmetry_equiv_pos_as_xyz
  1  'x, y, z'
loop_
 _atom_site_label
 _atom_site_fract_x
 _atom_site_fract_y
 _atom_site_fract_z
 _atom_site_charge
 Mg 0.5792 0.74472 0.36509   1.522924
 Mg 0.38763 0.76127 0.19041   1.49517
 Mg 0.0792 0.75528 0.13491   1.522924
 Mg 0.88763 0.73873 0.30959   1.49517
 Mg 0.4208 0.25528 0.63491   1.522924
 Mg 0.61237 0.23873 0.80959   1.49517
 Mg 0.9208 0.24472 0.86509   1.522924
 Mg 0.11237 0.26127 0.69041   1.49517
 Mg 0.5 0.0 0.5   1.492904
 Mg 0.0 0.5 0.0   1.492904
 Mg 0.5 0.5 0.5   1.507436
 Mg 0.0 0.0 0.0   1.507436
 H 0.463 0.0224 0.2376   0.001299
 H 0.8775 0.9377 0.4581   -0.004464
 H 0.7869 0.4948 0.4715   -0.005589
 H 0.7397 0.6554 0.1272   -0.013879
 H 0.3478 0.8023 0.5723   -0.005007
 H 0.2917 0.5335 0.2785   -0.011047
 H 0.963 0.4776 0.2624   0.001299
 H 0.3775 0.5623 0.0419   -0.004464
 H 0.2869 0.0052 0.0285   -0.005589
 H 0.2397 0.8446 0.3728   -0.013879
 H 0.8478 0.6977 0.9277   -0.005007
 H 0.7917 0.9665 0.2215   -0.011047
 H 0.537 0.9776 0.7624   0.001298
 H 0.1225 0.0623 0.5419   -0.004463
 H 0.2131 0.5052 0.5285   -0.005589
 H 0.2603 0.3446 0.8728   -0.013879
 H 0.6522 0.1977 0.4277   -0.005008
 H 0.7083 0.4665 0.7215   -0.011047
 H 0.037 0.5224 0.7376   0.001298
 H 0.6225 0.4377 0.9581   -0.004463
 H 0.7131 0.9948 0.9715   -0.005589
 H 0.7603 0.1554 0.6272   -0.013879
 H 0.1522 0.3023 0.0723   -0.005008
 H 0.2083 0.0335 0.7785   -0.011047
 C 0.48288 0.98074 0.29011   0.757802
 C 0.78649 0.92043 0.44998   0.759985
 C 0.77126 0.56076 0.43652   0.759977
 C 0.67057 0.68066 0.16617   0.759928
 C 0.4041 0.7592 0.53305   0.766011
 C 0.35896 0.55715 0.31954   0.757983
 C 0.98288 0.51926 0.20989   0.757802
 C 0.28649 0.57957 0.05002   0.759985
 C 0.27126 0.93924 0.06348   0.759977
 C 0.17057 0.81934 0.33383   0.759928
 C 0.9041 0.7408 0.96695   0.766011
 C 0.85896 0.94285 0.18046   0.757983
 C 0.51712 0.01926 0.70989   0.757802
 C 0.21351 0.07957 0.55002   0.759985
 C 0.22874 0.43924 0.56348   0.759977
 C 0.32943 0.31934 0.83383   0.759928
 C 0.5959 0.2408 0.46695   0.766011
 C 0.64104 0.44285 0.68046   0.757983
 C 0.01712 0.48074 0.79011   0.757802
 C 0.71351 0.42043 0.94998   0.759985
 C 0.72874 0.06076 0.93652   0.759977
 C 0.82943 0.18066 0.66617   0.759928
 C 0.0959 0.2592 0.03305   0.766011
 C 0.14104 0.05715 0.81954   0.757983
 O 0.49325 0.86979 0.28084   -0.830197
 O 0.4969 0.0379 0.36259   -0.680319
 O 0.75652 0.84016 0.38999   -0.832511
 O 0.70513 0.97653 0.4977   -0.666604
 O 0.64981 0.59784 0.43271   -0.824572
 O 0.87029 0.60432 0.39804   -0.686007
 O 0.69972 0.696 0.25121   -0.816291
 O 0.55814 0.69648 0.13101   -0.68413
 O 0.47524 0.81631 0.4755   -0.838401
 O 0.40442 0.65166 0.54047   -0.683191
 O 0.42025 0.65267 0.3028   -0.827871
 O 0.38076 0.4933 0.38521   -0.671168
 O 0.99325 0.63021 0.21916   -0.830197
 O 0.9969 0.4621 0.13741   -0.680319
 O 0.25652 0.65984 0.11001   -0.832511
 O 0.20513 0.52347 0.0023   -0.666604
 O 0.14981 0.90216 0.06729   -0.824572
 O 0.37029 0.89568 0.10196   -0.686007
 O 0.19972 0.804 0.24879   -0.816291
 O 0.05814 0.80352 0.36899   -0.68413
 O 0.97524 0.68369 0.0245   -0.838401
 O 0.90442 0.84834 0.95953   -0.683191
 O 0.92025 0.84733 0.1972   -0.827871
 O 0.88076 0.0067 0.11479   -0.671168
 O 0.50675 0.13021 0.71916   -0.830197
 O 0.5031 0.9621 0.63741   -0.680319
 O 0.24348 0.15984 0.61001   -0.832511
 O 0.29487 0.02347 0.5023   -0.666604
 O 0.35019 0.40216 0.56729   -0.824572
 O 0.12971 0.39568 0.60196   -0.686007
 O 0.30028 0.304 0.74879   -0.816291
 O 0.44186 0.30352 0.86899   -0.68413
 O 0.52476 0.18369 0.5245   -0.838401
 O 0.59558 0.34834 0.45953   -0.683191
 O 0.57975 0.34733 0.6972   -0.827871
 O 0.61924 0.5067 0.61479   -0.671168
 O 0.00675 0.36979 0.78084   -0.830197
 O 0.0031 0.5379 0.86259   -0.680319
 O 0.74348 0.34016 0.88999   -0.832511
 O 0.79487 0.47653 0.9977   -0.666604
 O 0.85019 0.09784 0.93271   -0.824572
 O 0.62971 0.10432 0.89804   -0.686007
 O 0.80028 0.196 0.75121   -0.816291
 O 0.94186 0.19648 0.63101   -0.68413
 O 0.02476 0.31631 0.9755   -0.838401
 O 0.09558 0.15166 0.04047   -0.683191
 O 0.07975 0.15267 0.8028   -0.827871
 O 0.11924 0.9933 0.88521   -0.671168
