{'_ref': 'TBD', '_srcid': 'CAKYAQ_clean', 'submitters': [{'name': 'Dalar Nazarian Jeff Camp and David Sholl', 'email': 'dalar@gatech.edu jcamp6@gatech.edu'}], '_method': 'VASP DFT with PBE;DDEC'}
data_MgH2(CO2)2
_symmetry_space_group_name_H-M   'P 1'
_cell_length_a   9.81790000
_cell_length_b   11.28880020
_cell_length_c   14.54650000
_cell_angle_alpha   91.62200165
_cell_angle_beta   90.00000000
_cell_angle_gamma   90.00000000
_symmetry_Int_Tables_number   1
_chemical_formula_structural   MgH2(CO2)2
_chemical_formula_sum   'Mg12 H24 C24 O48'
_cell_volume   1611.57623329
_cell_formula_units_Z   12
loop_
 _symmetry_equiv_pos_site_id
 _symmetry_equiv_pos_as_xyz
  1  'x, y, z'
loop_
 _atom_site_label
 _atom_site_fract_x
 _atom_site_fract_y
 _atom_site_fract_z
 _atom_site_charge
 Mg 0.58127 0.74389 0.36503   1.519778
 Mg 0.3912 0.76039 0.18958   1.49429
 Mg 0.08127 0.75611 0.13497   1.519778
 Mg 0.8912 0.73961 0.31042   1.49429
 Mg 0.41873 0.25611 0.63497   1.519778
 Mg 0.6088 0.23961 0.81042   1.49429
 Mg 0.91873 0.24389 0.86503   1.519778
 Mg 0.1088 0.26039 0.68958   1.49429
 Mg 0.5 0.0 0.5   1.492781
 Mg 0.0 0.5 0.0   1.492781
 Mg 0.5 0.5 0.5   1.500707
 Mg 0.0 0.0 0.0   1.500707
 H 0.4639 0.0245 0.2363   0.004942
 H 0.8825 0.9454 0.4543   -0.000679
 H 0.7963 0.5076 0.4866   -0.001976
 H 0.7421 0.6325 0.1325   -0.011317
 H 0.3408 0.8041 0.569   -0.004897
 H 0.3074 0.52 0.269   -0.009521
 H 0.9639 0.4755 0.2637   0.004942
 H 0.3825 0.5546 0.0457   -0.000679
 H 0.2963 0.9924 0.0134   -0.001976
 H 0.2421 0.8675 0.3675   -0.011317
 H 0.8408 0.6959 0.931   -0.004897
 H 0.8074 0.98 0.231   -0.009521
 H 0.5361 0.9755 0.7637   0.004941
 H 0.1175 0.0546 0.5457   -0.000678
 H 0.2037 0.4924 0.5134   -0.001976
 H 0.2579 0.3675 0.8675   -0.011317
 H 0.6592 0.1959 0.431   -0.004898
 H 0.6926 0.48 0.731   -0.009521
 H 0.0361 0.5245 0.7363   0.004941
 H 0.6175 0.4454 0.9543   -0.000678
 H 0.7037 0.0076 0.9866   -0.001976
 H 0.7579 0.1325 0.6325   -0.011317
 H 0.1592 0.3041 0.069   -0.004898
 H 0.1926 0.02 0.769   -0.009521
 C 0.4851 0.9813 0.28954   0.748745
 C 0.7889 0.9258 0.44759   0.749529
 C 0.7778 0.5695 0.44559   0.756093
 C 0.6729 0.6672 0.17016   0.758028
 C 0.3988 0.7587 0.52939   0.76327
 C 0.3694 0.5486 0.31452   0.749816
 C 0.9851 0.5187 0.21046   0.748745
 C 0.2889 0.5742 0.05241   0.749529
 C 0.2778 0.9305 0.05441   0.756093
 C 0.1729 0.8328 0.32984   0.758028
 C 0.8988 0.7413 0.97061   0.76327
 C 0.8694 0.9514 0.18548   0.749816
 C 0.5149 0.0187 0.71046   0.748745
 C 0.2111 0.0742 0.55241   0.749529
 C 0.2222 0.4305 0.55441   0.756093
 C 0.3271 0.3328 0.82984   0.758028
 C 0.6012 0.2413 0.47061   0.76327
 C 0.6306 0.4514 0.68548   0.749816
 C 0.0149 0.4813 0.78954   0.748745
 C 0.7111 0.4258 0.94759   0.749529
 C 0.7222 0.0695 0.94559   0.756093
 C 0.8271 0.1672 0.67016   0.758028
 C 0.1012 0.2587 0.02939   0.76327
 C 0.1306 0.0486 0.81452   0.749816
 O 0.49696 0.86967 0.27961   -0.828417
 O 0.4989 0.03833 0.36243   -0.675087
 O 0.75846 0.84392 0.38875   -0.824419
 O 0.7069 0.98172 0.49647   -0.666349
 O 0.65341 0.60122 0.43775   -0.822552
 O 0.87634 0.61174 0.40492   -0.685314
 O 0.70321 0.69043 0.2537   -0.818046
 O 0.56111 0.68565 0.13327   -0.683169
 O 0.47416 0.81579 0.4742   -0.837943
 O 0.3947 0.6501 0.53593   -0.681343
 O 0.42 0.65051 0.30322   -0.820994
 O 0.3931 0.48297 0.37895   -0.669211
 O 0.99696 0.63033 0.22039   -0.828417
 O 0.9989 0.46167 0.13757   -0.675087
 O 0.25846 0.65608 0.11125   -0.824419
 O 0.2069 0.51828 0.00353   -0.666349
 O 0.15341 0.89878 0.06225   -0.822552
 O 0.37634 0.88826 0.09508   -0.685314
 O 0.20321 0.80957 0.2463   -0.818046
 O 0.06111 0.81435 0.36673   -0.683169
 O 0.97416 0.68421 0.0258   -0.837943
 O 0.8947 0.8499 0.96407   -0.681343
 O 0.92 0.84949 0.19678   -0.820994
 O 0.8931 0.01703 0.12105   -0.669211
 O 0.50304 0.13033 0.72039   -0.828417
 O 0.5011 0.96167 0.63757   -0.675087
 O 0.24154 0.15608 0.61125   -0.824419
 O 0.2931 0.01828 0.50353   -0.666349
 O 0.34659 0.39878 0.56225   -0.822552
 O 0.12366 0.38826 0.59508   -0.685314
 O 0.29679 0.30957 0.7463   -0.818046
 O 0.43889 0.31435 0.86673   -0.683169
 O 0.52584 0.18421 0.5258   -0.837943
 O 0.6053 0.3499 0.46407   -0.681343
 O 0.58 0.34949 0.69678   -0.820994
 O 0.6069 0.51703 0.62105   -0.669211
 O 0.00304 0.36967 0.77961   -0.828417
 O 0.0011 0.53833 0.86243   -0.675087
 O 0.74154 0.34392 0.88875   -0.824419
 O 0.7931 0.48172 0.99647   -0.666349
 O 0.84659 0.10122 0.93775   -0.822552
 O 0.62366 0.11174 0.90492   -0.685314
 O 0.79679 0.19043 0.7537   -0.818046
 O 0.93889 0.18565 0.63327   -0.683169
 O 0.02584 0.31579 0.9742   -0.837943
 O 0.1053 0.1501 0.03593   -0.681343
 O 0.08 0.15051 0.80322   -0.820994
 O 0.1069 0.98297 0.87895   -0.669211
