{'_ref': 'TBD', '_srcid': 'CAKYAQ_clean', 'submitters': [{'name': 'Dalar Nazarian Jeff Camp and David Sholl', 'email': 'dalar@gatech.edu jcamp6@gatech.edu'}], '_method': 'VASP DFT with PBE;DDEC'}
data_MgH2(CO2)2
_symmetry_space_group_name_H-M   'P 1'
_cell_length_a   9.83390000
_cell_length_b   11.27900024
_cell_length_c   14.76600000
_cell_angle_alpha   91.56500077
_cell_angle_beta   90.00000000
_cell_angle_gamma   90.00000000
_symmetry_Int_Tables_number   1
_chemical_formula_structural   MgH2(CO2)2
_chemical_formula_sum   'Mg12 H24 C24 O48'
_cell_volume   1637.18300951
_cell_formula_units_Z   12
loop_
 _symmetry_equiv_pos_site_id
 _symmetry_equiv_pos_as_xyz
  1  'x, y, z'
loop_
 _atom_site_label
 _atom_site_fract_x
 _atom_site_fract_y
 _atom_site_fract_z
 _atom_site_charge
 Mg 0.07498 0.75674 0.13493   1.523679
 Mg 0.88305 0.7398 0.30602   1.493132
 Mg 0.57498 0.74326 0.36507   1.523679
 Mg 0.38305 0.7602 0.19398   1.493132
 Mg 0.92502 0.24326 0.86507   1.523679
 Mg 0.11695 0.2602 0.69398   1.493132
 Mg 0.42502 0.25674 0.63493   1.523679
 Mg 0.61695 0.2398 0.80602   1.493132
 Mg 0.0 0.5 0.0   1.492877
 Mg 0.5 0.0 0.5   1.492877
 Mg 0.0 0.0 0.0   1.503882
 Mg 0.5 0.5 0.5   1.503882
 H 0.9515 0.4754 0.2586   0.005661
 H 0.3806 0.5591 0.049   0.001117
 H 0.2922 0.9987 0.0231   -0.00048
 H 0.2339 0.8581 0.3692   -0.00788
 H 0.8383 0.6957 0.9319   -0.001716
 H 0.7893 0.9762 0.2209   -0.003019
 H 0.4515 0.0246 0.2414   0.005661
 H 0.8806 0.9409 0.451   0.001117
 H 0.7922 0.5013 0.4769   -0.00048
 H 0.7339 0.6419 0.1308   -0.00788
 H 0.3383 0.8043 0.5681   -0.001716
 H 0.2893 0.5238 0.2791   -0.003019
 H 0.0485 0.5246 0.7414   0.005661
 H 0.6194 0.4409 0.951   0.001117
 H 0.7078 0.0013 0.9769   -0.00048
 H 0.7661 0.1419 0.6308   -0.00788
 H 0.1617 0.3043 0.0681   -0.001716
 H 0.2107 0.0238 0.7791   -0.003019
 H 0.5485 0.9754 0.7586   0.005661
 H 0.1194 0.0591 0.549   0.001117
 H 0.2078 0.4987 0.5231   -0.00048
 H 0.2661 0.3581 0.8692   -0.00788
 H 0.6617 0.1957 0.4319   -0.001716
 H 0.7107 0.4762 0.7209   -0.003019
 C 0.97637 0.51835 0.20664   0.746972
 C 0.28658 0.57734 0.0547   0.746946
 C 0.27291 0.93529 0.06219   0.754535
 C 0.16426 0.82723 0.33069   0.749139
 C 0.89744 0.74077 0.97033   0.75781
 C 0.85696 0.94925 0.17927   0.744048
 C 0.47637 0.98165 0.29336   0.746972
 C 0.78658 0.92266 0.4453   0.746946
 C 0.77291 0.56471 0.43781   0.754535
 C 0.66426 0.67277 0.16931   0.749139
 C 0.39744 0.75923 0.52967   0.75781
 C 0.35696 0.55075 0.32073   0.744048
 C 0.02363 0.48165 0.79336   0.746972
 C 0.71342 0.42266 0.9453   0.746946
 C 0.72709 0.06471 0.93781   0.754535
 C 0.83574 0.17277 0.66931   0.749139
 C 0.10256 0.25923 0.02967   0.75781
 C 0.14304 0.05075 0.82073   0.744048
 C 0.52363 0.01835 0.70664   0.746972
 C 0.21342 0.07734 0.5547   0.746946
 C 0.22709 0.43529 0.56219   0.754535
 C 0.33574 0.32723 0.83069   0.749139
 C 0.60256 0.24077 0.47033   0.75781
 C 0.64304 0.44925 0.67927   0.744048
 O 0.98834 0.63033 0.21668   -0.828256
 O 0.9942 0.46062 0.13534   -0.676236
 O 0.25289 0.65797 0.11322   -0.826449
 O 0.20675 0.52132 0.005   -0.666073
 O 0.14945 0.90021 0.0659   -0.826063
 O 0.36973 0.89411 0.10491   -0.684009
 O 0.1947 0.80809 0.24768   -0.815294
 O 0.05175 0.80911 0.36567   -0.678939
 O 0.97167 0.68346 0.02565   -0.835573
 O 0.89633 0.84958 0.96283   -0.681199
 O 0.91386 0.84973 0.19476   -0.826614
 O 0.88233 0.01329 0.11489   -0.663618
 O 0.48834 0.86967 0.28332   -0.828256
 O 0.4942 0.03938 0.36466   -0.676236
 O 0.75289 0.84203 0.38678   -0.826449
 O 0.70675 0.97868 0.495   -0.666073
 O 0.64945 0.59979 0.4341   -0.826063
 O 0.86973 0.60589 0.39509   -0.684009
 O 0.6947 0.69191 0.25232   -0.815294
 O 0.55175 0.69089 0.13433   -0.678939
 O 0.47167 0.81654 0.47435   -0.835573
 O 0.39633 0.65042 0.53717   -0.681199
 O 0.41386 0.65027 0.30524   -0.826614
 O 0.38233 0.48671 0.38511   -0.663618
 O 0.01166 0.36967 0.78332   -0.828256
 O 0.0058 0.53938 0.86466   -0.676236
 O 0.74711 0.34203 0.88678   -0.826449
 O 0.79325 0.47868 0.995   -0.666073
 O 0.85055 0.09979 0.9341   -0.826063
 O 0.63027 0.10589 0.89509   -0.684009
 O 0.8053 0.19191 0.75232   -0.815294
 O 0.94825 0.19089 0.63433   -0.678939
 O 0.02833 0.31654 0.97435   -0.835573
 O 0.10367 0.15042 0.03717   -0.681199
 O 0.08614 0.15027 0.80524   -0.826614
 O 0.11767 0.98671 0.88511   -0.663618
 O 0.51166 0.13033 0.71668   -0.828256
 O 0.5058 0.96062 0.63534   -0.676236
 O 0.24711 0.15797 0.61322   -0.826449
 O 0.29325 0.02132 0.505   -0.666073
 O 0.35055 0.40021 0.5659   -0.826063
 O 0.13027 0.39411 0.60491   -0.684009
 O 0.3053 0.30809 0.74768   -0.815294
 O 0.44825 0.30911 0.86567   -0.678939
 O 0.52833 0.18346 0.52565   -0.835573
 O 0.60367 0.34958 0.46283   -0.681199
 O 0.58614 0.34973 0.69476   -0.826614
 O 0.61767 0.51329 0.61489   -0.663618
