{'_ref': 'TBD', '_srcid': 'CAKYAQ_clean', 'submitters': [{'name': 'Dalar Nazarian Jeff Camp and David Sholl', 'email': 'dalar@gatech.edu jcamp6@gatech.edu'}], '_method': 'VASP DFT with PBE;DDEC'}
data_NiH9C10NO5
_symmetry_space_group_name_H-M   'P 1'
_cell_length_a   9.68790000
_cell_length_b   10.45690000
_cell_length_c   23.69870000
_cell_angle_alpha   90.00000000
_cell_angle_beta   90.00000000
_cell_angle_gamma   90.00000000
_symmetry_Int_Tables_number   1
_chemical_formula_structural   NiH9C10NO5
_chemical_formula_sum   'Ni8 H72 C80 N8 O40'
_cell_volume   2400.80631877
_cell_formula_units_Z   8
loop_
 _symmetry_equiv_pos_site_id
 _symmetry_equiv_pos_as_xyz
  1  'x, y, z'
loop_
 _atom_site_label
 _atom_site_fract_x
 _atom_site_fract_y
 _atom_site_fract_z
 _atom_site_charge
 Ni 0.61685 0.50533 0.21248   0.919512
 Ni 0.64239 0.99506 0.2864   0.910252
 Ni 0.38315 0.50533 0.78752   0.919512
 Ni 0.35761 0.99506 0.7136   0.910252
 Ni 0.11685 0.49467 0.28752   0.919512
 Ni 0.14239 0.00494 0.2136   0.910252
 Ni 0.88315 0.49467 0.71248   0.919512
 Ni 0.85761 0.00494 0.7864   0.910252
 H 0.7434 0.5916 0.355   0.067243
 H 0.7881 0.474 0.2789   0.359859
 H 0.5447 0.4795 0.3783   0.135664
 H 0.5085 0.6285 0.3769   0.144173
 H 0.5726 0.9261 0.1347   0.064842
 H 0.692 0.8469 0.2078   0.365175
 H 0.7009 0.1211 0.1363   0.135861
 H 0.5401 0.145 0.1262   0.135354
 H 0.5185 0.4084 0.0974   0.08448
 H 0.3803 0.472 0.0229   0.129089
 H 0.3195 0.809 0.1033   0.130049
 H 0.4524 0.7325 0.1769   0.082536
 H 0.2329 0.6303 0.9771   0.111708
 H 0.2447 0.8765 0.0208   0.114297
 H 0.9945 0.1099 0.8918   0.077463
 H 0.1347 0.0449 0.9659   0.128615
 H 0.1075 0.6826 0.9062   0.122595
 H 0.9632 0.7577 0.8355   0.089262
 H 0.2566 0.5916 0.645   0.067243
 H 0.2119 0.474 0.7211   0.359859
 H 0.4553 0.4795 0.6217   0.135664
 H 0.4915 0.6285 0.6231   0.144173
 H 0.4274 0.9261 0.8653   0.064842
 H 0.308 0.8469 0.7922   0.365175
 H 0.2991 0.1211 0.8637   0.13586
 H 0.4599 0.145 0.8738   0.135352
 H 0.4815 0.4084 0.9026   0.08448
 H 0.6197 0.472 0.9771   0.129089
 H 0.6805 0.809 0.8967   0.130049
 H 0.5476 0.7325 0.8231   0.082536
 H 0.7671 0.6303 0.0229   0.111708
 H 0.7553 0.8765 0.9792   0.114297
 H 0.0055 0.1099 0.1082   0.077463
 H 0.8653 0.0449 0.0341   0.128615
 H 0.8925 0.6826 0.0938   0.122595
 H 0.0368 0.7577 0.1645   0.089262
 H 0.2434 0.4084 0.145   0.067243
 H 0.2881 0.526 0.2211   0.359859
 H 0.0447 0.5205 0.1217   0.135666
 H 0.0085 0.3715 0.1231   0.144174
 H 0.0726 0.0739 0.3653   0.064842
 H 0.192 0.1531 0.2922   0.365175
 H 0.2009 0.8789 0.3637   0.135861
 H 0.0401 0.855 0.3738   0.135354
 H 0.0185 0.5916 0.4026   0.08448
 H 0.8803 0.528 0.4771   0.129089
 H 0.8195 0.191 0.3967   0.130049
 H 0.9524 0.2675 0.3231   0.082536
 H 0.7329 0.3697 0.5229   0.111709
 H 0.7447 0.1235 0.4792   0.114297
 H 0.4945 0.8901 0.6082   0.077463
 H 0.6347 0.9551 0.5341   0.128615
 H 0.6075 0.3174 0.5938   0.122595
 H 0.4632 0.2423 0.6645   0.089262
 H 0.7566 0.4084 0.855   0.067243
 H 0.7119 0.526 0.7789   0.359859
 H 0.9553 0.5205 0.8783   0.135666
 H 0.9915 0.3715 0.8769   0.144174
 H 0.9274 0.0739 0.6347   0.064842
 H 0.808 0.1531 0.7078   0.365175
 H 0.7991 0.8789 0.6363   0.13586
 H 0.9599 0.855 0.6262   0.135352
 H 0.9815 0.5916 0.5974   0.08448
 H 0.1197 0.528 0.5229   0.129089
 H 0.1805 0.191 0.6033   0.130049
 H 0.0476 0.2675 0.6769   0.082536
 H 0.2671 0.3697 0.4771   0.11171
 H 0.2553 0.1235 0.5208   0.114297
 H 0.5055 0.8901 0.3918   0.077463
 H 0.3653 0.9551 0.4659   0.128615
 H 0.3925 0.3174 0.4062   0.122595
 H 0.5368 0.2423 0.3355   0.089262
 C 0.66583 0.7047 0.28993   0.605451
 C 0.6714 0.58164 0.32504   0.132363
 C 0.5335 0.5543 0.3531   -0.389047
 C 0.4147 0.52753 0.31283   0.738312
 C 0.4425 0.96825 0.20315   0.577636
 C 0.5791 0.97849 0.16993   0.119457
 C 0.6089 0.1171 0.15446   -0.387058
 C 0.6068 0.2119 0.20354   0.742281
 C 0.478 0.4911 0.09847   0.159645
 C 0.3968 0.529 0.05341   -0.228529
 C 0.3394 0.6508 0.05299   0.130224
 C 0.3602 0.7265 0.10079   -0.198548
 C 0.4404 0.6803 0.14449   0.168013
 C 0.2583 0.6933 0.00406   -0.121007
 C 0.2175 0.8131 0.99433   -0.114605
 C 0.0156 0.0215 0.89549   0.169275
 C 0.1003 0.9835 0.93989   -0.226706
 C 0.1341 0.8551 0.94596   0.127933
 C 0.0835 0.7706 0.90494   -0.202622
 C 0.9982 0.8165 0.86253   0.167941
 C 0.33417 0.7047 0.71007   0.605451
 C 0.3286 0.58164 0.67496   0.132363
 C 0.4665 0.5543 0.6469   -0.389047
 C 0.5853 0.52753 0.68717   0.738312
 C 0.5575 0.96825 0.79685   0.577636
 C 0.4209 0.97849 0.83007   0.119457
 C 0.3911 0.1171 0.84554   -0.387057
 C 0.3932 0.2119 0.79646   0.742281
 C 0.522 0.4911 0.90153   0.159645
 C 0.6032 0.529 0.94659   -0.228529
 C 0.6606 0.6508 0.94701   0.130224
 C 0.6398 0.7265 0.89921   -0.198547
 C 0.5596 0.6803 0.85551   0.168013
 C 0.7417 0.6933 0.99594   -0.121006
 C 0.7825 0.8131 0.00567   -0.114604
 C 0.9844 0.0215 0.10451   0.169275
 C 0.8997 0.9835 0.06011   -0.226706
 C 0.8659 0.8551 0.05404   0.127933
 C 0.9165 0.7706 0.09506   -0.202621
 C 0.0018 0.8165 0.13747   0.167941
 C 0.16583 0.2953 0.21007   0.605451
 C 0.1714 0.41836 0.17496   0.132363
 C 0.0335 0.4457 0.1469   -0.389048
 C 0.9147 0.47247 0.18717   0.738312
 C 0.9425 0.03175 0.29685   0.577636
 C 0.0791 0.02151 0.33007   0.119457
 C 0.1089 0.8829 0.34554   -0.387058
 C 0.1068 0.7881 0.29646   0.74228
 C 0.978 0.5089 0.40153   0.159645
 C 0.8968 0.471 0.44659   -0.228529
 C 0.8394 0.3492 0.44701   0.130224
 C 0.8602 0.2735 0.39921   -0.198548
 C 0.9404 0.3197 0.35551   0.168013
 C 0.7583 0.3067 0.49594   -0.121008
 C 0.7175 0.1869 0.50567   -0.114605
 C 0.5156 0.9785 0.60451   0.169275
 C 0.6003 0.0165 0.56011   -0.226706
 C 0.6341 0.1449 0.55404   0.127933
 C 0.5835 0.2294 0.59506   -0.202622
 C 0.4982 0.1835 0.63747   0.167941
 C 0.83417 0.2953 0.78993   0.605451
 C 0.8286 0.41836 0.82504   0.132363
 C 0.9665 0.4457 0.8531   -0.389048
 C 0.0853 0.47247 0.81283   0.738312
 C 0.0575 0.03175 0.70315   0.577636
 C 0.9209 0.02151 0.66993   0.119457
 C 0.8911 0.8829 0.65446   -0.387057
 C 0.8932 0.7881 0.70354   0.74228
 C 0.022 0.5089 0.59847   0.159645
 C 0.1032 0.471 0.55341   -0.228529
 C 0.1606 0.3492 0.55299   0.130224
 C 0.1398 0.2735 0.60079   -0.198547
 C 0.0596 0.3197 0.64449   0.168013
 C 0.2417 0.3067 0.50406   -0.121006
 C 0.2825 0.1869 0.49433   -0.114604
 C 0.4844 0.9785 0.39549   0.169275
 C 0.3997 0.0165 0.43989   -0.226706
 C 0.3659 0.1449 0.44596   0.127933
 C 0.4165 0.2294 0.40494   -0.202621
 C 0.5018 0.1835 0.36253   0.167941
 N 0.50242 0.56539 0.14354   -0.311841
 N 0.96265 0.94037 0.85784   -0.295798
 N 0.49758 0.56539 0.85646   -0.311841
 N 0.03735 0.94037 0.14216   -0.295798
 N 0.00242 0.43461 0.35646   -0.311841
 N 0.46265 0.05963 0.64216   -0.295798
 N 0.99758 0.43461 0.64354   -0.311841
 N 0.53735 0.05963 0.35784   -0.295798
 O 0.6662 0.69221 0.23649   -0.568481
 O 0.66056 0.80759 0.31677   -0.558704
 O 0.70526 0.47329 0.29103   -0.520012
 O 0.4382 0.52419 0.26014   -0.599897
 O 0.29797 0.51167 0.33419   -0.599795
 O 0.4516 0.94948 0.25491   -0.539366
 O 0.33162 0.98157 0.17549   -0.57583
 O 0.69219 0.9332 0.20373   -0.510846
 O 0.63256 0.17623 0.25289   -0.580613
 O 0.58056 0.32473 0.1889   -0.617256
 O 0.3338 0.69221 0.76351   -0.568481
 O 0.33944 0.80759 0.68323   -0.558704
 O 0.29474 0.47329 0.70897   -0.520012
 O 0.5618 0.52419 0.73986   -0.599897
 O 0.70203 0.51167 0.66581   -0.599795
 O 0.5484 0.94948 0.74509   -0.539366
 O 0.66838 0.98157 0.82451   -0.57583
 O 0.30781 0.9332 0.79627   -0.510846
 O 0.36744 0.17623 0.74711   -0.580613
 O 0.41944 0.32473 0.8111   -0.617256
 O 0.1662 0.30779 0.26351   -0.568481
 O 0.16056 0.19241 0.18323   -0.558704
 O 0.20526 0.52671 0.20897   -0.520012
 O 0.9382 0.47581 0.23986   -0.599897
 O 0.79797 0.48833 0.16581   -0.599795
 O 0.9516 0.05052 0.24509   -0.539367
 O 0.83162 0.01843 0.32451   -0.57583
 O 0.19219 0.0668 0.29627   -0.510846
 O 0.13256 0.82377 0.24711   -0.580613
 O 0.08056 0.67527 0.3111   -0.617256
 O 0.8338 0.30779 0.73649   -0.568481
 O 0.83944 0.19241 0.81677   -0.558704
 O 0.79474 0.52671 0.79103   -0.520012
 O 0.0618 0.47581 0.76014   -0.599897
 O 0.20203 0.48833 0.83419   -0.599795
 O 0.0484 0.05052 0.75491   -0.539367
 O 0.16838 0.01843 0.67549   -0.57583
 O 0.80781 0.0668 0.70373   -0.510846
 O 0.86744 0.82377 0.75289   -0.580613
 O 0.91944 0.67527 0.6889   -0.617256
