{'_ref': 'TBD', '_srcid': 'CAKYAQ_clean', 'submitters': [{'name': 'Dalar Nazarian Jeff Camp and David Sholl', 'email': 'dalar@gatech.edu jcamp6@gatech.edu'}], '_method': 'VASP DFT with PBE;DDEC'}
data_NiH8C9NO5
_symmetry_space_group_name_H-M   'P 1'
_cell_length_a   6.73100000
_cell_length_b   7.57500000
_cell_length_c   22.18600000
_cell_angle_alpha   90.00000000
_cell_angle_beta   90.00000000
_cell_angle_gamma   90.00000000
_symmetry_Int_Tables_number   1
_chemical_formula_structural   NiH8C9NO5
_chemical_formula_sum   'Ni4 H32 C36 N4 O20'
_cell_volume   1131.20479245
_cell_formula_units_Z   4
loop_
 _symmetry_equiv_pos_site_id
 _symmetry_equiv_pos_as_xyz
  1  'x, y, z'
loop_
 _atom_site_label
 _atom_site_fract_x
 _atom_site_fract_y
 _atom_site_fract_z
 _atom_site_charge
 Ni 0.45767 0.24597 0.28894   0.966601
 Ni 0.54233 0.24597 0.71106   0.966601
 Ni 0.95767 0.75403 0.21106   0.966601
 Ni 0.04233 0.75403 0.78894   0.966601
 H 0.3641 0.3709 0.1155   0.133254
 H 0.1709 0.2513 0.1228   0.140989
 H 0.4694 0.0869 0.1289   0.059885
 H 0.7065 0.2474 0.1874   0.447259
 H 0.0306 0.3039 0.3286   0.10439
 H 0.8364 0.2929 0.4153   0.136152
 H 0.3237 0.1386 0.5099   0.125329
 H 0.5054 0.1439 0.4207   0.067853
 H 0.6359 0.3709 0.8845   0.133253
 H 0.8291 0.2513 0.8772   0.140988
 H 0.5306 0.0869 0.8711   0.059885
 H 0.2935 0.2474 0.8126   0.447259
 H 0.9694 0.3039 0.6714   0.10439
 H 0.1636 0.2929 0.5847   0.136152
 H 0.6763 0.1386 0.4901   0.12533
 H 0.4946 0.1439 0.5793   0.067854
 H 0.8641 0.6291 0.3845   0.133254
 H 0.6709 0.7487 0.3772   0.140989
 H 0.9694 0.9131 0.3711   0.059885
 H 0.2065 0.7526 0.3126   0.447259
 H 0.5306 0.6961 0.1714   0.10439
 H 0.3364 0.7071 0.0847   0.136152
 H 0.8237 0.8614 0.9901   0.125329
 H 0.0054 0.8561 0.0793   0.067854
 H 0.1359 0.6291 0.6155   0.133253
 H 0.3291 0.7487 0.6228   0.140988
 H 0.0306 0.9131 0.6289   0.059885
 H 0.7935 0.7526 0.6874   0.447259
 H 0.4694 0.6961 0.8286   0.10439
 H 0.6636 0.7071 0.9153   0.136152
 H 0.1763 0.8614 0.0099   0.12533
 H 0.9946 0.8561 0.9207   0.067854
 C 0.2083 0.4257 0.1933   0.746319
 C 0.2865 0.3004 0.1447   -0.418231
 C 0.414 0.1485 0.1651   0.171368
 C 0.2892 0.0162 0.2022   0.604619
 C 0.0899 0.2692 0.3657   0.166806
 C 0.9731 0.2624 0.4172   -0.204892
 C 0.0581 0.2103 0.472   0.093146
 C 0.2607 0.17 0.4731   -0.219703
 C 0.3691 0.176 0.4198   0.158449
 C 0.7917 0.4257 0.8067   0.746318
 C 0.7135 0.3004 0.8553   -0.41823
 C 0.586 0.1485 0.8349   0.171367
 C 0.7108 0.0162 0.7978   0.604619
 C 0.9101 0.2692 0.6343   0.166806
 C 0.0269 0.2624 0.5828   -0.204892
 C 0.9419 0.2103 0.528   0.093146
 C 0.7393 0.17 0.5269   -0.219703
 C 0.6309 0.176 0.5802   0.158449
 C 0.7083 0.5743 0.3067   0.746319
 C 0.7865 0.6996 0.3553   -0.418231
 C 0.914 0.8515 0.3349   0.171367
 C 0.7892 0.9838 0.2978   0.604619
 C 0.5899 0.7308 0.1343   0.166806
 C 0.4731 0.7376 0.0828   -0.204892
 C 0.5581 0.7897 0.028   0.093146
 C 0.7607 0.83 0.0269   -0.219703
 C 0.8691 0.824 0.0802   0.158449
 C 0.2917 0.5743 0.6933   0.746318
 C 0.2135 0.6996 0.6447   -0.41823
 C 0.086 0.8515 0.6651   0.171367
 C 0.2108 0.9838 0.7022   0.604619
 C 0.4101 0.7308 0.8657   0.166806
 C 0.5269 0.7376 0.9172   -0.204892
 C 0.4419 0.7897 0.972   0.093146
 C 0.2393 0.83 0.9731   -0.219703
 C 0.1309 0.824 0.9198   0.158449
 N 0.2873 0.2275 0.36649   -0.300346
 N 0.7127 0.2275 0.63351   -0.300346
 N 0.7873 0.7725 0.13351   -0.300345
 N 0.2127 0.7725 0.86649   -0.300345
 O 0.2494 0.4029 0.24825   -0.620869
 O 0.1013 0.547 0.17298   -0.624274
 O 0.5761 0.2192 0.20062   -0.600404
 O 0.3132 0.0206 0.25901   -0.564204
 O 0.175 0.9177 0.17454   -0.569495
 O 0.7506 0.4029 0.75175   -0.620869
 O 0.8987 0.547 0.82702   -0.624274
 O 0.4239 0.2192 0.79938   -0.600404
 O 0.6868 0.0206 0.74099   -0.564204
 O 0.825 0.9177 0.82546   -0.569495
 O 0.7494 0.5971 0.25175   -0.620869
 O 0.6013 0.453 0.32702   -0.624274
 O 0.0761 0.7808 0.29938   -0.600404
 O 0.8132 0.9794 0.24099   -0.564205
 O 0.675 0.0823 0.32546   -0.569495
 O 0.2506 0.5971 0.74825   -0.620869
 O 0.3987 0.453 0.67298   -0.624274
 O 0.9239 0.7808 0.70062   -0.600404
 O 0.1868 0.9794 0.75901   -0.564205
 O 0.325 0.0823 0.67454   -0.569495
