{'_ref': 'TBD', '_srcid': 'CAKYAQ_clean', 'submitters': [{'name': 'Dalar Nazarian Jeff Camp and David Sholl', 'email': 'dalar@gatech.edu jcamp6@gatech.edu'}], '_method': 'VASP DFT with PBE;DDEC'}
data_CaH5C15NO6
_symmetry_space_group_name_H-M   'P 1'
_cell_length_a   13.54879990
_cell_length_b   21.11400000
_cell_length_c   21.11400011
_cell_angle_alpha   84.09120084
_cell_angle_beta   71.28560058
_cell_angle_gamma   71.28570065
_symmetry_Int_Tables_number   1
_chemical_formula_structural   CaH5C15NO6
_chemical_formula_sum   'Ca8 H40 C120 N8 O48'
_cell_volume   5418.2745527
_cell_formula_units_Z   8
loop_
 _symmetry_equiv_pos_site_id
 _symmetry_equiv_pos_as_xyz
  1  'x, y, z'
loop_
 _atom_site_label
 _atom_site_fract_x
 _atom_site_fract_y
 _atom_site_fract_z
 _atom_site_charge
 Ca 0.37206 0.19513 0.81467   1.617344
 Ca 0.88186 0.30487 0.68533   1.617585
 Ca 0.56719 0.31467 0.80487   1.618057
 Ca 0.18673 0.18533 0.69513   1.617705
 Ca 0.62794 0.80487 0.18533   1.617344
 Ca 0.11814 0.69513 0.31467   1.617585
 Ca 0.43281 0.68533 0.19513   1.618057
 Ca 0.81327 0.81467 0.30487   1.617705
 H 0.7841 0.1839 0.7543   0.08654
 H 0.0207 0.0058 0.7412   0.112927
 H 0.7099 0.0097 0.7693   0.128495
 H 0.8765 0.8055 0.9125   0.122946
 H 0.042 0.811 0.5906   0.121269
 H 0.2223 0.3161 0.7457   0.087036
 H 0.2677 0.4942 0.7588   0.114478
 H 0.9889 0.4903 0.7307   0.129365
 H 0.0945 0.6945 0.5875   0.122698
 H 0.9436 0.689 0.9094   0.120631
 H 0.968 0.2543 0.8161   0.08664
 H 0.0265 0.2412 0.9942   0.114073
 H 0.7196 0.2693 0.9903   0.128048
 H 0.682 0.4125 0.1945   0.122823
 H 0.853 0.0906 0.189   0.121246
 H 0.5384 0.2457 0.6839   0.086794
 H 0.7619 0.2588 0.5058   0.113248
 H 0.4792 0.2307 0.5097   0.127548
 H 0.789 0.0875 0.3055   0.123269
 H 0.6326 0.4094 0.311   0.121237
 H 0.2159 0.8161 0.2457   0.08654
 H 0.9793 0.9942 0.2588   0.112927
 H 0.2901 0.9903 0.2307   0.128494
 H 0.1235 0.1945 0.0875   0.122946
 H 0.958 0.189 0.4094   0.121269
 H 0.7777 0.6839 0.2543   0.087036
 H 0.7323 0.5058 0.2412   0.114479
 H 0.0111 0.5097 0.2693   0.129365
 H 0.9055 0.3055 0.4125   0.122698
 H 0.0564 0.311 0.0906   0.120631
 H 0.032 0.7457 0.1839   0.08664
 H 0.9735 0.7588 0.0058   0.114073
 H 0.2804 0.7307 0.0097   0.128048
 H 0.318 0.5875 0.8055   0.122823
 H 0.147 0.9094 0.811   0.121247
 H 0.4616 0.7543 0.3161   0.086794
 H 0.2381 0.7412 0.4942   0.113248
 H 0.5208 0.7693 0.4903   0.127548
 H 0.211 0.9125 0.6945   0.12327
 H 0.3674 0.5906 0.689   0.121237
 C 0.6097 0.14006 0.77954   0.767022
 C 0.000970000000002 0.13531 0.73235   0.761629
 C 0.72789 0.10245 0.76537   -0.13485
 C 0.80631 0.1364 0.75458   0.01072
 C 0.91625 0.10043 0.74447   -0.124301
 C 0.94689 0.03104 0.74558   -0.079889
 C 0.8696 0.99874 0.75306   0.155106
 C 0.76155 0.03308 0.76342   -0.078316
 C 0.9496 0.8946 0.6898   0.511515
 C 0.888 0.8928 0.814   0.50583
 C 0.9119 0.783 0.8708   -0.041188
 C 0.92606 0.81881 0.81167   -0.135094
 C 0.0322 0.7868 0.6314   -0.035891
 C 0.9857 0.8217 0.6901   -0.127167
 C 0.9746 0.786 0.7498   0.055983
 C 0.0293 0.35994 0.72046   0.769807
 C 0.36863 0.36469 0.76765   0.764097
 C 0.09571 0.39755 0.73463   -0.131952
 C 0.19729 0.3636 0.74542   0.012162
 C 0.26115 0.39957 0.75553   -0.127585
 C 0.22351 0.46896 0.75442   -0.080028
 C 0.1214 0.50126 0.74694   0.152517
 C 0.05805 0.46692 0.73658   -0.078681
 C 0.034 0.6054 0.8102   0.511161
 C 0.0948 0.6072 0.686   0.504923
 C 0.0657 0.717 0.6292   -0.042222
 C 0.05654 0.68119 0.68833   -0.133789
 C 0.9504 0.7132 0.8686   -0.034765
 C 0.9975 0.6783 0.8099   -0.1295
 C 0.0104 0.714 0.7502   0.057277
 C 0.74976 0.27954 0.85994   0.770813
 C 0.13628 0.23235 0.86469   0.766499
 C 0.83034 0.26537 0.89755   -0.135233
 C 0.94271 0.25458 0.8636   0.012025
 C 0.01668 0.24447 0.89957   -0.129064
 C 0.97793 0.24558 0.96896   -0.078037
 C 0.86834 0.25306 0.00126   0.151609
 C 0.79463 0.26342 0.96692   -0.076976
 C 0.8442 0.1898 0.1054   0.511289
 C 0.7808 0.314 0.1072   0.507734
 C 0.6949 0.3708 0.217   -0.04039
 C 0.74487 0.31167 0.18119   -0.136094
 C 0.819 0.1314 0.2132   -0.035685
 C 0.8074 0.1901 0.1783   -0.127857
 C 0.7606 0.2498 0.214   0.056911
 C 0.38924 0.22046 0.64006   0.768783
 C 0.73332 0.26765 0.63531   0.766713
 C 0.49326 0.23463 0.60245   -0.133711
 C 0.56089 0.24542 0.6364   0.010649
 C 0.66072 0.25553 0.60043   -0.126484
 C 0.69247 0.25442 0.53104   -0.08038
 C 0.62266 0.24694 0.49874   0.153013
 C 0.52497 0.23658 0.53308   -0.075732
 C 0.6394 0.3102 0.3946   0.513342
 C 0.702 0.186 0.3928   0.505588
 C 0.7827 0.1292 0.283   -0.042408
 C 0.73773 0.18833 0.31881   -0.134414
 C 0.6636 0.3686 0.2868   -0.036404
 C 0.6758 0.3099 0.3217   -0.129854
 C 0.7244 0.2502 0.286   0.058099
 C 0.3903 0.85994 0.22046   0.767022
 C 0.99903 0.86469 0.26765   0.761629
 C 0.27211 0.89755 0.23463   -0.13485
 C 0.19369 0.8636 0.24542   0.01072
 C 0.08375 0.89957 0.25553   -0.124301
 C 0.05311 0.96896 0.25442   -0.079889
 C 0.1304 0.00126 0.24694   0.155106
 C 0.23845 0.96692 0.23658   -0.078316
 C 0.0504 0.1054 0.3102   0.511515
 C 0.112 0.1072 0.186   0.50583
 C 0.0881 0.217 0.1292   -0.041187
 C 0.07394 0.18119 0.18833   -0.135094
 C 0.9678 0.2132 0.3686   -0.035891
 C 0.0143 0.1783 0.3099   -0.127167
 C 0.0254 0.214 0.2502   0.055983
 C 0.9707 0.64006 0.27954   0.769807
 C 0.63137 0.63531 0.23235   0.764097
 C 0.90429 0.60245 0.26537   -0.131952
 C 0.80271 0.6364 0.25458   0.012162
 C 0.73885 0.60043 0.24447   -0.127585
 C 0.77649 0.53104 0.24558   -0.080028
 C 0.8786 0.49874 0.25306   0.152517
 C 0.94195 0.53308 0.26342   -0.078681
 C 0.966 0.3946 0.1898   0.511161
 C 0.9052 0.3928 0.314   0.504923
 C 0.9343 0.283 0.3708   -0.042222
 C 0.94346 0.31881 0.31167   -0.133789
 C 0.0496 0.2868 0.1314   -0.034765
 C 0.0025 0.3217 0.1901   -0.129499
 C 0.9896 0.286 0.2498   0.057277
 C 0.25024 0.72046 0.14006   0.770813
 C 0.86372 0.76765 0.13531   0.766499
 C 0.16966 0.73463 0.10245   -0.135233
 C 0.05729 0.74542 0.1364   0.012025
 C 0.98332 0.75553 0.10043   -0.129064
 C 0.02207 0.75442 0.03104   -0.078037
 C 0.13166 0.74694 0.99874   0.151609
 C 0.20537 0.73658 0.03308   -0.076975
 C 0.1558 0.8102 0.8946   0.511289
 C 0.2192 0.686 0.8928   0.507734
 C 0.3051 0.6292 0.783   -0.04039
 C 0.25513 0.68833 0.81881   -0.136093
 C 0.181 0.8686 0.7868   -0.035685
 C 0.1926 0.8099 0.8217   -0.127857
 C 0.2394 0.7502 0.786   0.056911
 C 0.61076 0.77954 0.35994   0.768783
 C 0.26668 0.73235 0.36469   0.766713
 C 0.50674 0.76537 0.39755   -0.133711
 C 0.43911 0.75458 0.3636   0.010649
 C 0.33928 0.74447 0.39957   -0.126484
 C 0.30753 0.74558 0.46896   -0.08038
 C 0.37734 0.75306 0.50126   0.153013
 C 0.47503 0.76342 0.46692   -0.075732
 C 0.3606 0.6898 0.6054   0.513342
 C 0.298 0.814 0.6072   0.505588
 C 0.2173 0.8708 0.717   -0.042408
 C 0.26227 0.81167 0.68119   -0.134414
 C 0.3364 0.6314 0.7132   -0.036404
 C 0.3242 0.6901 0.6783   -0.129854
 C 0.2756 0.7498 0.714   0.058099
 N 0.90664 0.92545 0.75127   -0.270706
 N 0.08336 0.57455 0.74873   -0.270516
 N 0.83209 0.25127 0.07455   -0.271009
 N 0.65791 0.24873 0.42545   -0.270523
 N 0.09336 0.07455 0.24873   -0.270706
 N 0.91664 0.42545 0.25127   -0.270516
 N 0.16791 0.74873 0.92545   -0.271009
 N 0.34209 0.75127 0.57455   -0.270523
 O 0.57854 0.20097 0.79415   -0.810995
 O 0.5457 0.10999 0.77821   -0.711293
 O 0.97841 0.19491 0.71127   -0.821547
 O 0.08948 0.1042 0.74104   -0.694487
 O 0.95669 0.92735 0.63927   -0.451376
 O 0.84604 0.92402 0.8649   -0.440175
 O 0.07366 0.29903 0.70585   -0.811626
 O 0.9339 0.39001 0.72179   -0.715768
 O 0.38459 0.30509 0.78873   -0.821897
 O 0.43472 0.3958 0.75896   -0.695811
 O 0.02331 0.57265 0.86073   -0.450606
 O 0.13496 0.57598 0.6351   -0.439189
 O 0.77951 0.29415 0.79903   -0.811563
 O 0.65569 0.27821 0.89001   -0.714083
 O 0.17332 0.21127 0.80509   -0.822353
 O 0.19368 0.24104 0.8958   -0.69651
 O 0.88404 0.13927 0.07265   -0.450421
 O 0.77006 0.3649 0.07598   -0.442082
 O 0.37269 0.20585 0.70097   -0.810671
 O 0.32391 0.22179 0.60999   -0.714311
 O 0.68968 0.28873 0.69491   -0.822177
 O 0.83052 0.25896 0.6042   -0.697059
 O 0.59596 0.36073 0.42735   -0.451858
 O 0.71094 0.1351 0.42402   -0.440271
 O 0.42146 0.79903 0.20585   -0.810995
 O 0.4543 0.89001 0.22179   -0.711293
 O 0.02159 0.80509 0.28873   -0.821547
 O 0.91052 0.8958 0.25896   -0.694487
 O 0.04331 0.07265 0.36073   -0.451376
 O 0.15396 0.07598 0.1351   -0.440175
 O 0.92634 0.70097 0.29415   -0.811626
 O 0.0661 0.60999 0.27821   -0.715768
 O 0.61541 0.69491 0.21127   -0.821897
 O 0.56528 0.6042 0.24104   -0.695811
 O 0.97669 0.42735 0.13927   -0.450606
 O 0.86504 0.42402 0.3649   -0.439189
 O 0.22049 0.70585 0.20097   -0.811563
 O 0.34431 0.72179 0.10999   -0.714083
 O 0.82668 0.78873 0.19491   -0.822353
 O 0.80632 0.75896 0.1042   -0.69651
 O 0.11596 0.86073 0.92735   -0.450421
 O 0.22994 0.6351 0.92402   -0.442082
 O 0.62731 0.79415 0.29903   -0.810671
 O 0.67609 0.77821 0.39001   -0.714311
 O 0.31032 0.71127 0.30509   -0.822177
 O 0.16948 0.74104 0.3958   -0.697059
 O 0.40404 0.63927 0.57265   -0.451858
 O 0.28906 0.8649 0.57598   -0.440271
