{'_ref': 'TBD', '_srcid': 'CAKYAQ_clean', 'submitters': [{'name': 'Dalar Nazarian Jeff Camp and David Sholl', 'email': 'dalar@gatech.edu jcamp6@gatech.edu'}], '_method': 'VASP DFT with PBE;DDEC'}
data_Zn5H22(C21O10)2
_symmetry_space_group_name_H-M   'P 1'
_cell_length_a   6.31079991
_cell_length_b   12.63899967
_cell_length_c   15.63100000
_cell_angle_alpha   95.72300129
_cell_angle_beta   99.87800018
_cell_angle_gamma   97.86000010
_symmetry_Int_Tables_number   1
_chemical_formula_structural   Zn5H22(C21O10)2
_chemical_formula_sum   'Zn5 H22 C42 O20'
_cell_volume   1207.00956485
_cell_formula_units_Z   1
loop_
 _symmetry_equiv_pos_site_id
 _symmetry_equiv_pos_as_xyz
  1  'x, y, z'
loop_
 _atom_site_label
 _atom_site_fract_x
 _atom_site_fract_y
 _atom_site_fract_z
 _atom_site_charge
 Zn 0.47996 0.04582 0.89945   1.111092
 Zn 0.94143 0.03806 0.81373   1.02104
 Zn 0.52004 0.95418 0.10055   1.111092
 Zn 0.05857 0.96194 0.18627   1.02104
 Zn 0.0 0.0 0.0   1.045368
 H 0.8163 0.2699 0.6442   0.138135
 H 0.4229 0.4868 0.5888   0.147111
 H 0.3561 0.3171 0.7882   0.153181
 H 0.5323 0.5766 0.7958   0.123729
 H 0.5443 0.729 0.8919   0.11476
 H 0.8946 0.6939 0.8419   0.101897
 H 0.8812 0.542 0.7451   0.120071
 H 0.4507 0.2528 0.4577   0.129412
 H 0.4778 0.1285 0.3439   0.102957
 H 0.1039 0.2545 0.3645   0.093454
 H 0.0675 0.3839 0.4733   0.121938
 H 0.1837 0.7301 0.3558   0.138135
 H 0.5771 0.5132 0.4112   0.147112
 H 0.6439 0.6829 0.2118   0.153181
 H 0.4677 0.4234 0.2042   0.123729
 H 0.4557 0.271 0.1081   0.11476
 H 0.1054 0.3061 0.1581   0.101898
 H 0.1188 0.458 0.2549   0.120072
 H 0.5493 0.7472 0.5423   0.129413
 H 0.5222 0.8715 0.6561   0.102957
 H 0.8961 0.7455 0.6355   0.093456
 H 0.9325 0.6161 0.5267   0.121939
 C 0.6694 0.19568 0.77999   0.694185
 C 0.5978 0.27978 0.72433   -0.041734
 C 0.7016 0.30447 0.65588   -0.20395
 C 0.6328 0.38064 0.6056   0.291699
 C 0.4661 0.43428 0.6226   -0.30316
 C 0.3649 0.4087 0.69037   0.28626
 C 0.4263 0.33292 0.74225   -0.200244
 C 0.2063 0.54458 0.76105   0.314398
 C 0.4038 0.60027 0.80483   -0.271456
 C 0.4104 0.69154 0.86234   0.048272
 C 0.2205 0.72815 0.87672   -0.177408
 C 0.0234 0.67075 0.83253   0.017823
 C 0.0149 0.5797 0.77476   -0.241072
 C 0.2251 0.82723 0.93664   0.661712
 C 0.7559 0.32948 0.47562   0.292258
 C 0.5817 0.2537 0.43795   -0.250486
 C 0.5988 0.1785 0.37087   0.025415
 C 0.7956 0.17665 0.34299   -0.180699
 C 0.9708 0.2543 0.38241   0.008246
 C 0.9499 0.3311 0.44794   -0.221726
 C 0.8175 0.09368 0.27158   0.69484
 C 0.3306 0.80432 0.22001   0.694184
 C 0.4022 0.72022 0.27567   -0.041735
 C 0.2984 0.69553 0.34412   -0.20395
 C 0.3672 0.61936 0.3944   0.291699
 C 0.5339 0.56572 0.3774   -0.303161
 C 0.6351 0.5913 0.30963   0.28626
 C 0.5737 0.66708 0.25775   -0.200244
 C 0.7937 0.45542 0.23895   0.314398
 C 0.5962 0.39973 0.19517   -0.271455
 C 0.5896 0.30846 0.13766   0.048272
 C 0.7795 0.27185 0.12328   -0.177409
 C 0.9766 0.32925 0.16747   0.017821
 C 0.9851 0.4203 0.22524   -0.241073
 C 0.7749 0.17277 0.06336   0.661711
 C 0.2441 0.67052 0.52438   0.292258
 C 0.4183 0.7463 0.56205   -0.250486
 C 0.4012 0.8215 0.62913   0.025415
 C 0.2044 0.82335 0.65701   -0.180701
 C 0.0292 0.7457 0.61759   0.008245
 C 0.0501 0.6689 0.55206   -0.221726
 C 0.1825 0.90632 0.72842   0.694839
 O 0.7499 0.98124 0.89217   -0.660528
 O 0.1861 0.08209 0.91391   -0.681761
 O 0.5797 0.18061 0.84367   -0.574958
 O 0.8174 0.14819 0.75734   -0.583818
 O 0.1819 0.45429 0.70266   -0.234236
 O 0.0482 0.84941 0.95237   -0.499742
 O 0.409 0.88502 0.96788   -0.588455
 O 0.7397 0.41092 0.53903   -0.261432
 O 0.6472 0.04594 0.22278   -0.580445
 O 0.0072 0.0779 0.26538   -0.579257
 O 0.2501 0.01876 0.10783   -0.660528
 O 0.8139 0.91791 0.08609   -0.681761
 O 0.4203 0.81939 0.15633   -0.574958
 O 0.1826 0.85181 0.24266   -0.583818
 O 0.8181 0.54571 0.29734   -0.234236
 O 0.9518 0.15059 0.04763   -0.499741
 O 0.591 0.11498 0.03212   -0.588455
 O 0.2603 0.58908 0.46097   -0.261432
 O 0.3528 0.95406 0.77722   -0.580445
 O 0.9928 0.9221 0.73462   -0.579257
