{'_ref': 'TBD', '_srcid': 'CAKYAQ_clean', 'submitters': [{'name': 'Dalar Nazarian Jeff Camp and David Sholl', 'email': 'dalar@gatech.edu jcamp6@gatech.edu'}], '_method': 'VASP DFT with PBE;DDEC'}
data_MnH8C19(NO3)2
_symmetry_space_group_name_H-M   'P 1'
_cell_length_a   5.01690000
_cell_length_b   20.69490024
_cell_length_c   24.98510000
_cell_angle_alpha   90.00000000
_cell_angle_beta   90.00000000
_cell_angle_gamma   95.72100070
_symmetry_Int_Tables_number   1
_chemical_formula_structural   MnH8C19(NO3)2
_chemical_formula_sum   'Mn4 H32 C76 N8 O24'
_cell_volume   2581.13839348
_cell_formula_units_Z   4
loop_
 _symmetry_equiv_pos_site_id
 _symmetry_equiv_pos_as_xyz
  1  'x, y, z'
loop_
 _atom_site_label
 _atom_site_fract_x
 _atom_site_fract_y
 _atom_site_fract_z
 _atom_site_charge
 Mn 0.17934 0.06154 0.96045   1.14777
 Mn 0.32066 0.43846 0.46045   1.14777
 Mn 0.82066 0.93846 0.03955   1.14777
 Mn 0.67934 0.56154 0.53955   1.14777
 H 0.6816 0.3416 0.4024   0.095696
 H 0.6917 0.2792 0.3245   0.156582
 H 0.0799 0.3698 0.2632   0.154775
 H 0.0697 0.4322 0.3411   0.095563
 H 0.94 0.3127 0.1226   0.113503
 H 0.998 0.2438 0.0512   0.120619
 H 0.0146 0.0432 0.1407   0.105529
 H 0.9358 0.1177 0.206   0.108911
 H 0.8184 0.1584 0.9024   0.095697
 H 0.8083 0.2208 0.8245   0.156582
 H 0.4201 0.1302 0.7632   0.154775
 H 0.4303 0.0678 0.8411   0.095563
 H 0.56 0.1873 0.6226   0.113503
 H 0.502 0.2562 0.5512   0.120619
 H 0.4854 0.4568 0.6407   0.105529
 H 0.5642 0.3823 0.706   0.108911
 H 0.3184 0.6584 0.5976   0.095696
 H 0.3083 0.7208 0.6755   0.156582
 H 0.9201 0.6302 0.7368   0.154776
 H 0.9303 0.5678 0.6589   0.095563
 H 0.06 0.6873 0.8774   0.113502
 H 0.002 0.7562 0.9488   0.120619
 H 0.9854 0.9568 0.8593   0.105529
 H 0.0642 0.8823 0.794   0.108911
 H 0.1816 0.8416 0.0976   0.095697
 H 0.1917 0.7792 0.1755   0.156582
 H 0.5799 0.8698 0.2368   0.154776
 H 0.5697 0.9322 0.1589   0.095563
 H 0.44 0.8127 0.3774   0.113502
 H 0.498 0.7438 0.4488   0.120619
 H 0.5146 0.5432 0.3593   0.105529
 H 0.4358 0.6177 0.294   0.108911
 C 0.5594 0.3473 0.3742   0.18696
 C 0.5654 0.3102 0.3279   -0.220052
 C 0.387 0.3186 0.2865   0.250476
 C 0.202 0.364 0.2915   -0.216526
 C 0.196 0.4011 0.3378   0.179833
 C 0.589 0.3003 0.2016   0.519841
 C 0.62 0.2572 0.1547   -0.183704
 C 0.4528 0.1985 0.1495   0.081883
 C 0.247 0.1842 0.1869   -0.19927
 C 0.2 0.2278 0.2319   0.524153
 C 0.825 0.2736 0.1185   -0.014309
 C 0.859 0.2321 0.0763   -0.08634
 C 0.7 0.1741 0.0691   -0.086793
 C 0.4996 0.1555 0.1066   0.047863
 C 0.3335 0.0953 0.1062   -0.074719
 C 0.1268 0.0829 0.1429   -0.090954
 C 0.082 0.1267 0.182   0.00952
 C 0.3933 0.0372 0.0726   0.697365
 C 0.7493 0.1393 0.0175   0.712623
 C 0.9406 0.1527 0.8742   0.18696
 C 0.9346 0.1898 0.8279   -0.220052
 C 0.113 0.1814 0.7865   0.250476
 C 0.298 0.136 0.7915   -0.216526
 C 0.304 0.0989 0.8378   0.179833
 C 0.911 0.1997 0.7016   0.519841
 C 0.88 0.2428 0.6547   -0.183704
 C 0.0472 0.3015 0.6495   0.081883
 C 0.253 0.3158 0.6869   -0.19927
 C 0.3 0.2722 0.7319   0.524153
 C 0.675 0.2264 0.6185   -0.014309
 C 0.641 0.2679 0.5763   -0.08634
 C 0.8 0.3259 0.5691   -0.086793
 C 0.000399999999999 0.3445 0.6066   0.047863
 C 0.1665 0.4047 0.6062   -0.074719
 C 0.3732 0.4171 0.6429   -0.090954
 C 0.418 0.3733 0.682   0.00952
 C 0.1067 0.4628 0.5726   0.697365
 C 0.7507 0.3607 0.5175   0.712623
 C 0.4406 0.6527 0.6258   0.18696
 C 0.4346 0.6898 0.6721   -0.220052
 C 0.613 0.6814 0.7135   0.250476
 C 0.798 0.636 0.7085   -0.216526
 C 0.804 0.5989 0.6622   0.179833
 C 0.411 0.6997 0.7984   0.519841
 C 0.38 0.7428 0.8453   -0.183704
 C 0.5472 0.8015 0.8505   0.081883
 C 0.753 0.8158 0.8131   -0.19927
 C 0.8 0.7722 0.7681   0.524153
 C 0.175 0.7264 0.8815   -0.014309
 C 0.141 0.7679 0.9237   -0.08634
 C 0.3 0.8259 0.9309   -0.086793
 C 0.5004 0.8445 0.8934   0.047863
 C 0.6665 0.9047 0.8938   -0.074719
 C 0.8732 0.9171 0.8571   -0.090953
 C 0.918 0.8733 0.818   0.00952
 C 0.6067 0.9628 0.9274   0.697365
 C 0.2507 0.8607 0.9825   0.712623
 C 0.0594 0.8473 0.1258   0.18696
 C 0.0654 0.8102 0.1721   -0.220052
 C 0.887 0.8186 0.2135   0.250476
 C 0.702 0.864 0.2085   -0.216526
 C 0.696 0.9011 0.1622   0.179833
 C 0.089 0.8003 0.2984   0.519841
 C 0.12 0.7572 0.3453   -0.183704
 C 0.9528 0.6985 0.3505   0.081883
 C 0.747 0.6842 0.3131   -0.19927
 C 0.7 0.7278 0.2681   0.524153
 C 0.325 0.7736 0.3815   -0.014309
 C 0.359 0.7321 0.4237   -0.08634
 C 0.2 0.6741 0.4309   -0.086793
 C 0.9996 0.6555 0.3934   0.047863
 C 0.8335 0.5953 0.3938   -0.074719
 C 0.6268 0.5829 0.3571   -0.090953
 C 0.582 0.6267 0.318   0.00952
 C 0.8933 0.5372 0.4274   0.697365
 C 0.2493 0.6393 0.4825   0.712623
 N 0.3747 0.3928 0.3791   -0.419884
 N 0.3943 0.2808 0.2372   -0.23927
 N 0.1253 0.1072 0.8791   -0.419884
 N 0.1057 0.2192 0.7372   -0.23927
 N 0.6253 0.6072 0.6209   -0.419884
 N 0.6057 0.7192 0.7628   -0.23927
 N 0.8747 0.8928 0.1209   -0.419884
 N 0.8943 0.7808 0.2628   -0.23927
 O 0.2143 0.0096 0.042   -0.66672
 O 0.62 0.0187 0.0796   -0.579915
 O 0.5525 0.1218 0.9887   -0.64628
 O 0.9851 0.1363 0.006   -0.605223
 O 0.7349 0.3513 0.2069   -0.499387
 O 0.0166 0.218 0.2639   -0.480119
 O 0.2857 0.4904 0.542   -0.66672
 O 0.88 0.4813 0.5796   -0.579915
 O 0.9475 0.3782 0.4887   -0.64628
 O 0.5149 0.3637 0.506   -0.605223
 O 0.7651 0.1487 0.7069   -0.499387
 O 0.4834 0.282 0.7639   -0.480119
 O 0.7857 0.9904 0.958   -0.66672
 O 0.38 0.9813 0.9204   -0.579915
 O 0.4475 0.8782 0.0113   -0.64628
 O 0.0149 0.8637 0.994   -0.605223
 O 0.2651 0.6487 0.7931   -0.499387
 O 0.9834 0.782 0.7361   -0.480119
 O 0.7143 0.5096 0.458   -0.66672
 O 0.12 0.5187 0.4204   -0.579915
 O 0.0525 0.6218 0.5113   -0.64628
 O 0.4851 0.6363 0.494   -0.605223
 O 0.2349 0.8513 0.2931   -0.499387
 O 0.5166 0.718 0.2361   -0.480119
