{'_ref': 'TBD', '_srcid': 'CAKYAQ_clean', 'submitters': [{'name': 'Dalar Nazarian Jeff Camp and David Sholl', 'email': 'dalar@gatech.edu jcamp6@gatech.edu'}], '_method': 'VASP DFT with PBE;DDEC'}
data_ZnH8C19(NO3)2
_symmetry_space_group_name_H-M   'P 1'
_cell_length_a   5.61370000
_cell_length_b   17.14989964
_cell_length_c   26.37690000
_cell_angle_alpha   90.00000000
_cell_angle_beta   90.00000000
_cell_angle_gamma   96.81999871
_symmetry_Int_Tables_number   1
_chemical_formula_structural   ZnH8C19(NO3)2
_chemical_formula_sum   'Zn4 H32 C76 N8 O24'
_cell_volume   2521.45136764
_cell_formula_units_Z   4
loop_
 _symmetry_equiv_pos_site_id
 _symmetry_equiv_pos_as_xyz
  1  'x, y, z'
loop_
 _atom_site_label
 _atom_site_fract_x
 _atom_site_fract_y
 _atom_site_fract_z
 _atom_site_charge
 Zn 0.10949 0.57242 0.5283   0.942857
 Zn 0.89051 0.92758 0.0283   0.942857
 Zn 0.89051 0.42758 0.4717   0.942857
 Zn 0.10949 0.07242 0.9717   0.942857
 H 0.4717 0.8969 0.1001   0.085226
 H 0.3963 0.8322 0.1772   0.156915
 H 0.9867 0.7223 0.1541   0.161471
 H 0.0475 0.7908 0.0786   0.095635
 H 0.123 0.5743 0.2625   0.112178
 H 0.0687 0.514 0.3423   0.121555
 H 0.0509 0.7205 0.4206   0.129518
 H 0.0879 0.7831 0.3419   0.11263
 H 0.5283 0.6031 0.6001   0.085226
 H 0.6037 0.6678 0.6772   0.156915
 H 0.0133 0.7777 0.6541   0.161471
 H 0.9525 0.7092 0.5786   0.095634
 H 0.877 0.9257 0.7625   0.112178
 H 0.9313 0.986 0.8423   0.121555
 H 0.9491 0.7795 0.9206   0.129517
 H 0.9121 0.7169 0.8419   0.11263
 H 0.5283 0.1031 0.8999   0.085226
 H 0.6037 0.1678 0.8228   0.156915
 H 0.0133 0.2777 0.8459   0.16147
 H 0.9525 0.2092 0.9214   0.095635
 H 0.877 0.4257 0.7375   0.112179
 H 0.9313 0.486 0.6577   0.121555
 H 0.9491 0.2795 0.5794   0.129518
 H 0.9121 0.2169 0.6581   0.112631
 H 0.4717 0.3969 0.3999   0.085226
 H 0.3963 0.3322 0.3228   0.156915
 H 0.9867 0.2223 0.3459   0.16147
 H 0.0475 0.2908 0.4214   0.095634
 H 0.123 0.0743 0.2375   0.112179
 H 0.0687 0.014 0.1577   0.121555
 H 0.0509 0.2205 0.0794   0.129516
 H 0.0879 0.2831 0.1581   0.112631
 C 0.5787 0.8619 0.11172   0.195021
 C 0.5327 0.8235 0.15761   -0.242256
 C 0.6886 0.7726 0.17432   0.267813
 C 0.881 0.7588 0.14415   -0.235295
 C 0.9147 0.7995 0.09932   0.182088
 C 0.4522 0.6811 0.23031   0.532368
 C 0.4262 0.6442 0.28075   -0.175814
 C 0.5958 0.6644 0.31919   0.075296
 C 0.7954 0.7211 0.30982   -0.189638
 C 0.8325 0.7573 0.25939   0.531352
 C 0.2344 0.5885 0.28902   -0.010773
 C 0.2023 0.5525 0.33679   -0.079634
 C 0.3624 0.5722 0.37584   -0.095943
 C 0.5684 0.6271 0.36783   0.050536
 C 0.7516 0.6473 0.40461   -0.077987
 C 0.9366 0.7055 0.39481   -0.08963
 C 0.9596 0.7428 0.34783   -0.002122
 C 0.2818 0.5408 0.42707   0.660149
 C 0.7844 0.5984 0.45094   0.668859
 C 0.4213 0.6381 0.61172   0.195021
 C 0.4673 0.6765 0.65761   -0.242256
 C 0.3114 0.7274 0.67432   0.267813
 C 0.119 0.7412 0.64415   -0.235295
 C 0.0853 0.7005 0.59932   0.182088
 C 0.5478 0.8189 0.73031   0.532368
 C 0.5738 0.8558 0.78075   -0.175814
 C 0.4042 0.8356 0.81919   0.075296
 C 0.2046 0.7789 0.80982   -0.189638
 C 0.1675 0.7427 0.75939   0.531352
 C 0.7656 0.9115 0.78902   -0.010773
 C 0.7977 0.9475 0.83679   -0.079634
 C 0.6376 0.9278 0.87584   -0.095943
 C 0.4316 0.8729 0.86783   0.050536
 C 0.2484 0.8527 0.90461   -0.077987
 C 0.0634 0.7945 0.89481   -0.08963
 C 0.0404 0.7572 0.84783   -0.002122
 C 0.7182 0.9592 0.92707   0.660149
 C 0.2156 0.9016 0.95094   0.668859
 C 0.4213 0.1381 0.88828   0.195021
 C 0.4673 0.1765 0.84239   -0.242256
 C 0.3114 0.2274 0.82568   0.267813
 C 0.119 0.2412 0.85585   -0.235294
 C 0.0853 0.2005 0.90068   0.182088
 C 0.5478 0.3189 0.76969   0.532369
 C 0.5738 0.3558 0.71925   -0.175814
 C 0.4042 0.3356 0.68081   0.075296
 C 0.2046 0.2789 0.69018   -0.189638
 C 0.1675 0.2427 0.74061   0.531353
 C 0.7656 0.4115 0.71098   -0.010773
 C 0.7977 0.4475 0.66321   -0.079634
 C 0.6376 0.4278 0.62416   -0.095943
 C 0.4316 0.3729 0.63217   0.050536
 C 0.2484 0.3527 0.59539   -0.077987
 C 0.0634 0.2945 0.60519   -0.08963
 C 0.0404 0.2572 0.65217   -0.002122
 C 0.7182 0.4592 0.57293   0.660149
 C 0.2156 0.4016 0.54906   0.668859
 C 0.5787 0.3619 0.38828   0.195021
 C 0.5327 0.3235 0.34239   -0.242256
 C 0.6886 0.2726 0.32568   0.267813
 C 0.881 0.2588 0.35585   -0.235294
 C 0.9147 0.2995 0.40068   0.182088
 C 0.4522 0.1811 0.26969   0.532369
 C 0.4262 0.1442 0.21925   -0.175814
 C 0.5958 0.1644 0.18081   0.075296
 C 0.7954 0.2211 0.19018   -0.189638
 C 0.8325 0.2573 0.24061   0.531353
 C 0.2344 0.0885 0.21098   -0.010773
 C 0.2023 0.0525 0.16321   -0.079634
 C 0.3624 0.0722 0.12416   -0.095943
 C 0.5684 0.1271 0.13217   0.050536
 C 0.7516 0.1473 0.09539   -0.077987
 C 0.9366 0.2055 0.10519   -0.08963
 C 0.9596 0.2428 0.15217   -0.002122
 C 0.2818 0.0408 0.07293   0.660149
 C 0.7844 0.0984 0.04906   0.668859
 N 0.769 0.8509 0.08346   -0.326684
 N 0.6568 0.7359 0.22312   -0.265733
 N 0.231 0.6491 0.58346   -0.326684
 N 0.3432 0.7641 0.72312   -0.265733
 N 0.231 0.1491 0.91654   -0.326684
 N 0.3432 0.2641 0.77688   -0.265733
 N 0.769 0.3509 0.41654   -0.326684
 N 0.6568 0.2359 0.27688   -0.265733
 O 0.3021 0.58903 0.46379   -0.565472
 O 0.1816 0.47165 0.42854   -0.585044
 O 0.7486 0.52545 0.44509   -0.595715
 O 0.8687 0.63347 0.48978   -0.58276
 O 0.3112 0.6665 0.19617   -0.476158
 O 0.0031 0.8045 0.24899   -0.484808
 O 0.6979 0.91097 0.96379   -0.565472
 O 0.8184 0.02835 0.92854   -0.585044
 O 0.2514 0.97455 0.94509   -0.595715
 O 0.1313 0.86653 0.98978   -0.58276
 O 0.6888 0.8335 0.69617   -0.476158
 O 0.9969 0.6955 0.74899   -0.484808
 O 0.6979 0.41097 0.53621   -0.565473
 O 0.8184 0.52835 0.57146   -0.585044
 O 0.2514 0.47455 0.55491   -0.595715
 O 0.1313 0.36653 0.51022   -0.58276
 O 0.6888 0.3335 0.80383   -0.476158
 O 0.9969 0.1955 0.75101   -0.484808
 O 0.3021 0.08903 0.03621   -0.565472
 O 0.1816 0.97165 0.07146   -0.585044
 O 0.7486 0.02545 0.05491   -0.595715
 O 0.8687 0.13347 0.01022   -0.58276
 O 0.3112 0.1665 0.30383   -0.476158
 O 0.0031 0.3045 0.25101   -0.484808
