{'_ref': 'TBD', '_srcid': 'CAKYAQ_clean', 'submitters': [{'name': 'Dalar Nazarian Jeff Camp and David Sholl', 'email': 'dalar@gatech.edu jcamp6@gatech.edu'}], '_method': 'VASP DFT with PBE;DDEC'}
data_ZnH8C19(NO3)2
_symmetry_space_group_name_H-M   'P 1'
_cell_length_a   5.57970000
_cell_length_b   16.79310013
_cell_length_c   25.92310000
_cell_angle_alpha   90.00000000
_cell_angle_beta   90.00000000
_cell_angle_gamma   98.57500079
_symmetry_Int_Tables_number   1
_chemical_formula_structural   ZnH8C19(NO3)2
_chemical_formula_sum   'Zn4 H32 C76 N8 O24'
_cell_volume   2401.85384511
_cell_formula_units_Z   4
loop_
 _symmetry_equiv_pos_site_id
 _symmetry_equiv_pos_as_xyz
  1  'x, y, z'
loop_
 _atom_site_label
 _atom_site_fract_x
 _atom_site_fract_y
 _atom_site_fract_z
 _atom_site_charge
 Zn 0.11923 0.57962 0.52087   0.938074
 Zn 0.88077 0.92038 0.02087   0.938074
 Zn 0.88077 0.42038 0.47913   0.938074
 Zn 0.11923 0.07962 0.97913   0.938074
 H 0.4479 0.8719 0.0884   0.087398
 H 0.3821 0.7982 0.1647   0.158759
 H 0.9565 0.6869 0.1286   0.164609
 H 0.01 0.7649 0.0543   0.095376
 H 0.1169 0.5312 0.2497   0.112894
 H 0.0586 0.4792 0.3338   0.120933
 H 0.0634 0.7011 0.4045   0.126453
 H 0.1052 0.7544 0.3214   0.109978
 H 0.5521 0.6281 0.5884   0.087398
 H 0.6179 0.7018 0.6647   0.158759
 H 0.0435 0.8131 0.6286   0.164609
 H 0.99 0.7351 0.5543   0.095375
 H 0.8831 0.9688 0.7497   0.112894
 H 0.9414 0.0208 0.8338   0.120933
 H 0.9366 0.7989 0.9045   0.126452
 H 0.8948 0.7456 0.8214   0.109978
 H 0.5521 0.1281 0.9116   0.087398
 H 0.6179 0.2018 0.8353   0.158759
 H 0.0435 0.3131 0.8714   0.164607
 H 0.99 0.2351 0.9457   0.095375
 H 0.8831 0.4688 0.7503   0.112895
 H 0.9414 0.5208 0.6662   0.120933
 H 0.9366 0.2989 0.5955   0.126452
 H 0.8948 0.2456 0.6786   0.109979
 H 0.4479 0.3719 0.4116   0.087398
 H 0.3821 0.2982 0.3353   0.158759
 H 0.9565 0.1869 0.3714   0.164607
 H 0.01 0.2649 0.4457   0.095374
 H 0.1169 0.0312 0.2503   0.112895
 H 0.0586 0.9792 0.1662   0.120933
 H 0.0634 0.2011 0.0955   0.126452
 H 0.1052 0.2544 0.1786   0.109979
 C 0.5547 0.8351 0.09746   0.194852
 C 0.5144 0.7917 0.14281   -0.238576
 C 0.6723 0.7389 0.15528   0.266994
 C 0.8544 0.7261 0.1216   -0.239136
 C 0.8832 0.7722 0.07747   0.188148
 C 0.4461 0.6426 0.21341   0.531724
 C 0.4245 0.6069 0.26594   -0.178891
 C 0.5976 0.6322 0.30421   0.075876
 C 0.8022 0.6892 0.29248   -0.18491
 C 0.8364 0.7241 0.23998   0.52538
 C 0.2285 0.5499 0.27632   -0.010966
 C 0.1938 0.5192 0.32672   -0.076723
 C 0.3518 0.5459 0.36575   -0.097404
 C 0.5656 0.60064 0.35535   0.052645
 C 0.7501 0.6268 0.39232   -0.083548
 C 0.9443 0.6832 0.37921   -0.084357
 C 0.9704 0.7149 0.32956   -0.003545
 C 0.2639 0.5239 0.41971   0.665657
 C 0.7739 0.586 0.44373   0.666683
 C 0.4453 0.6649 0.59746   0.194852
 C 0.4856 0.7083 0.64281   -0.238576
 C 0.3277 0.7611 0.65528   0.266994
 C 0.1456 0.7739 0.6216   -0.239136
 C 0.1168 0.7278 0.57747   0.188148
 C 0.5539 0.8574 0.71341   0.531724
 C 0.5755 0.8931 0.76594   -0.178891
 C 0.4024 0.8678 0.80421   0.075876
 C 0.1978 0.8108 0.79248   -0.18491
 C 0.1636 0.7759 0.73998   0.52538
 C 0.7715 0.9501 0.77632   -0.010966
 C 0.8062 0.9808 0.82672   -0.076723
 C 0.6482 0.9541 0.86575   -0.097404
 C 0.4344 0.89936 0.85535   0.052645
 C 0.2499 0.8732 0.89232   -0.083548
 C 0.0557 0.8168 0.87921   -0.084357
 C 0.0296 0.7851 0.82956   -0.003545
 C 0.7361 0.9761 0.91971   0.665657
 C 0.2261 0.914 0.94373   0.666683
 C 0.4453 0.1649 0.90254   0.194852
 C 0.4856 0.2083 0.85719   -0.238576
 C 0.3277 0.2611 0.84472   0.266993
 C 0.1456 0.2739 0.8784   -0.239136
 C 0.1168 0.2278 0.92253   0.188148
 C 0.5539 0.3574 0.78659   0.531725
 C 0.5755 0.3931 0.73406   -0.17889
 C 0.4024 0.3678 0.69579   0.075876
 C 0.1978 0.3108 0.70752   -0.18491
 C 0.1636 0.2759 0.76002   0.52538
 C 0.7715 0.4501 0.72368   -0.010966
 C 0.8062 0.4808 0.67328   -0.076723
 C 0.6482 0.4541 0.63425   -0.097404
 C 0.4344 0.39936 0.64465   0.052645
 C 0.2499 0.3732 0.60768   -0.083548
 C 0.0557 0.3168 0.62079   -0.084357
 C 0.0296 0.2851 0.67044   -0.003545
 C 0.7361 0.4761 0.58029   0.665657
 C 0.2261 0.414 0.55627   0.666683
 C 0.5547 0.3351 0.40254   0.194852
 C 0.5144 0.2917 0.35719   -0.238576
 C 0.6723 0.2389 0.34472   0.266993
 C 0.8544 0.2261 0.3784   -0.239136
 C 0.8832 0.2722 0.42253   0.188148
 C 0.4461 0.1426 0.28659   0.531725
 C 0.4245 0.1069 0.23406   -0.17889
 C 0.5976 0.1322 0.19579   0.075876
 C 0.8022 0.1892 0.20752   -0.18491
 C 0.8364 0.2241 0.26002   0.52538
 C 0.2285 0.0499 0.22368   -0.010966
 C 0.1938 0.0192 0.17328   -0.076723
 C 0.3518 0.0459 0.13425   -0.097404
 C 0.5656 0.10064 0.14465   0.052645
 C 0.7501 0.1268 0.10768   -0.083548
 C 0.9443 0.1832 0.12079   -0.084357
 C 0.9704 0.2149 0.17044   -0.003545
 C 0.2639 0.0239 0.08029   0.665657
 C 0.7739 0.086 0.05627   0.666683
 N 0.7395 0.82687 0.06585   -0.334659
 N 0.6521 0.69965 0.20458   -0.263925
 N 0.2605 0.67313 0.56585   -0.334659
 N 0.3479 0.80035 0.70458   -0.263925
 N 0.2605 0.17313 0.93415   -0.334659
 N 0.3479 0.30035 0.79542   -0.263925
 N 0.7395 0.32687 0.43415   -0.334659
 N 0.6521 0.19965 0.29542   -0.263925
 O 0.2891 0.57993 0.45242   -0.573978
 O 0.1548 0.45465 0.42625   -0.578738
 O 0.7279 0.51054 0.44401   -0.587996
 O 0.8624 0.63006 0.48011   -0.583295
 O 0.299 0.62587 0.17956   -0.47849
 O 0.0108 0.77335 0.22833   -0.483296
 O 0.7109 0.92007 0.95242   -0.573978
 O 0.8452 0.04535 0.92625   -0.578738
 O 0.2721 0.98946 0.94401   -0.587996
 O 0.1376 0.86994 0.98011   -0.583295
 O 0.701 0.87413 0.67956   -0.47849
 O 0.9892 0.72665 0.72833   -0.483296
 O 0.7109 0.42007 0.54758   -0.573978
 O 0.8452 0.54535 0.57375   -0.578738
 O 0.2721 0.48946 0.55599   -0.587995
 O 0.1376 0.36994 0.51989   -0.583295
 O 0.701 0.37413 0.82044   -0.47849
 O 0.9892 0.22665 0.77167   -0.483296
 O 0.2891 0.07993 0.04758   -0.573978
 O 0.1548 0.95465 0.07375   -0.578738
 O 0.7279 0.01054 0.05599   -0.587995
 O 0.8624 0.13006 0.01989   -0.583295
 O 0.299 0.12587 0.32044   -0.47849
 O 0.0108 0.27335 0.27167   -0.483296
