{'_ref': 'TBD', '_srcid': 'CAKYAQ_clean', 'submitters': [{'name': 'Dalar Nazarian Jeff Camp and David Sholl', 'email': 'dalar@gatech.edu jcamp6@gatech.edu'}], '_method': 'VASP DFT with PBE;DDEC'}
data_Y2H15C33(NO5)3
_symmetry_space_group_name_H-M   'P 1'
_cell_length_a   14.45900000
_cell_length_b   20.24300000
_cell_length_c   21.10900000
_cell_angle_alpha   90.00000000
_cell_angle_beta   90.00000000
_cell_angle_gamma   90.00000000
_symmetry_Int_Tables_number   1
_chemical_formula_structural   Y2H15C33(NO5)3
_chemical_formula_sum   'Y8 H60 C132 N12 O60'
_cell_volume   6178.46787253
_cell_formula_units_Z   4
loop_
 _symmetry_equiv_pos_site_id
 _symmetry_equiv_pos_as_xyz
  1  'x, y, z'
loop_
 _atom_site_label
 _atom_site_fract_x
 _atom_site_fract_y
 _atom_site_fract_z
 _atom_site_charge
 Y 0.05131 0.18107 0.90305   2.09116
 Y 0.80211 0.34888 0.93386   2.100638
 Y 0.44869 0.81893 0.40305   2.09116
 Y 0.69789 0.65112 0.43386   2.100638
 Y 0.94869 0.68107 0.59695   2.09116
 Y 0.19789 0.84888 0.56614   2.100638
 Y 0.55131 0.31893 0.09695   2.09116
 Y 0.30211 0.15112 0.06614   2.100638
 H 0.6942 0.9465 0.9167   0.308412
 H 0.5565 0.8381 0.7892   0.313186
 H 0.6497 0.715 0.1031   0.308558
 H 0.6779 0.2108 0.9944   0.081652
 H 0.553 0.0343 0.011   0.132686
 H 0.799 0.0482 0.9233   0.132653
 H 0.6338 0.8054 0.0558   0.099627
 H 0.5854 0.6777 0.914   0.11595
 H 0.6214 0.87 0.8759   0.085053
 H 0.4498 0.8306 0.6925   0.128639
 H 0.5734 0.7601 0.5368   0.07805
 H 0.6957 0.7439 0.7061   0.132877
 H 0.6455 0.6841 0.2129   0.12946
 H 0.6269 0.4921 0.2594   0.123669
 H 0.6079 0.5476 0.0771   0.133007
 H 0.8058 0.0535 0.4167   0.308412
 H 0.9435 0.1619 0.2892   0.313186
 H 0.8503 0.285 0.6031   0.308558
 H 0.8221 0.7892 0.4944   0.081652
 H 0.947 0.9657 0.511   0.132686
 H 0.701 0.9518 0.4233   0.132653
 H 0.8662 0.1946 0.5558   0.099627
 H 0.9146 0.3223 0.414   0.11595
 H 0.8786 0.13 0.3759   0.085053
 H 0.0502 0.1694 0.1925   0.128639
 H 0.9266 0.2399 0.0368   0.07805
 H 0.8043 0.2561 0.2061   0.132877
 H 0.8545 0.3159 0.7129   0.12946
 H 0.8731 0.5079 0.7594   0.123669
 H 0.8921 0.4524 0.5771   0.133007
 H 0.3058 0.4465 0.5833   0.308412
 H 0.4435 0.3381 0.7108   0.313186
 H 0.3503 0.215 0.3969   0.308558
 H 0.3221 0.7108 0.5056   0.081652
 H 0.447 0.5343 0.489   0.132686
 H 0.201 0.5482 0.5767   0.132653
 H 0.3662 0.3054 0.4442   0.099627
 H 0.4146 0.1777 0.586   0.11595
 H 0.3786 0.37 0.6241   0.085053
 H 0.5502 0.3306 0.8075   0.128639
 H 0.4266 0.2601 0.9632   0.07805
 H 0.3043 0.2439 0.7939   0.132877
 H 0.3545 0.1841 0.2871   0.12946
 H 0.3731 0.9921 0.2406   0.123669
 H 0.3921 0.0476 0.4229   0.133007
 H 0.1942 0.5535 0.0833   0.308412
 H 0.0565 0.6619 0.2108   0.313186
 H 0.1497 0.785 0.8969   0.308558
 H 0.1779 0.2892 0.0056   0.081652
 H 0.053 0.4657 0.989   0.132686
 H 0.299 0.4518 0.0767   0.132653
 H 0.1338 0.6946 0.9442   0.099627
 H 0.0854 0.8223 0.086   0.11595
 H 0.1214 0.63 0.1241   0.085053
 H 0.9498 0.6694 0.3075   0.128639
 H 0.0734 0.7399 0.4632   0.07805
 H 0.1957 0.7561 0.2939   0.132877
 H 0.1455 0.8159 0.7871   0.12946
 H 0.1269 0.0079 0.7406   0.123669
 H 0.1079 0.9524 0.9229   0.133007
 C 0.8308 0.1767 0.9326   0.774826
 C 0.7507 0.1358 0.9554   -0.146067
 C 0.6774 0.16552 0.9871   0.008229
 C 0.6033 0.1275 0.0079   -0.165903
 C 0.6026 0.0598 0.997   -0.084016
 C 0.6759 0.03008 0.9653   0.194059
 C 0.7499 0.0681 0.9445   -0.111164
 C 0.5245 0.1573 0.0407   0.83091
 C 0.6409 0.916 0.9939   0.564638
 C 0.6291 0.8482 0.9684   -0.122363
 C 0.6224 0.7967 0.0132   -0.019249
 C 0.5998 0.7351 0.9949   -0.119149
 C 0.5952 0.7208 0.9277   0.019555
 C 0.6053 0.7703 0.8844   -0.119158
 C 0.6191 0.8356 0.9051   -0.064772
 C 0.598 0.7535 0.8165   0.522585
 C 0.5741 0.7885 0.7082   0.197244
 C 0.4995 0.8095 0.6731   -0.124006
 C 0.5 0.7981 0.6065   -0.142842
 C 0.4181 0.8226 0.5689   0.791629
 C 0.5733 0.7675 0.5803   0.018938
 C 0.6469 0.7471 0.615   -0.156653
 C 0.7277 0.7085 0.5876   0.812003
 C 0.6462 0.7579 0.6813   -0.090135
 C 0.5918 0.6761 0.0345   0.504045
 C 0.6267 0.624 0.1374   0.174651
 C 0.638 0.64022 0.2009   -0.138533
 C 0.6381 0.5908 0.24664   -0.107648
 C 0.6269 0.5252 0.2288   -0.014389
 C 0.6155 0.509 0.1653   -0.106302
 C 0.6155 0.5584 0.11959   -0.098429
 C 0.6576 0.6097 0.3128   0.672388
 C 0.5966 0.4412 0.1422   0.666235
 C 0.6692 0.8233 0.4326   0.774826
 C 0.7493 0.8642 0.4554   -0.146067
 C 0.8226 0.83448 0.4871   0.008229
 C 0.8967 0.8725 0.5079   -0.165903
 C 0.8974 0.9402 0.497   -0.084016
 C 0.8241 0.96992 0.4653   0.194059
 C 0.7501 0.9319 0.4445   -0.111164
 C 0.9755 0.8427 0.5407   0.83091
 C 0.8591 0.084 0.4939   0.564638
 C 0.8709 0.1518 0.4684   -0.122363
 C 0.8776 0.2033 0.5132   -0.019249
 C 0.9002 0.2649 0.4949   -0.119149
 C 0.9048 0.2792 0.4277   0.019555
 C 0.8947 0.2297 0.3844   -0.119158
 C 0.8809 0.1644 0.4051   -0.064772
 C 0.902 0.2465 0.3165   0.522585
 C 0.9259 0.2115 0.2082   0.197243
 C 0.000500000000002 0.1905 0.1731   -0.124006
 C 0.0 0.2019 0.1065   -0.142842
 C 0.0819 0.1774 0.0689   0.791629
 C 0.9267 0.2325 0.0803   0.018938
 C 0.8531 0.2529 0.115   -0.156653
 C 0.7723 0.2915 0.0876   0.812003
 C 0.8538 0.2421 0.1813   -0.090135
 C 0.9082 0.3239 0.5345   0.504045
 C 0.8733 0.376 0.6374   0.174651
 C 0.862 0.35978 0.7009   -0.138533
 C 0.8619 0.4092 0.74664   -0.107648
 C 0.8731 0.4748 0.7288   -0.014389
 C 0.8845 0.491 0.6653   -0.106302
 C 0.8845 0.4416 0.61959   -0.098429
 C 0.8424 0.3903 0.8128   0.672388
 C 0.9034 0.5588 0.6422   0.666235
 C 0.1692 0.6767 0.5674   0.774826
 C 0.2493 0.6358 0.5446   -0.146067
 C 0.3226 0.66552 0.5129   0.008229
 C 0.3967 0.6275 0.4921   -0.165903
 C 0.3974 0.5598 0.503   -0.084016
 C 0.3241 0.53008 0.5347   0.194059
 C 0.2501 0.5681 0.5555   -0.111164
 C 0.4755 0.6573 0.4593   0.83091
 C 0.3591 0.416 0.5061   0.564638
 C 0.3709 0.3482 0.5316   -0.122363
 C 0.3776 0.2967 0.4868   -0.019249
 C 0.4002 0.2351 0.5051   -0.119149
 C 0.4048 0.2208 0.5723   0.019556
 C 0.3947 0.2703 0.6156   -0.119158
 C 0.3809 0.3356 0.5949   -0.064772
 C 0.402 0.2535 0.6835   0.522585
 C 0.4259 0.2885 0.7918   0.197244
 C 0.5005 0.3095 0.8269   -0.124006
 C 0.5 0.2981 0.8935   -0.142842
 C 0.5819 0.3226 0.9311   0.791629
 C 0.4267 0.2675 0.9197   0.018938
 C 0.3531 0.2471 0.885   -0.156653
 C 0.2723 0.2085 0.9124   0.812003
 C 0.3538 0.2579 0.8187   -0.090135
 C 0.4082 0.1761 0.4655   0.504046
 C 0.3733 0.124 0.3626   0.174651
 C 0.362 0.14022 0.2991   -0.138533
 C 0.3619 0.0908 0.25336   -0.107648
 C 0.3731 0.0252 0.2712   -0.01439
 C 0.3845 0.009 0.3347   -0.106302
 C 0.3845 0.0584 0.38041   -0.098429
 C 0.3424 0.1097 0.1872   0.672388
 C 0.4034 0.9412 0.3578   0.666235
 C 0.3308 0.3233 0.0674   0.774826
 C 0.2507 0.3642 0.0446   -0.146067
 C 0.1774 0.33448 0.0129   0.008229
 C 0.1033 0.3725 0.9921   -0.165903
 C 0.1026 0.4402 0.003   -0.084016
 C 0.1759 0.46992 0.0347   0.194059
 C 0.2499 0.4319 0.0555   -0.111164
 C 0.0245 0.3427 0.9593   0.83091
 C 0.1409 0.584 0.0061   0.564638
 C 0.1291 0.6518 0.0316   -0.122363
 C 0.1224 0.7033 0.9868   -0.019249
 C 0.0998 0.7649 0.0051   -0.119149
 C 0.0952 0.7792 0.0723   0.019556
 C 0.1053 0.7297 0.1156   -0.119158
 C 0.1191 0.6644 0.0949   -0.064772
 C 0.098 0.7465 0.1835   0.522585
 C 0.0741 0.7115 0.2918   0.197243
 C 0.9995 0.6905 0.3269   -0.124006
 C 0.0 0.7019 0.3935   -0.142842
 C 0.9181 0.6774 0.4311   0.791629
 C 0.0733 0.7325 0.4197   0.018938
 C 0.1469 0.7529 0.385   -0.156653
 C 0.2277 0.7915 0.4124   0.812003
 C 0.1462 0.7421 0.3187   -0.090135
 C 0.0918 0.8239 0.9655   0.504046
 C 0.1267 0.876 0.8626   0.174651
 C 0.138 0.85978 0.7991   -0.138533
 C 0.1381 0.9092 0.75336   -0.107648
 C 0.1269 0.9748 0.7712   -0.01439
 C 0.1155 0.991 0.8347   -0.106302
 C 0.1155 0.9416 0.88041   -0.098429
 C 0.1576 0.8903 0.6872   0.672388
 C 0.0966 0.0588 0.8578   0.666235
 N 0.6736 0.9604 0.9525   -0.454338
 N 0.5733 0.8 0.7753   -0.430383
 N 0.6255 0.6782 0.0913   -0.378736
 N 0.8264 0.0396 0.4525   -0.454338
 N 0.9267 0.2 0.2753   -0.430383
 N 0.8745 0.3218 0.5913   -0.378736
 N 0.3264 0.4604 0.5475   -0.454338
 N 0.4267 0.3 0.7247   -0.430383
 N 0.3745 0.1782 0.4087   -0.378736
 N 0.1736 0.5396 0.0475   -0.454338
 N 0.0733 0.7 0.2247   -0.430383
 N 0.1255 0.8218 0.9087   -0.378736
 O 0.9048 0.1462 0.9189   -0.705987
 O 0.8205 0.2394 0.9297   -0.727732
 O 0.5347 0.2137 0.0649   -0.772635
 O 0.4496 0.1268 0.0416   -0.714072
 O 0.6208 0.9316 0.0457   -0.494496
 O 0.3453 0.8321 0.5977   -0.700308
 O 0.4305 0.8266 0.5094   -0.737878
 O 0.7152 0.681 0.5341   -0.772091
 O 0.8015 0.7087 0.618   -0.696461
 O 0.6208 0.6956 0.8001   -0.509329
 O 0.6779 0.5676 0.3545   -0.66484
 O 0.6473 0.6711 0.3295   -0.692421
 O 0.5705 0.396 0.1818   -0.687153
 O 0.6056 0.4284 0.0837   -0.644511
 O 0.5342 0.6278 0.0179   -0.533062
 O 0.5952 0.8538 0.4189   -0.705987
 O 0.6795 0.7606 0.4297   -0.727732
 O 0.9653 0.7863 0.5649   -0.772635
 O 0.0504 0.8732 0.5416   -0.714072
 O 0.8792 0.0684 0.5457   -0.494496
 O 0.1547 0.1679 0.0977   -0.700308
 O 0.0695 0.1734 0.0094   -0.737878
 O 0.7848 0.319 0.0341   -0.772091
 O 0.6985 0.2913 0.118   -0.696461
 O 0.8792 0.3044 0.3001   -0.509329
 O 0.8221 0.4324 0.8545   -0.66484
 O 0.8527 0.3289 0.8295   -0.692421
 O 0.9295 0.604 0.6818   -0.687153
 O 0.8944 0.5716 0.5837   -0.644511
 O 0.9658 0.3722 0.5179   -0.533062
 O 0.0952 0.6462 0.5811   -0.705987
 O 0.1795 0.7394 0.5703   -0.727732
 O 0.4653 0.7137 0.4351   -0.772635
 O 0.5504 0.6268 0.4584   -0.714072
 O 0.3792 0.4316 0.4543   -0.494496
 O 0.6547 0.3321 0.9023   -0.700308
 O 0.5695 0.3266 0.9906   -0.737878
 O 0.2848 0.181 0.9659   -0.772091
 O 0.1985 0.2087 0.882   -0.696461
 O 0.3792 0.1956 0.6999   -0.509329
 O 0.3221 0.0676 0.1455   -0.66484
 O 0.3527 0.1711 0.1705   -0.692421
 O 0.4295 0.896 0.3182   -0.687153
 O 0.3944 0.9284 0.4163   -0.644511
 O 0.4658 0.1278 0.4821   -0.533062
 O 0.4048 0.3538 0.0811   -0.705987
 O 0.3205 0.2606 0.0703   -0.727732
 O 0.0347 0.2863 0.9351   -0.772635
 O 0.9496 0.3732 0.9584   -0.714072
 O 0.1208 0.5684 0.9543   -0.494496
 O 0.8453 0.6679 0.4023   -0.700308
 O 0.9305 0.6734 0.4906   -0.737878
 O 0.2152 0.819 0.4659   -0.772091
 O 0.3015 0.7913 0.382   -0.696461
 O 0.1208 0.8044 0.1999   -0.509329
 O 0.1779 0.9324 0.6455   -0.66484
 O 0.1473 0.8289 0.6705   -0.692421
 O 0.0705 0.104 0.8182   -0.687153
 O 0.1056 0.0716 0.9163   -0.644511
 O 0.0342 0.8722 0.9821   -0.533062
