{'_ref': 'TBD', '_srcid': 'CAKYAQ_clean', 'submitters': [{'name': 'Dalar Nazarian Jeff Camp and David Sholl', 'email': 'dalar@gatech.edu jcamp6@gatech.edu'}], '_method': 'VASP DFT with PBE;DDEC'}
data_CoH24C36(NO)4
_symmetry_space_group_name_H-M   'P 1'
_cell_length_a   10.72500034
_cell_length_b   13.33100022
_cell_length_c   15.26140000
_cell_angle_alpha   65.64100190
_cell_angle_beta   86.00400150
_cell_angle_gamma   74.00699964
_symmetry_Int_Tables_number   1
_chemical_formula_structural   CoH24C36(NO)4
_chemical_formula_sum   'Co2 H48 C72 N8 O8'
_cell_volume   1908.41129628
_cell_formula_units_Z   2
loop_
 _symmetry_equiv_pos_site_id
 _symmetry_equiv_pos_as_xyz
  1  'x, y, z'
loop_
 _atom_site_label
 _atom_site_fract_x
 _atom_site_fract_y
 _atom_site_fract_z
 _atom_site_charge
 Co 0.12862 0.0134 0.58857   0.938759
 Co 0.87138 0.9866 0.41143   0.938763
 H 0.2117 0.7521 0.6978   0.080885
 H 0.1415 0.5998 0.802   0.122498
 H 0.8021 0.8161 0.8018   0.116021
 H 0.8779 0.9664 0.696   0.090564
 H 0.9704 0.5177 0.9033   0.062716
 H 0.8494 0.3964 0.9258   0.118468
 H 0.7545 0.2507 0.0313   0.102752
 H 0.6135 0.2838 0.1413   0.101037
 H 0.4365 0.5877 0.223   0.116723
 H 0.5128 0.7355 0.111   0.096493
 H 0.6581 0.704 0.0046   0.090383
 H 0.3073 0.4703 0.2311   0.043066
 H 0.4605 0.169 0.3537   0.128131
 H 0.3737 0.0386 0.4755   0.086665
 H 0.062 0.2769 0.4653   0.077041
 H 0.1407 0.4135 0.3475   0.1272
 H 0.5096 0.9235 0.7816   0.089427
 H 0.6188 0.9233 0.906   0.099647
 H 0.2865 0.0819 0.9822   0.108802
 H 0.1781 0.0803 0.8541   0.100954
 H 0.4478 0.396 0.4333   0.073019
 H 0.6004 0.235 0.4412   0.095492
 H 0.8447 0.294 0.5855   0.108252
 H 0.6894 0.4573 0.5781   0.093487
 H 0.7883 0.2479 0.3022   0.080885
 H 0.8585 0.4002 0.198   0.1225
 H 0.1979 0.1839 0.1982   0.116021
 H 0.1221 0.0336 0.304   0.090564
 H 0.0296 0.4823 0.0967   0.062717
 H 0.1506 0.6036 0.0742   0.118472
 H 0.2455 0.7493 0.9687   0.102754
 H 0.3865 0.7162 0.8587   0.101038
 H 0.5635 0.4123 0.777   0.116722
 H 0.4872 0.2645 0.889   0.096493
 H 0.3419 0.296 0.9954   0.090383
 H 0.6927 0.5297 0.7689   0.043066
 H 0.5395 0.831 0.6463   0.128132
 H 0.6263 0.9614 0.5245   0.086663
 H 0.938 0.7231 0.5347   0.077042
 H 0.8593 0.5865 0.6525   0.127221
 H 0.4904 0.0765 0.2184   0.089426
 H 0.3812 0.0767 0.094   0.099652
 H 0.7135 0.9181 0.0178   0.10881
 H 0.8219 0.9197 0.1459   0.100961
 H 0.5522 0.604 0.5667   0.073014
 H 0.3996 0.765 0.5588   0.095492
 H 0.1553 0.706 0.4145   0.108261
 H 0.3106 0.5427 0.4219   0.09348
 C 0.1278 0.7656 0.719   0.172269
 C 0.0862 0.6734 0.7816   -0.191439
 C 0.9621 0.6907 0.8138   0.047774
 C 0.8861 0.8013 0.7811   -0.172762
 C 0.9319 0.8921 0.7176   0.166267
 C 0.9157 0.5916 0.8819   0.150756
 C 0.755 0.5167 0.9736   0.180378
 C 0.79 0.4104 0.9695   -0.207095
 C 0.7328 0.3217 0.0342   -0.051532
 C 0.6478 0.342 0.0989   -0.088819
 C 0.6111 0.4479 0.103   -0.010507
 C 0.5218 0.472 0.1707   0.177995
 C 0.4904 0.5755 0.1758   -0.188919
 C 0.5393 0.6633 0.1101   -0.043163
 C 0.6239 0.6451 0.0458   -0.118113
 C 0.6623 0.5375 0.0395   -0.017352
 C 0.3619 0.3968 0.2617   0.168732
 C 0.3102 0.3073 0.3376   0.063522
 C 0.3797 0.193 0.3759   -0.162703
 C 0.3256 0.1149 0.4483   0.166681
 C 0.1432 0.2549 0.4427   0.176444
 C 0.1899 0.3375 0.372   -0.210217
 C 0.3344 0.9969 0.8053   -0.121362
 C 0.4622 0.9547 0.8221   -0.030716
 C 0.5293 0.9548 0.8976   -0.137796
 C 0.4656 0.000399999999999 0.9591   0.044828
 C 0.333 0.0486 0.9427   -0.157774
 C 0.2672 0.0471 0.865   -0.045779
 C 0.5496 0.4486 0.5024   0.046229
 C 0.5281 0.3771 0.464   -0.114724
 C 0.6194 0.2799 0.4689   -0.035414
 C 0.7382 0.2485 0.5144   -0.138702
 C 0.7642 0.3145 0.5544   -0.049725
 C 0.6704 0.4136 0.5493   -0.138948
 C 0.2646 0.9997 0.7234   0.639649
 C 0.8393 0.143 0.5178   0.658653
 C 0.8722 0.2344 0.281   0.172271
 C 0.9138 0.3266 0.2184   -0.191441
 C 0.0379 0.3093 0.1862   0.047774
 C 0.1139 0.1987 0.2189   -0.172762
 C 0.0681 0.1079 0.2824   0.166267
 C 0.0843 0.4084 0.1181   0.150754
 C 0.245 0.4833 0.0264   0.180377
 C 0.21 0.5896 0.0305   -0.207098
 C 0.2672 0.6783 0.9658   -0.051534
 C 0.3522 0.658 0.9011   -0.088822
 C 0.3889 0.5521 0.897   -0.010508
 C 0.4782 0.528 0.8293   0.177993
 C 0.5096 0.4245 0.8242   -0.188921
 C 0.4607 0.3367 0.8899   -0.043165
 C 0.3761 0.3549 0.9542   -0.118113
 C 0.3377 0.4625 0.9605   -0.017353
 C 0.6381 0.6032 0.7383   0.16873
 C 0.6898 0.6927 0.6624   0.063524
 C 0.6203 0.807 0.6241   -0.162704
 C 0.6744 0.8851 0.5517   0.166682
 C 0.8568 0.7451 0.5573   0.176449
 C 0.8101 0.6625 0.628   -0.210225
 C 0.6656 0.0031 0.1947   -0.121361
 C 0.5378 0.0453 0.1779   -0.030716
 C 0.4707 0.0452 0.1024   -0.137798
 C 0.5344 0.9996 0.0409   0.044834
 C 0.667 0.9514 0.0573   -0.157776
 C 0.7328 0.9529 0.135   -0.04578
 C 0.4504 0.5514 0.4976   0.046197
 C 0.4719 0.6229 0.536   -0.114719
 C 0.3806 0.7201 0.5311   -0.035416
 C 0.2618 0.7515 0.4856   -0.1387
 C 0.2358 0.6855 0.4456   -0.04973
 C 0.3296 0.5864 0.4507   -0.13894
 C 0.7354 0.000300000000003 0.2766   0.639649
 C 0.1607 0.857 0.4822   0.658654
 N 0.0536 0.8736 0.6871   -0.34693
 N 0.7994 0.6096 0.9104   -0.345417
 N 0.4781 0.3755 0.2378   -0.323193
 N 0.2088 0.1437 0.4808   -0.340302
 N 0.9464 0.1264 0.3129   -0.346931
 N 0.2006 0.3904 0.0896   -0.345416
 N 0.5219 0.6245 0.7622   -0.323193
 N 0.7912 0.8563 0.5192   -0.340303
 O 0.3154 0.9461 0.6768   -0.554736
 O 0.1465 0.0596 0.7041   -0.602442
 O 0.9514 0.1274 0.5491   -0.577235
 O 0.8049 0.0794 0.4882   -0.604845
 O 0.6846 0.0539 0.3232   -0.554736
 O 0.8535 0.9404 0.2959   -0.602442
 O 0.0486 0.8726 0.4509   -0.577236
 O 0.1951 0.9206 0.5118   -0.604844
