{'_ref': 'TBD', '_srcid': 'CAKYAQ_clean', 'submitters': [{'name': 'Dalar Nazarian Jeff Camp and David Sholl', 'email': 'dalar@gatech.edu jcamp6@gatech.edu'}], '_method': 'VASP DFT with PBE;DDEC'}
data_CoH6(C3O)4
_symmetry_space_group_name_H-M   'P 1'
_cell_length_a   11.22000021
_cell_length_b   11.22000039
_cell_length_c   21.14900000
_cell_angle_alpha   95.73289864
_cell_angle_beta   95.73289873
_cell_angle_gamma   107.10700119
_symmetry_Int_Tables_number   1
_chemical_formula_structural   CoH6(C3O)4
_chemical_formula_sum   'Co6 H36 C72 O24'
_cell_volume   2508.39069225
_cell_formula_units_Z   6
loop_
 _symmetry_equiv_pos_site_id
 _symmetry_equiv_pos_as_xyz
  1  'x, y, z'
loop_
 _atom_site_label
 _atom_site_fract_x
 _atom_site_fract_y
 _atom_site_fract_z
 _atom_site_charge
 Co 0.01988 0.50526 0.80707   0.95164
 Co 0.49474 0.98012 0.69293   0.951626
 Co 0.98012 0.49474 0.19293   0.95164
 Co 0.50526 0.01988 0.30707   0.951626
 Co 0.24716 0.75284 0.75   1.056868
 Co 0.75284 0.24716 0.25   1.056868
 H 0.0484 0.652 0.6091   0.104046
 H 0.0306 0.7432 0.5064   0.079922
 H 0.0062 0.7192 0.3969   0.10498
 H 0.2383 0.0101 0.5295   0.113404
 H 0.1702 0.0648 0.4228   0.118238
 H 0.5187 0.7335 0.9054   0.084367
 H 0.2857 0.3951 0.923   0.105038
 H 0.343 0.2778 0.0097   0.101793
 H 0.982 0.9006 0.647   0.111937
 H 0.348 0.9516 0.8909   0.104046
 H 0.2568 0.9694 0.9936   0.079922
 H 0.2808 0.9938 0.1031   0.10498
 H 0.9899 0.7617 0.9705   0.113405
 H 0.9352 0.8298 0.0772   0.118239
 H 0.2665 0.4813 0.5946   0.084367
 H 0.6049 0.7143 0.577   0.105038
 H 0.7222 0.657 0.4903   0.101793
 H 0.0994 0.018 0.853   0.111937
 H 0.9516 0.348 0.3909   0.104046
 H 0.9694 0.2568 0.4936   0.079922
 H 0.9938 0.2808 0.6031   0.104981
 H 0.7617 0.9899 0.4705   0.113405
 H 0.8298 0.9352 0.5772   0.118241
 H 0.4813 0.2665 0.0946   0.084366
 H 0.7143 0.6049 0.077   0.10504
 H 0.657 0.7222 0.9903   0.101792
 H 0.018 0.0994 0.353   0.111937
 H 0.652 0.0484 0.1091   0.104046
 H 0.7432 0.0306 0.0064   0.079922
 H 0.7192 0.0062 0.8969   0.104981
 H 0.0101 0.2383 0.0295   0.113405
 H 0.0648 0.1702 0.9228   0.118241
 H 0.7335 0.5187 0.4054   0.084366
 H 0.3951 0.2857 0.423   0.105041
 H 0.2778 0.343 0.5097   0.101792
 H 0.9006 0.982 0.147   0.111936
 C 0.0114 0.5604 0.51773   0.037018
 C 0.0307 0.5729 0.58549   -0.054462
 C 0.0339 0.4835 0.6882   0.684965
 C 0.0163 0.6639 0.4837   -0.108078
 C 0.0237 0.4713 0.61675   -0.121508
 C 0.000799999999998 0.6498 0.41835   -0.052006
 C 0.0617 0.0125 0.492   0.041049
 C 0.2226 0.9208 0.64003   0.702803
 C 0.1559 0.9931 0.5383   -0.074609
 C 0.1264 0.951 0.5939   -0.131143
 C 0.0895 0.0517 0.4335   -0.134565
 C 0.4441 0.4507 0.98987   0.041223
 C 0.5002 0.663 0.9267   -0.038426
 C 0.3875 0.5649 0.90634   -0.134816
 C 0.3598 0.4604 0.93689   -0.077062
 C 0.2944 0.5768 0.8516   0.715533
 C 0.4172 0.3436 0.0227   -0.133867
 C 0.002 0.9288 0.6084   -0.04255
 C 0.4396 0.9886 0.98227   0.037021
 C 0.4271 0.9693 0.91451   -0.054459
 C 0.5165 0.9661 0.8118   0.684964
 C 0.3361 0.9837 0.0163   -0.108078
 C 0.5287 0.9763 0.88325   -0.121509
 C 0.3502 0.9992 0.08165   -0.052006
 C 0.9875 0.9383 0.008   0.041049
 C 0.0792 0.7774 0.85997   0.702804
 C 0.0069 0.8441 0.9617   -0.07461
 C 0.049 0.8736 0.9061   -0.131142
 C 0.9483 0.9105 0.0665   -0.134566
 C 0.5493 0.5559 0.51013   0.041222
 C 0.337 0.4998 0.5733   -0.038424
 C 0.4351 0.6125 0.59366   -0.134816
 C 0.5396 0.6402 0.56311   -0.077062
 C 0.4232 0.7056 0.6484   0.715533
 C 0.6564 0.5828 0.4773   -0.133864
 C 0.0712 0.998 0.8916   -0.042549
 C 0.9886 0.4396 0.48227   0.037022
 C 0.9693 0.4271 0.41451   -0.054461
 C 0.9661 0.5165 0.3118   0.684966
 C 0.9837 0.3361 0.5163   -0.108077
 C 0.9763 0.5287 0.38325   -0.121516
 C 0.9992 0.3502 0.58165   -0.052014
 C 0.9383 0.9875 0.508   0.041048
 C 0.7774 0.0792 0.35997   0.702803
 C 0.8441 0.0069 0.4617   -0.074608
 C 0.8736 0.049 0.4061   -0.131145
 C 0.9105 0.9483 0.5665   -0.134555
 C 0.5559 0.5493 0.01013   0.041205
 C 0.4998 0.337 0.0733   -0.038401
 C 0.6125 0.4351 0.09366   -0.134821
 C 0.6402 0.5396 0.06311   -0.077059
 C 0.7056 0.4232 0.1484   0.715534
 C 0.5828 0.6564 0.9773   -0.133842
 C 0.998 0.0712 0.3916   -0.042539
 C 0.5604 0.0114 0.01773   0.037024
 C 0.5729 0.0307 0.08549   -0.054458
 C 0.4835 0.0339 0.1882   0.684965
 C 0.6639 0.0163 0.9837   -0.108076
 C 0.4713 0.0237 0.11675   -0.121517
 C 0.6498 0.000799999999998 0.91835   -0.052014
 C 0.0125 0.0617 0.992   0.041048
 C 0.9208 0.2226 0.14003   0.702805
 C 0.9931 0.1559 0.0383   -0.07461
 C 0.951 0.1264 0.0939   -0.131144
 C 0.0517 0.0895 0.9335   -0.134557
 C 0.4507 0.4441 0.48987   0.041204
 C 0.663 0.5002 0.4267   -0.038399
 C 0.5649 0.3875 0.40634   -0.134821
 C 0.4604 0.3598 0.43689   -0.07706
 C 0.5768 0.2944 0.3516   0.715534
 C 0.3436 0.4172 0.5227   -0.133839
 C 0.9288 0.002 0.1084   -0.042538
 O 0.0776 0.5922 0.72111   -0.626646
 O 0.18157 0.86063 0.68366   -0.542986
 O 0.99421 0.38819 0.7149   -0.556758
 O 0.19065 0.49115 0.84102   -0.609806
 O 0.32825 0.66855 0.82247   -0.555563
 O 0.337 0.9596 0.63034   -0.631561
 O 0.4078 0.9224 0.77889   -0.626645
 O 0.13937 0.81843 0.81634   -0.542984
 O 0.61181 0.00579 0.7851   -0.556757
 O 0.50885 0.80935 0.65898   -0.609805
 O 0.33145 0.67175 0.67753   -0.555562
 O 0.0404 0.663 0.86966   -0.631562
 O 0.9224 0.4078 0.27889   -0.626646
 O 0.81843 0.13937 0.31634   -0.542986
 O 0.00579 0.61181 0.2851   -0.556758
 O 0.80935 0.50885 0.15898   -0.609805
 O 0.67175 0.33145 0.17753   -0.555564
 O 0.663 0.0404 0.36966   -0.631561
 O 0.5922 0.0776 0.22111   -0.626645
 O 0.86063 0.18157 0.18366   -0.542985
 O 0.38819 0.99421 0.2149   -0.556757
 O 0.49115 0.19065 0.34102   -0.609805
 O 0.66855 0.32825 0.32247   -0.555563
 O 0.9596 0.337 0.13034   -0.631562
