{'_ref': 'TBD', '_srcid': 'CAKYAQ_clean', 'submitters': [{'name': 'Dalar Nazarian Jeff Camp and David Sholl', 'email': 'dalar@gatech.edu jcamp6@gatech.edu'}], '_method': 'VASP DFT with PBE;DDEC'}
data_Mn2H13C24NO9
_symmetry_space_group_name_H-M   'P 1'
_cell_length_a   12.64600009
_cell_length_b   14.83400000
_cell_length_c   16.05210000
_cell_angle_alpha   90.00000000
_cell_angle_beta   98.12630146
_cell_angle_gamma   90.00000000
_symmetry_Int_Tables_number   1
_chemical_formula_structural   Mn2H13C24NO9
_chemical_formula_sum   'Mn8 H52 C96 N4 O36'
_cell_volume   2980.98962501
_cell_formula_units_Z   4
loop_
 _symmetry_equiv_pos_site_id
 _symmetry_equiv_pos_as_xyz
  1  'x, y, z'
loop_
 _atom_site_label
 _atom_site_fract_x
 _atom_site_fract_y
 _atom_site_fract_z
 _atom_site_charge
 Mn 0.02249 0.24871 0.0153   1.099862
 Mn 0.47751 0.74871 0.4847   1.099862
 Mn 0.97751 0.75129 0.9847   1.099862
 Mn 0.52249 0.25129 0.5153   1.099862
 Mn 0.0 0.0 0.0   0.935834
 Mn 0.5 0.5 0.5   0.935834
 Mn 0.0 0.5 0.0   1.095373
 Mn 0.5 0.0 0.5   1.095373
 H 0.7187 0.0547 0.8087   0.065718
 H 0.5447 0.0529 0.7461   0.10147
 H 0.4723 0.2459 0.9049   0.11745
 H 0.6526 0.2542 0.9613   0.101186
 H 0.2075 0.1111 0.6146   0.104833
 H 0.3209 0.1401 0.8975   0.109758
 H 0.0509 0.0169 0.6028   0.10593
 H 0.8758 0.0105 0.5438   0.100396
 H 0.8074 0.2038 0.7046   0.076736
 H 0.9809 0.2013 0.7674   0.104001
 H 0.2659 0.0661 0.2982   0.117198
 H 0.2607 0.1717 0.2976   0.119223
 H 0.3389 0.1216 0.2457   0.123119
 H 0.7813 0.5547 0.6913   0.065719
 H 0.9553 0.5529 0.7539   0.101471
 H 0.0277 0.7459 0.5951   0.117443
 H 0.8474 0.7542 0.5387   0.101186
 H 0.2925 0.6111 0.8854   0.104833
 H 0.1791 0.6401 0.6025   0.109758
 H 0.4491 0.5169 0.8972   0.105923
 H 0.6242 0.5105 0.9562   0.100396
 H 0.6926 0.7038 0.7954   0.076736
 H 0.5191 0.7013 0.7326   0.104001
 H 0.2341 0.5661 0.2018   0.117198
 H 0.2393 0.6717 0.2024   0.119223
 H 0.1611 0.6216 0.2543   0.123119
 H 0.2813 0.9453 0.1913   0.065719
 H 0.4553 0.9471 0.2539   0.101473
 H 0.5277 0.7541 0.0951   0.117451
 H 0.3474 0.7458 0.0387   0.101172
 H 0.7925 0.8889 0.3854   0.104819
 H 0.6791 0.8599 0.1025   0.109759
 H 0.9491 0.9831 0.3972   0.105944
 H 0.1242 0.9895 0.4562   0.100401
 H 0.1926 0.7962 0.2954   0.076738
 H 0.0191 0.7987 0.2326   0.103997
 H 0.7341 0.9339 0.7018   0.1172
 H 0.7393 0.8283 0.7024   0.119225
 H 0.6611 0.8784 0.7543   0.123117
 H 0.2187 0.4453 0.3087   0.065719
 H 0.0447 0.4471 0.2461   0.101473
 H 0.9723 0.2541 0.4049   0.117443
 H 0.1526 0.2458 0.4613   0.101172
 H 0.7075 0.3889 0.1146   0.104819
 H 0.8209 0.3599 0.3975   0.109759
 H 0.5509 0.4831 0.1028   0.105937
 H 0.3758 0.4895 0.0438   0.100402
 H 0.3074 0.2962 0.2046   0.076738
 H 0.4809 0.2987 0.2674   0.103998
 H 0.7659 0.4339 0.7982   0.1172
 H 0.7607 0.3283 0.7976   0.119225
 H 0.8389 0.3784 0.7457   0.123117
 C 0.82 0.1501 0.9356   0.731072
 C 0.7051 0.1537 0.8926   -0.151721
 C 0.67 0.0939 0.8278   -0.045777
 C 0.5654 0.0913 0.7912   -0.134746
 C 0.4895 0.1466 0.8216   0.059191
 C 0.5218 0.2079 0.8852   -0.144092
 C 0.6303 0.212 0.9197   -0.045705
 C 0.3719 0.1387 0.786   0.041796
 C 0.3363 0.1293 0.6995   -0.118372
 C 0.4093 0.1337 0.6326   0.731201
 C 0.2298 0.1183 0.672   -0.0937
 C 0.1525 0.1176 0.7271   0.021551
 C 0.1883 0.1266 0.8139   -0.102127
 C 0.1139 0.1227 0.8804   0.715857
 C 0.2973 0.1358 0.8401   -0.101737
 C 0.0346 0.1124 0.691   0.058362
 C 0.0011 0.0536 0.6236   -0.131483
 C 0.8968 0.0498 0.5883   -0.055864
 C 0.8206 0.1051 0.619   -0.149414
 C 0.8555 0.1644 0.6851   -0.046118
 C 0.9601 0.1645 0.721   -0.126787
 C 0.7038 0.1078 0.5782   0.733323
 C 0.1501 0.1163 0.1347   0.656491
 C 0.2703 0.1192 0.2646   -0.110708
 C 0.68 0.6501 0.5644   0.731072
 C 0.7949 0.6537 0.6074   -0.151721
 C 0.83 0.5939 0.6722   -0.045777
 C 0.9346 0.5913 0.7088   -0.134745
 C 0.0105 0.6466 0.6784   0.059191
 C 0.9782 0.7079 0.6148   -0.144096
 C 0.8697 0.712 0.5803   -0.045705
 C 0.1281 0.6387 0.714   0.041795
 C 0.1637 0.6293 0.8005   -0.118373
 C 0.0907 0.6337 0.8674   0.731201
 C 0.2702 0.6183 0.828   -0.093701
 C 0.3475 0.6176 0.7729   0.02155
 C 0.3117 0.6266 0.6861   -0.102128
 C 0.3861 0.6227 0.6196   0.715857
 C 0.2027 0.6358 0.6599   -0.101737
 C 0.4654 0.6124 0.809   0.058362
 C 0.4989 0.5536 0.8764   -0.131487
 C 0.6032 0.5498 0.9117   -0.055865
 C 0.6794 0.6051 0.881   -0.149414
 C 0.6445 0.6644 0.8149   -0.046118
 C 0.5399 0.6645 0.779   -0.126786
 C 0.7962 0.6078 0.9218   0.733323
 C 0.3499 0.6163 0.3653   0.656491
 C 0.2297 0.6192 0.2354   -0.110708
 C 0.18 0.8499 0.0644   0.73107
 C 0.2949 0.8463 0.1074   -0.151723
 C 0.33 0.9061 0.1722   -0.045781
 C 0.4346 0.9087 0.2088   -0.134744
 C 0.5105 0.8534 0.1784   0.059189
 C 0.4782 0.7921 0.1148   -0.144098
 C 0.3697 0.788 0.0803   -0.045697
 C 0.6281 0.8613 0.214   0.041797
 C 0.6637 0.8707 0.3005   -0.118374
 C 0.5907 0.8663 0.3674   0.731201
 C 0.7702 0.8817 0.328   -0.093696
 C 0.8475 0.8824 0.2729   0.021549
 C 0.8117 0.8734 0.1861   -0.102127
 C 0.8861 0.8773 0.1196   0.715857
 C 0.7027 0.8642 0.1599   -0.101739
 C 0.9654 0.8876 0.309   0.058363
 C 0.9989 0.9464 0.3764   -0.131492
 C 0.1032 0.9502 0.4117   -0.055867
 C 0.1794 0.8949 0.381   -0.149413
 C 0.1445 0.8356 0.3149   -0.046122
 C 0.0399 0.8355 0.279   -0.126784
 C 0.2962 0.8922 0.4218   0.733322
 C 0.8499 0.8837 0.8653   0.656477
 C 0.7297 0.8808 0.7354   -0.110714
 C 0.32 0.3499 0.4356   0.73107
 C 0.2051 0.3463 0.3926   -0.151723
 C 0.17 0.4061 0.3278   -0.045781
 C 0.0654 0.4087 0.2912   -0.134743
 C 0.9895 0.3534 0.3216   0.059189
 C 0.0218 0.2921 0.3852   -0.144102
 C 0.1303 0.288 0.4197   -0.045697
 C 0.8719 0.3613 0.286   0.041796
 C 0.8363 0.3707 0.1995   -0.118374
 C 0.9093 0.3663 0.1326   0.731201
 C 0.7298 0.3817 0.172   -0.093697
 C 0.6525 0.3824 0.2271   0.021548
 C 0.6883 0.3734 0.3139   -0.102127
 C 0.6139 0.3773 0.3804   0.715857
 C 0.7973 0.3642 0.3401   -0.101739
 C 0.5346 0.3876 0.191   0.058363
 C 0.5011 0.4464 0.1236   -0.131496
 C 0.3968 0.4502 0.0883   -0.055867
 C 0.3206 0.3949 0.119   -0.149413
 C 0.3555 0.3356 0.1851   -0.046122
 C 0.4601 0.3355 0.221   -0.126783
 C 0.2038 0.3922 0.0782   0.733322
 C 0.6501 0.3837 0.6347   0.656477
 C 0.7703 0.3808 0.7646   -0.110714
 N 0.1879 0.1162 0.1928   -0.175267
 N 0.3121 0.6162 0.3072   -0.175267
 N 0.8121 0.8838 0.8072   -0.175264
 N 0.6879 0.3838 0.6928   -0.175264
 O 0.8607 0.2243 0.9588   -0.639549
 O 0.8605 0.0753 0.9455   -0.579447
 O 0.4544 0.2081 0.6234   -0.608165
 O 0.4187 0.0645 0.5901   -0.65648
 O 0.0962 0.1959 0.9139   -0.643332
 O 0.0809 0.0468 0.8987   -0.566671
 O 0.66 0.0351 0.5593   -0.620808
 O 0.665 0.1852 0.5667   -0.64324
 O 0.072 0.1178 0.0795   -0.519989
 O 0.6393 0.7243 0.5412   -0.639549
 O 0.6395 0.5753 0.5545   -0.579447
 O 0.0456 0.7081 0.8766   -0.608165
 O 0.0813 0.5645 0.9099   -0.65648
 O 0.4038 0.6959 0.5861   -0.643333
 O 0.4191 0.5468 0.6013   -0.566671
 O 0.84 0.5351 0.9407   -0.620808
 O 0.835 0.6852 0.9333   -0.64324
 O 0.428 0.6178 0.4205   -0.519989
 O 0.1393 0.7757 0.0412   -0.63955
 O 0.1395 0.9247 0.0545   -0.579447
 O 0.5456 0.7919 0.3766   -0.608166
 O 0.5813 0.9355 0.4099   -0.656477
 O 0.9038 0.8041 0.0861   -0.643332
 O 0.9191 0.9532 0.1013   -0.566671
 O 0.34 0.9649 0.4407   -0.620804
 O 0.335 0.8148 0.4333   -0.64324
 O 0.928 0.8822 0.9205   -0.519988
 O 0.3607 0.2757 0.4588   -0.63955
 O 0.3605 0.4247 0.4455   -0.579447
 O 0.9544 0.2919 0.1234   -0.608166
 O 0.9187 0.4355 0.0901   -0.656477
 O 0.5962 0.3041 0.4139   -0.643332
 O 0.5809 0.4532 0.3987   -0.566671
 O 0.16 0.4649 0.0593   -0.620804
 O 0.165 0.3148 0.0667   -0.64324
 O 0.572 0.3822 0.5795   -0.519988
