{'_ref': 'TBD', '_srcid': 'CAKYAQ_clean', 'submitters': [{'name': 'Dalar Nazarian Jeff Camp and David Sholl', 'email': 'dalar@gatech.edu jcamp6@gatech.edu'}], '_method': 'VASP DFT with PBE;DDEC'}
data_La2H24C39N2O13
_symmetry_space_group_name_H-M   'P 1'
_cell_length_a   12.38960008
_cell_length_b   12.44010024
_cell_length_c   16.57870000
_cell_angle_alpha   83.98039879
_cell_angle_beta   77.84289915
_cell_angle_gamma   60.13430114
_symmetry_Int_Tables_number   1
_chemical_formula_structural   La2H24C39N2O13
_chemical_formula_sum   'La4 H48 C78 N4 O26'
_cell_volume   2166.19720376
_cell_formula_units_Z   2
loop_
 _symmetry_equiv_pos_site_id
 _symmetry_equiv_pos_as_xyz
  1  'x, y, z'
loop_
 _atom_site_label
 _atom_site_fract_x
 _atom_site_fract_y
 _atom_site_fract_z
 _atom_site_charge
 La 0.48528 0.09346 0.59992   2.210255
 La 0.42126 0.09346 0.90008   2.21025
 La 0.51472 0.90654 0.40008   2.210256
 La 0.57874 0.90654 0.09992   2.21025
 H 0.7858 0.6642 0.4545   0.088414
 H 0.0709 0.2438 0.6453   0.095771
 H 0.8943 0.2522 0.5883   0.107432
 H 0.8829 0.0748 0.1127   0.121554
 H 0.7478 0.078 0.2509   0.113205
 H 0.9181 0.737 0.6295   0.102586
 H 0.9134 0.4592 0.3829   0.117269
 H 0.0492 0.2338 0.8898   0.097584
 H 0.8626 0.0742 0.4577   0.097006
 H 0.8089 0.5854 0.7704   0.070456
 H 0.691 0.5974 0.8364   0.056523
 H 0.7035 0.7886 0.8262   0.327967
 H 0.55 0.6642 0.0455   0.088414
 H 0.6853 0.2438 0.8547   0.095774
 H 0.8535 0.2522 0.9117   0.107426
 H 0.0423 0.0748 0.3873   0.121555
 H 0.1742 0.078 0.2491   0.113204
 H 0.3449 0.737 0.8705   0.102591
 H 0.6274 0.4592 0.1171   0.11727
 H 0.717 0.2338 0.6102   0.097582
 H 0.0632 0.0742 0.0423   0.097007
 H 0.6057 0.5854 0.7296   0.070455
 H 0.7116 0.5974 0.6636   0.056522
 H 0.5079 0.7886 0.6738   0.327967
 H 0.2142 0.3358 0.5455   0.088414
 H 0.9291 0.7562 0.3547   0.095771
 H 0.1057 0.7478 0.4117   0.107432
 H 0.1171 0.9252 0.8873   0.121557
 H 0.2522 0.922 0.7491   0.113206
 H 0.0819 0.263 0.3705   0.102585
 H 0.0866 0.5408 0.6171   0.117265
 H 0.9508 0.7662 0.1102   0.097582
 H 0.1374 0.9258 0.5423   0.097009
 H 0.1911 0.4146 0.2296   0.070454
 H 0.309 0.4026 0.1636   0.056523
 H 0.2965 0.2114 0.1738   0.327968
 H 0.45 0.3358 0.9545   0.088414
 H 0.3147 0.7562 0.1453   0.095774
 H 0.1465 0.7478 0.0883   0.107426
 H 0.9577 0.9252 0.6127   0.121558
 H 0.8258 0.922 0.7509   0.113205
 H 0.6551 0.263 0.1295   0.10259
 H 0.3726 0.5408 0.8829   0.117266
 H 0.283 0.7662 0.3898   0.097581
 H 0.9368 0.9258 0.9577   0.09701
 H 0.3943 0.4146 0.2704   0.070454
 H 0.2884 0.4026 0.3364   0.056522
 H 0.4921 0.2114 0.3262   0.327968
 C 0.7186 0.8434 0.5556   0.719007
 C 0.8333 0.7184 0.5423   -0.133973
 C 0.9532 0.5184 0.4756   0.037981
 C 0.0802 0.2344 0.7651   -0.171896
 C 0.2144 0.2118 0.7514   0.818066
 C 0.8475 0.639 0.4867   -0.056951
 C 0.0278 0.2426 0.6983   -0.065982
 C 0.8552 0.2472 0.6419   -0.143513
 C 0.9399 0.0754 0.141   -0.145852
 C 0.6722 0.0756 0.4103   0.755034
 C 0.7879 0.0762 0.3602   -0.149584
 C 0.8075 0.0772 0.2772   -0.077242
 C 0.9175 0.0768 0.2284   0.041302
 C 0.9075 0.2492 0.7097   0.035865
 C 0.9261 0.6822 0.5917   -0.052262
 C 0.9723 0.4344 0.4171   -0.131091
 C 0.0133 0.238 0.8449   -0.028932
 C 0.8772 0.0752 0.4003   -0.040686
 C 0.7174 0.632 0.786   0.05498
 C 0.438 0.8434 0.9444   0.719017
 C 0.4483 0.7184 0.9577   -0.13397
 C 0.5284 0.5184 0.0244   0.037985
 C 0.6854 0.2344 0.7349   -0.171886
 C 0.5738 0.2118 0.7486   0.818061
 C 0.5135 0.639 0.0133   -0.056952
 C 0.7296 0.2426 0.8017   -0.06599
 C 0.8976 0.2472 0.8581   -0.143467
 C 0.9847 0.0754 0.359   -0.145845
 C 0.2522 0.0756 0.0897   0.755034
 C 0.1359 0.0762 0.1398   -0.14961
 C 0.1153 0.0772 0.2228   -0.077223
 C 0.0057 0.0768 0.2716   0.041283
 C 0.8433 0.2492 0.7903   0.035844
 C 0.3917 0.6822 0.9083   -0.052268
 C 0.5933 0.4344 0.0829   -0.131101
 C 0.7487 0.238 0.6551   -0.028909
 C 0.0476 0.0752 0.0997   -0.040672
 C 0.6506 0.632 0.714   0.054986
 C 0.2814 0.1566 0.4444   0.719007
 C 0.1667 0.2816 0.4577   -0.133975
 C 0.0468 0.4816 0.5244   0.03798
 C 0.9198 0.7656 0.2349   -0.171897
 C 0.7856 0.7882 0.2486   0.818066
 C 0.1525 0.361 0.5133   -0.05695
 C 0.9722 0.7574 0.3017   -0.065982
 C 0.1448 0.7528 0.3581   -0.143513
 C 0.0601 0.9246 0.859   -0.145853
 C 0.3278 0.9244 0.5897   0.755034
 C 0.2121 0.9238 0.6398   -0.149584
 C 0.1925 0.9228 0.7228   -0.077243
 C 0.0825 0.9232 0.7716   0.041301
 C 0.0925 0.7508 0.2903   0.035864
 C 0.0739 0.3178 0.4083   -0.052255
 C 0.0277 0.5656 0.5829   -0.131084
 C 0.9867 0.762 0.1551   -0.028932
 C 0.1228 0.9248 0.5997   -0.040687
 C 0.2826 0.368 0.214   0.05498
 C 0.562 0.1566 0.0556   0.719017
 C 0.5517 0.2816 0.0423   -0.133971
 C 0.4716 0.4816 0.9756   0.037984
 C 0.3146 0.7656 0.2651   -0.171886
 C 0.4262 0.7882 0.2514   0.818061
 C 0.4865 0.361 0.9867   -0.056952
 C 0.2704 0.7574 0.1983   -0.06599
 C 0.1024 0.7528 0.1419   -0.143468
 C 0.0153 0.9246 0.641   -0.145846
 C 0.7478 0.9244 0.9103   0.755034
 C 0.8641 0.9238 0.8602   -0.14961
 C 0.8847 0.9228 0.7772   -0.077225
 C 0.9943 0.9232 0.7284   0.041283
 C 0.1567 0.7508 0.2097   0.035843
 C 0.6083 0.3178 0.0917   -0.052261
 C 0.4067 0.5656 0.9171   -0.131093
 C 0.2513 0.762 0.3449   -0.028909
 C 0.9524 0.9248 0.9003   -0.040674
 C 0.3494 0.368 0.286   0.054986
 C 0.5795 0.841 0.75   0.647074
 C 0.4205 0.159 0.25   0.647074
 N 0.6741 0.7618 0.7954   -0.457679
 N 0.5641 0.7618 0.7046   -0.457679
 N 0.3259 0.2382 0.2046   -0.457679
 N 0.4359 0.2382 0.2954   -0.45768
 O 0.63404 0.87612 0.513   -0.827224
 O 0.7072 0.9132 0.6099   -0.624113
 O 0.2685 0.2188 0.6813   -0.728709
 O 0.2615 0.1902 0.8145   -0.763131
 O 0.6414 0.1076 0.4836   -0.71473
 O 0.6114 0.0452 0.3741   -0.724323
 O 0.48984 0.87612 0.987   -0.827226
 O 0.3796 0.9132 0.8901   -0.624113
 O 0.5127 0.2188 0.8187   -0.728706
 O 0.5483 0.1902 0.6855   -0.763132
 O 0.251 0.1076 0.0164   -0.714724
 O 0.3434 0.0452 0.1259   -0.72432
 O 0.36596 0.12388 0.487   -0.827224
 O 0.2928 0.0868 0.3901   -0.624113
 O 0.7315 0.7812 0.3187   -0.728709
 O 0.7385 0.8098 0.1855   -0.763131
 O 0.3586 0.8924 0.5164   -0.71473
 O 0.3886 0.9548 0.6259   -0.724322
 O 0.51016 0.12388 0.013   -0.827226
 O 0.6204 0.0868 0.1099   -0.624113
 O 0.4873 0.7812 0.1813   -0.728706
 O 0.4517 0.8098 0.3145   -0.763132
 O 0.749 0.8924 0.9836   -0.714724
 O 0.6566 0.9548 0.8741   -0.724319
 O 0.514 0.972 0.75   -0.707904
 O 0.486 0.028 0.25   -0.707904
