{'_ref': 'TBD', '_srcid': 'CAKYAQ_clean', 'submitters': [{'name': 'Dalar Nazarian Jeff Camp and David Sholl', 'email': 'dalar@gatech.edu jcamp6@gatech.edu'}], '_method': 'VASP DFT with PBE;DDEC'}
data_LaH9(C3O)6
_symmetry_space_group_name_H-M   'P 1'
_cell_length_a   8.78500000
_cell_length_b   12.33200021
_cell_length_c   19.09000000
_cell_angle_alpha   106.51999763
_cell_angle_beta   90.00000000
_cell_angle_gamma   90.00000000
_symmetry_Int_Tables_number   1
_chemical_formula_structural   LaH9(C3O)6
_chemical_formula_sum   'La4 H36 C72 O24'
_cell_volume   1982.77417302
_cell_formula_units_Z   4
loop_
 _symmetry_equiv_pos_site_id
 _symmetry_equiv_pos_as_xyz
  1  'x, y, z'
loop_
 _atom_site_label
 _atom_site_fract_x
 _atom_site_fract_y
 _atom_site_fract_z
 _atom_site_charge
 La 0.53956 0.77049 0.78754   2.194163
 La 0.03956 0.72951 0.71246   2.194161
 La 0.46044 0.22951 0.21246   2.194163
 La 0.96044 0.27049 0.28754   2.194161
 H 0.1111 0.6371 0.9295   0.109287
 H 0.8865 0.0243 0.6128   0.100322
 H 0.8811 0.3828 0.582   0.098463
 H 0.9119 0.1923 0.5638   0.107044
 H 0.2801 0.5793 0.018   0.109182
 H 0.591 0.3977 0.7466   0.101167
 H 0.6788 0.529 0.904   0.100134
 H 0.616 0.0444 0.7853   0.068707
 H 0.5519 0.2259 0.7895   0.082968
 H 0.6111 0.8629 0.5705   0.109286
 H 0.3865 0.4757 0.8872   0.100322
 H 0.3811 0.1172 0.918   0.098463
 H 0.4119 0.3077 0.9362   0.107044
 H 0.7801 0.9207 0.482   0.109182
 H 0.091 0.1023 0.7534   0.101167
 H 0.1788 0.971 0.596   0.100134
 H 0.116 0.4556 0.7147   0.068707
 H 0.0519 0.2741 0.7105   0.082968
 H 0.8889 0.3629 0.0705   0.109286
 H 0.1135 0.9757 0.3872   0.100322
 H 0.1189 0.6172 0.418   0.098463
 H 0.0881 0.8077 0.4362   0.107044
 H 0.7199 0.4207 0.982   0.109181
 H 0.409 0.6023 0.2534   0.101167
 H 0.3212 0.471 0.096   0.100133
 H 0.384 0.9556 0.2147   0.068707
 H 0.4481 0.7741 0.2105   0.082968
 H 0.3889 0.1371 0.4295   0.109286
 H 0.6135 0.5243 0.1128   0.100322
 H 0.6189 0.8828 0.082   0.098463
 H 0.5881 0.6923 0.0638   0.107044
 H 0.2199 0.0793 0.518   0.109181
 H 0.909 0.8977 0.2466   0.101167
 H 0.8212 0.029 0.404   0.100132
 H 0.884 0.5444 0.2853   0.068707
 H 0.9481 0.7259 0.2895   0.082968
 C 0.0323 0.5951 0.94143   -0.062699
 C 0.7861 0.17911 0.65113   0.033335
 C 0.0597 0.5334 0.99236   0.04409
 C 0.8093 0.89928 0.69666   0.728452
 C 0.8937 0.59459 0.90954   -0.159212
 C 0.8679 0.66197 0.85631   0.786568
 C 0.7178 0.53601 0.68258   0.793355
 C 0.7342 0.40987 0.66809   -0.132906
 C 0.8212 0.06596 0.64884   -0.065361
 C 0.8314 0.34708 0.61231   -0.049601
 C 0.8529 0.2338 0.60266   -0.119862
 C 0.7608 0.01671 0.69868   -0.138036
 C 0.6871 0.24113 0.70615   0.048551
 C 0.2017 0.5346 0.02725   -0.136161
 C 0.6602 0.3571 0.71211   -0.071689
 C 0.7738 0.529 0.92549   -0.043735
 C 0.6585 0.0779 0.75198   -0.028194
 C 0.6216 0.1868 0.7548   -0.111723
 C 0.5323 0.9049 0.55857   -0.062698
 C 0.2861 0.32089 0.84887   0.033335
 C 0.5597 0.9666 0.50764   0.04409
 C 0.3093 0.60072 0.80334   0.728452
 C 0.3937 0.90541 0.59046   -0.159212
 C 0.3679 0.83803 0.64369   0.786568
 C 0.2178 0.96399 0.81742   0.793355
 C 0.2342 0.09013 0.83191   -0.132906
 C 0.3212 0.43404 0.85116   -0.06536
 C 0.3314 0.15292 0.88769   -0.049601
 C 0.3529 0.2662 0.89734   -0.119862
 C 0.2608 0.48329 0.80132   -0.138036
 C 0.1871 0.25887 0.79385   0.048551
 C 0.7017 0.9654 0.47275   -0.136161
 C 0.1602 0.1429 0.78789   -0.071689
 C 0.2738 0.971 0.57451   -0.043735
 C 0.1585 0.4221 0.74802   -0.028194
 C 0.1216 0.3132 0.7452   -0.111723
 C 0.9677 0.4049 0.05857   -0.062698
 C 0.2139 0.82089 0.34887   0.033335
 C 0.9403 0.4666 0.00764   0.044089
 C 0.1907 0.10072 0.30334   0.728452
 C 0.1063 0.40541 0.09046   -0.159214
 C 0.1321 0.33803 0.14369   0.786568
 C 0.2822 0.46399 0.31742   0.793355
 C 0.2658 0.59013 0.33191   -0.132906
 C 0.1788 0.93404 0.35116   -0.065361
 C 0.1686 0.65292 0.38769   -0.049602
 C 0.1471 0.7662 0.39734   -0.119862
 C 0.2392 0.98329 0.30132   -0.138036
 C 0.3129 0.75887 0.29385   0.048551
 C 0.7983 0.4654 0.97275   -0.13615
 C 0.3398 0.6429 0.28789   -0.071689
 C 0.2262 0.471 0.07451   -0.043723
 C 0.3415 0.9221 0.24802   -0.028194
 C 0.3784 0.8132 0.2452   -0.111723
 C 0.4677 0.0951 0.44143   -0.062698
 C 0.7139 0.67911 0.15113   0.033335
 C 0.4403 0.0334 0.49236   0.044089
 C 0.6907 0.39928 0.19666   0.728452
 C 0.6063 0.09459 0.40954   -0.159214
 C 0.6321 0.16197 0.35631   0.786568
 C 0.7822 0.03601 0.18258   0.793355
 C 0.7658 0.90987 0.16809   -0.132906
 C 0.6788 0.56596 0.14884   -0.06536
 C 0.6686 0.84708 0.11231   -0.049602
 C 0.6471 0.7338 0.10266   -0.119861
 C 0.7392 0.51671 0.19868   -0.138036
 C 0.8129 0.74113 0.20615   0.048551
 C 0.2983 0.0346 0.52725   -0.13615
 C 0.8398 0.8571 0.21211   -0.071689
 C 0.7262 0.029 0.42549   -0.043723
 C 0.8415 0.5779 0.25198   -0.028194
 C 0.8784 0.6868 0.2548   -0.111723
 O 0.77361 0.85999 0.74997   -0.812291
 O 0.8918 0.84515 0.64528   -0.654914
 O 0.9826 0.69586 0.82967   -0.705759
 O 0.5902 0.57915 0.7018   -0.664448
 O 0.8348 0.58996 0.6755   -0.798272
 O 0.7346 0.67999 0.84148   -0.750934
 O 0.27361 0.64001 0.75003   -0.812291
 O 0.3918 0.65485 0.85472   -0.654914
 O 0.4826 0.80414 0.67033   -0.705759
 O 0.0902 0.92085 0.7982   -0.664448
 O 0.3348 0.91004 0.8245   -0.798273
 O 0.2346 0.82001 0.65852   -0.750933
 O 0.22639 0.14001 0.25003   -0.812291
 O 0.1082 0.15485 0.35472   -0.654914
 O 0.0174 0.30414 0.17033   -0.705759
 O 0.4098 0.42085 0.2982   -0.664448
 O 0.1652 0.41004 0.3245   -0.798272
 O 0.2654 0.32001 0.15852   -0.750934
 O 0.72639 0.35999 0.24997   -0.812291
 O 0.6082 0.34515 0.14528   -0.654914
 O 0.5174 0.19586 0.32967   -0.705759
 O 0.9098 0.07915 0.2018   -0.664448
 O 0.6652 0.08996 0.1755   -0.798273
 O 0.7654 0.17999 0.34148   -0.750934
