{'_ref': 'TBD', '_srcid': 'CAKYAQ_clean', 'submitters': [{'name': 'Dalar Nazarian Jeff Camp and David Sholl', 'email': 'dalar@gatech.edu jcamp6@gatech.edu'}], '_method': 'VASP DFT with PBE;DDEC'}
data_CoH5C4N3O2
_symmetry_space_group_name_H-M   'P 1'
_cell_length_a   14.79280026
_cell_length_b   14.79279988
_cell_length_c   14.79275861
_cell_angle_alpha   104.26387524
_cell_angle_beta   112.13589380
_cell_angle_gamma   112.13599832
_symmetry_Int_Tables_number   1
_chemical_formula_structural   CoH5C4N3O2
_chemical_formula_sum   'Co8 H40 C32 N24 O16'
_cell_volume   2476.63768375
_cell_formula_units_Z   8
loop_
 _symmetry_equiv_pos_site_id
 _symmetry_equiv_pos_as_xyz
  1  'x, y, z'
loop_
 _atom_site_label
 _atom_site_fract_x
 _atom_site_fract_y
 _atom_site_fract_z
 _atom_site_charge
 Co 0.41401 0.0735 0.50683   0.598662
 Co 0.08599 0.59282 0.65949   0.598566
 Co 0.06667 0.15949 0.5735   0.598653
 Co 0.43333 0.00683 0.09282   0.598573
 Co 0.58599 0.9265 0.49317   0.598662
 Co 0.91401 0.40718 0.34051   0.598566
 Co 0.93333 0.84051 0.4265   0.598652
 Co 0.56667 0.99317 0.90718   0.598573
 H 0.1952 0.8234 0.4618   0.092229
 H 0.1078 0.809 0.3494   0.077121
 H 0.3806 0.2705 0.6995   0.066256
 H 0.3519 0.2765 0.5882   0.088949
 H 0.256 0.934 0.362   0.38202
 H 0.3048 0.7666 0.6282   0.092241
 H 0.3922 0.7416 0.7012   0.077134
 H 0.1194 0.8189 0.8899   0.066266
 H 0.1481 0.7363 0.9246   0.088954
 H 0.244 0.606 0.678   0.382035
 H 0.8616 0.1282 0.3234   0.092238
 H 0.9596 0.2012 0.309   0.077141
 H 0.071 0.3899 0.7705   0.066252
 H 0.1883 0.4246 0.7765   0.088944
 H 0.072 0.178 0.434   0.382034
 H 0.6384 0.9618 0.2666   0.092237
 H 0.5404 0.8494 0.2416   0.077119
 H 0.429 0.1995 0.3189   0.066274
 H 0.3117 0.0882 0.2363   0.088948
 H 0.428 0.862 0.106   0.382018
 H 0.8048 0.1766 0.5382   0.092229
 H 0.8922 0.191 0.6506   0.077121
 H 0.6194 0.7295 0.3005   0.066256
 H 0.6481 0.7235 0.4118   0.088949
 H 0.744 0.066 0.638   0.38202
 H 0.6952 0.2334 0.3718   0.092241
 H 0.6078 0.2584 0.2988   0.077134
 H 0.8806 0.1811 0.1101   0.066266
 H 0.8519 0.2637 0.0754   0.088954
 H 0.756 0.394 0.322   0.382035
 H 0.1384 0.8718 0.6766   0.092238
 H 0.0404 0.7988 0.691   0.07714
 H 0.929 0.6101 0.2295   0.066252
 H 0.8117 0.5754 0.2235   0.088945
 H 0.928 0.822 0.566   0.382034
 H 0.3616 0.0382 0.7334   0.092237
 H 0.4596 0.1506 0.7584   0.077118
 H 0.571 0.8005 0.6811   0.066274
 H 0.6883 0.9118 0.7637   0.088949
 H 0.572 0.138 0.894   0.382018
 C 0.1832 0.9588 0.4758   0.287585
 C 0.2471 0.1257 0.5668   0.336605
 C 0.1817 0.86 0.4165   0.063816
 C 0.3187 0.2476 0.6275   0.072124
 C 0.3168 0.7926 0.7756   0.287587
 C 0.2529 0.8197 0.8786   0.336596
 C 0.3183 0.7348 0.6783   0.063795
 C 0.1813 0.8088 0.9289   0.072126
 C 0.983 0.2756 0.4588   0.287552
 C 0.0589 0.3786 0.6257   0.336583
 C 0.9435 0.1783 0.36   0.063807
 C 0.1201 0.4289 0.7476   0.07214
 C 0.517 0.9758 0.2926   0.287558
 C 0.4411 0.0668 0.3197   0.336589
 C 0.5565 0.9165 0.2348   0.063807
 C 0.3799 0.1275 0.3088   0.072137
 C 0.8168 0.0412 0.5242   0.287585
 C 0.7529 0.8743 0.4332   0.336605
 C 0.8183 0.14 0.5835   0.063816
 C 0.6813 0.7524 0.3725   0.072124
 C 0.6832 0.2074 0.2244   0.287587
 C 0.7471 0.1803 0.1214   0.336596
 C 0.6817 0.2652 0.3217   0.063795
 C 0.8187 0.1912 0.0711   0.072126
 C 0.017 0.7244 0.5412   0.287552
 C 0.9411 0.6214 0.3743   0.336583
 C 0.0565 0.8217 0.64   0.063808
 C 0.8799 0.5711 0.2524   0.07214
 C 0.483 0.0242 0.7074   0.287558
 C 0.5589 0.9332 0.6803   0.336589
 C 0.4435 0.0835 0.7652   0.063808
 C 0.6201 0.8725 0.6912   0.072137
 N 0.2791 0.0586 0.5263   -0.463131
 N 0.0982 0.9621 0.4829   -0.275832
 N 0.1403 0.0724 0.5431   -0.243249
 N 0.2209 0.7472 0.7795   -0.463096
 N 0.4018 0.8847 0.8639   -0.275826
 N 0.3597 0.9028 0.9321   -0.243207
 N 0.0323 0.2795 0.5586   -0.46311
 N 0.9792 0.3639 0.4621   -0.27577
 N 0.0293 0.4321 0.5724   -0.243239
 N 0.4677 0.0263 0.2472   -0.463097
 N 0.5208 0.9829 0.3847   -0.275809
 N 0.4707 0.0431 0.4028   -0.243253
 N 0.7209 0.9414 0.4737   -0.463131
 N 0.9018 0.0379 0.5171   -0.275832
 N 0.8597 0.9276 0.4569   -0.243249
 N 0.7791 0.2528 0.2205   -0.463096
 N 0.5982 0.1153 0.1361   -0.275826
 N 0.6403 0.0972 0.0679   -0.243207
 N 0.9677 0.7205 0.4414   -0.46311
 N 0.0208 0.6361 0.5379   -0.27577
 N 0.9707 0.5679 0.4276   -0.243239
 N 0.5323 0.9737 0.7528   -0.463097
 N 0.4792 0.0171 0.6153   -0.275809
 N 0.5293 0.9569 0.5972   -0.243253
 O 0.2685 0.8952 0.3925   -0.474516
 O 0.2486 0.2877 0.6373   -0.608679
 O 0.2315 0.624 0.6267   -0.474514
 O 0.2514 0.8887 0.0391   -0.608655
 O 0.0027 0.1267 0.3952   -0.474499
 O 0.1504 0.5391 0.7877   -0.608648
 O 0.4973 0.8925 0.124   -0.474479
 O 0.3496 0.1373 0.3887   -0.608664
 O 0.7315 0.1048 0.6075   -0.474516
 O 0.7514 0.7123 0.3627   -0.608679
 O 0.7685 0.376 0.3733   -0.474514
 O 0.7486 0.1113 0.9609   -0.608655
 O 0.9973 0.8733 0.6048   -0.474499
 O 0.8496 0.4609 0.2123   -0.608648
 O 0.5027 0.1075 0.876   -0.474479
 O 0.6504 0.8627 0.6113   -0.608664
