{'_ref': 'TBD', '_srcid': 'CAKYAQ_clean', 'submitters': [{'name': 'Dalar Nazarian Jeff Camp and David Sholl', 'email': 'dalar@gatech.edu jcamp6@gatech.edu'}], '_method': 'VASP DFT with PBE;DDEC'}
data_HoH3C8NO6
_symmetry_space_group_name_H-M   'P 1'
_cell_length_a   7.60039979
_cell_length_b   9.80770000
_cell_length_c   14.71450000
_cell_angle_alpha   90.00000000
_cell_angle_beta   98.16000135
_cell_angle_gamma   90.00000000
_symmetry_Int_Tables_number   1
_chemical_formula_structural   HoH3C8NO6
_chemical_formula_sum   'Ho4 H12 C32 N4 O24'
_cell_volume   1085.74970854
_cell_formula_units_Z   4
loop_
 _symmetry_equiv_pos_site_id
 _symmetry_equiv_pos_as_xyz
  1  'x, y, z'
loop_
 _atom_site_label
 _atom_site_fract_x
 _atom_site_fract_y
 _atom_site_fract_z
 _atom_site_charge
 Ho 0.8499 0.45476 0.63897   2.222342
 Ho 0.6501 0.95476 0.86103   2.222342
 Ho 0.1501 0.54524 0.36103   2.222346
 Ho 0.3499 0.04524 0.13897   2.222347
 H 0.884 0.702 0.023   0.079201
 H 0.672 0.398 0.856   0.106942
 H 0.707 0.388 0.139   0.084079
 H 0.616 0.202 0.477   0.079201
 H 0.828 0.898 0.644   0.106942
 H 0.793 0.888 0.361   0.084079
 H 0.116 0.298 0.977   0.079201
 H 0.328 0.602 0.144   0.106942
 H 0.293 0.612 0.861   0.084079
 H 0.384 0.798 0.523   0.079201
 H 0.172 0.102 0.356   0.106942
 H 0.207 0.112 0.639   0.084079
 C 0.8303 0.6132 0.0122   0.257701
 C 0.7784 0.5575 0.9253   -0.281512
 C 0.7033 0.4284 0.9198   0.094806
 C 0.6729 0.365 0.000700000000002   -0.260145
 C 0.7261 0.4306 0.0845   0.241954
 C 0.8069 0.6372 0.8422   0.839593
 C 0.5894 0.2269 0.9995   0.875304
 C 0.5437 0.4682 0.4604   0.558502
 C 0.6697 0.1132 0.4878   0.257701
 C 0.7216 0.0575 0.5747   -0.281512
 C 0.7967 0.9284 0.5802   0.094806
 C 0.8271 0.865 0.4993   -0.260145
 C 0.7739 0.9306 0.4155   0.241954
 C 0.6931 0.1372 0.6578   0.839593
 C 0.9106 0.7269 0.5005   0.875304
 C 0.9563 0.9682 0.0396   0.558501
 C 0.1697 0.3868 0.9878   0.257703
 C 0.2216 0.4425 0.0747   -0.281513
 C 0.2967 0.5716 0.0802   0.094808
 C 0.3271 0.635 0.9993   -0.260145
 C 0.2739 0.5694 0.9155   0.241957
 C 0.1931 0.3628 0.1578   0.839594
 C 0.4106 0.7731 0.000500000000002   0.875305
 C 0.4563 0.5318 0.5396   0.558472
 C 0.3303 0.8868 0.5122   0.257703
 C 0.2784 0.9425 0.4253   -0.281513
 C 0.2033 0.0716 0.4198   0.094808
 C 0.1729 0.135 0.5007   -0.260145
 C 0.2261 0.0694 0.5845   0.241956
 C 0.3069 0.8628 0.3422   0.839594
 C 0.0894 0.2731 0.4995   0.875304
 C 0.0437 0.0318 0.9604   0.558471
 N 0.8071 0.5522 0.0904   -0.46151
 N 0.6929 0.0522 0.4096   -0.46151
 N 0.1929 0.4478 0.9096   -0.46151
 N 0.3071 0.9478 0.5904   -0.46151
 O 0.8044 0.5774 0.76731   -0.778849
 O 0.833 0.7653 0.85261   -0.762901
 O 0.5936 0.1547 0.92921   -0.772066
 O 0.5186 0.1921 0.06803   -0.803258
 O 0.7045 0.4364 0.47957   -0.632201
 O 0.4473 0.4538 0.3849   -0.607972
 O 0.6956 0.0774 0.73269   -0.778849
 O 0.667 0.2653 0.64739   -0.762901
 O 0.9064 0.6547 0.57079   -0.772066
 O 0.9814 0.6921 0.43197   -0.803258
 O 0.7955 0.9364 0.02043   -0.632202
 O 0.0527 0.9538 0.1151   -0.607972
 O 0.1956 0.4226 0.23269   -0.77885
 O 0.167 0.2347 0.14739   -0.762901
 O 0.4064 0.8453 0.07079   -0.772066
 O 0.4814 0.8079 0.93197   -0.803258
 O 0.2955 0.5636 0.52043   -0.632199
 O 0.5527 0.5462 0.6151   -0.60797
 O 0.3044 0.9226 0.26731   -0.77885
 O 0.333 0.7347 0.35261   -0.762901
 O 0.0936 0.3453 0.42921   -0.772066
 O 0.0186 0.3079 0.56803   -0.803258
 O 0.2045 0.0636 0.97957   -0.632199
 O 0.9473 0.0462 0.8849   -0.60797
