{'_ref': 'TBD', '_srcid': 'CAKYAQ_clean', 'submitters': [{'name': 'Dalar Nazarian Jeff Camp and David Sholl', 'email': 'dalar@gatech.edu jcamp6@gatech.edu'}], '_method': 'VASP DFT with PBE;DDEC'}
data_Zn2H6C12O7
_symmetry_space_group_name_H-M   'P 1'
_cell_length_a   14.46690000
_cell_length_b   17.04600000
_cell_length_c   18.02000000
_cell_angle_alpha   90.00000000
_cell_angle_beta   90.00000000
_cell_angle_gamma   90.00000000
_symmetry_Int_Tables_number   1
_chemical_formula_structural   Zn2H6C12O7
_chemical_formula_sum   'Zn16 H48 C96 O56'
_cell_volume   4443.78204875
_cell_formula_units_Z   8
loop_
 _symmetry_equiv_pos_site_id
 _symmetry_equiv_pos_as_xyz
  1  'x, y, z'
loop_
 _atom_site_label
 _atom_site_fract_x
 _atom_site_fract_y
 _atom_site_fract_z
 _atom_site_charge
 Zn 0.84644 0.94473 0.60166   1.024601
 Zn 0.05399 0.93639 0.54667   1.122065
 Zn 0.15356 0.44473 0.89834   1.024601
 Zn 0.94601 0.43639 0.95333   1.122065
 Zn 0.15356 0.05527 0.39834   1.024601
 Zn 0.94601 0.06361 0.45333   1.122065
 Zn 0.84644 0.55527 0.10166   1.024601
 Zn 0.05399 0.56361 0.04667   1.122065
 Zn 0.65356 0.05527 0.10166   1.024601
 Zn 0.44601 0.06361 0.04667   1.122065
 Zn 0.34644 0.55527 0.39834   1.024601
 Zn 0.55399 0.56361 0.45333   1.122065
 Zn 0.34644 0.94473 0.89834   1.024601
 Zn 0.55399 0.93639 0.95333   1.122065
 Zn 0.65356 0.44473 0.60166   1.024601
 Zn 0.44601 0.43639 0.54667   1.122065
 H 0.1334 0.1212 0.6939   0.116185
 H 0.1638 0.2304 0.766   0.110193
 H 0.9091 0.2202 0.8471   0.102296
 H 0.8774 0.1111 0.7792   0.11372
 H 0.5788 0.0646 0.5923   0.097816
 H 0.5631 0.892 0.4443   0.086272
 H 0.8666 0.6212 0.8061   0.116185
 H 0.8362 0.7304 0.734   0.110193
 H 0.0909 0.7202 0.6529   0.102296
 H 0.1226 0.6111 0.7208   0.11372
 H 0.4212 0.5646 0.9077   0.097816
 H 0.4369 0.392 0.0557   0.086272
 H 0.8666 0.8788 0.3061   0.116185
 H 0.8362 0.7696 0.234   0.110193
 H 0.0909 0.7798 0.1529   0.102296
 H 0.1226 0.8889 0.2208   0.11372
 H 0.4212 0.9354 0.4077   0.097815
 H 0.4369 0.108 0.5557   0.086271
 H 0.1334 0.3788 0.1939   0.116185
 H 0.1638 0.2696 0.266   0.110193
 H 0.9091 0.2798 0.3471   0.102296
 H 0.8774 0.3889 0.2792   0.11372
 H 0.5788 0.4354 0.0923   0.097815
 H 0.5631 0.608 0.9443   0.086271
 H 0.3666 0.8788 0.1939   0.116185
 H 0.3362 0.7696 0.266   0.110193
 H 0.5909 0.7798 0.3471   0.102296
 H 0.6226 0.8889 0.2792   0.113721
 H 0.9212 0.9354 0.0923   0.097816
 H 0.9369 0.108 0.9443   0.086272
 H 0.6334 0.3788 0.3061   0.116185
 H 0.6638 0.2696 0.234   0.110193
 H 0.4091 0.2798 0.1529   0.102296
 H 0.3774 0.3889 0.2208   0.113721
 H 0.0788 0.4354 0.4077   0.097816
 H 0.0631 0.608 0.5557   0.086272
 H 0.6334 0.1212 0.8061   0.116185
 H 0.6638 0.2304 0.734   0.110193
 H 0.4091 0.2202 0.6529   0.102296
 H 0.3774 0.1111 0.7208   0.113721
 H 0.0788 0.0646 0.9077   0.097815
 H 0.0631 0.892 0.0557   0.086271
 H 0.3666 0.6212 0.6939   0.116185
 H 0.3362 0.7304 0.766   0.110193
 H 0.5909 0.7202 0.8471   0.102296
 H 0.6226 0.6111 0.7792   0.113721
 H 0.9212 0.5646 0.5923   0.097815
 H 0.9369 0.392 0.4443   0.086271
 C 0.9808 0.0354 0.6779   0.684251
 C 0.0016 0.1041 0.7276   -0.116157
 C 0.0876 0.1411 0.7248   -0.056038
 C 0.1057 0.2072 0.7676   -0.042243
 C 0.0384 0.2382 0.812   -0.129634
 C 0.9544 0.2003 0.8157   -0.044332
 C 0.935 0.135 0.7752   -0.055748
 C 0.0531 0.3111 0.855   0.729371
 C 0.6813 0.9437 0.5438   0.628028
 C 0.5868 0.9733 0.5227   -0.105829
 C 0.5474 0.038 0.5549   -0.048449
 C 0.5377 0.9359 0.4672   -0.05064
 C 0.0192 0.5354 0.8221   0.684251
 C 0.9984 0.6041 0.7724   -0.116157
 C 0.9124 0.6411 0.7752   -0.056038
 C 0.8943 0.7072 0.7324   -0.042243
 C 0.9616 0.7382 0.688   -0.129634
 C 0.0456 0.7003 0.6843   -0.044332
 C 0.065 0.635 0.7248   -0.055748
 C 0.9469 0.8111 0.645   0.729371
 C 0.3187 0.4437 0.9562   0.628028
 C 0.4132 0.4733 0.9773   -0.105829
 C 0.4526 0.538 0.9451   -0.048449
 C 0.4623 0.4359 0.0328   -0.05064
 C 0.0192 0.9646 0.3221   0.684251
 C 0.9984 0.8959 0.2724   -0.116157
 C 0.9124 0.8589 0.2752   -0.056039
 C 0.8943 0.7928 0.2324   -0.042243
 C 0.9616 0.7618 0.188   -0.129634
 C 0.0456 0.7997 0.1843   -0.044332
 C 0.065 0.865 0.2248   -0.055748
 C 0.9469 0.6889 0.145   0.729371
 C 0.3187 0.0563 0.4562   0.628029
 C 0.4132 0.0267 0.4773   -0.105832
 C 0.4526 0.962 0.4451   -0.048441
 C 0.4623 0.0641 0.5328   -0.050632
 C 0.9808 0.4646 0.1779   0.684251
 C 0.0016 0.3959 0.2276   -0.116157
 C 0.0876 0.3589 0.2248   -0.056039
 C 0.1057 0.2928 0.2676   -0.042243
 C 0.0384 0.2618 0.312   -0.129634
 C 0.9544 0.2997 0.3157   -0.044332
 C 0.935 0.365 0.2752   -0.055748
 C 0.0531 0.1889 0.355   0.729371
 C 0.6813 0.5563 0.0438   0.628029
 C 0.5868 0.5267 0.0227   -0.105832
 C 0.5474 0.462 0.0549   -0.048441
 C 0.5377 0.5641 0.9672   -0.050632
 C 0.5192 0.9646 0.1779   0.684251
 C 0.4984 0.8959 0.2276   -0.116157
 C 0.4124 0.8589 0.2248   -0.056039
 C 0.3943 0.7928 0.2676   -0.042243
 C 0.4616 0.7618 0.312   -0.129634
 C 0.5456 0.7997 0.3157   -0.044332
 C 0.565 0.865 0.2752   -0.055749
 C 0.4469 0.6889 0.355   0.72937
 C 0.8187 0.0563 0.0438   0.628028
 C 0.9132 0.0267 0.0227   -0.105829
 C 0.9526 0.962 0.0549   -0.048449
 C 0.9623 0.0641 0.9672   -0.05064
 C 0.4808 0.4646 0.3221   0.684251
 C 0.5016 0.3959 0.2724   -0.116157
 C 0.5876 0.3589 0.2752   -0.056039
 C 0.6057 0.2928 0.2324   -0.042243
 C 0.5384 0.2618 0.188   -0.129634
 C 0.4544 0.2997 0.1843   -0.044332
 C 0.435 0.365 0.2248   -0.055749
 C 0.5531 0.1889 0.145   0.729371
 C 0.1813 0.5563 0.4562   0.628028
 C 0.0868 0.5267 0.4773   -0.105829
 C 0.0474 0.462 0.4451   -0.048449
 C 0.0377 0.5641 0.5328   -0.05064
 C 0.4808 0.0354 0.8221   0.684251
 C 0.5016 0.1041 0.7724   -0.116157
 C 0.5876 0.1411 0.7752   -0.056039
 C 0.6057 0.2072 0.7324   -0.042243
 C 0.5384 0.2382 0.688   -0.129634
 C 0.4544 0.2003 0.6843   -0.044332
 C 0.435 0.135 0.7248   -0.055749
 C 0.5531 0.3111 0.645   0.72937
 C 0.1813 0.9437 0.9562   0.628029
 C 0.0868 0.9733 0.9773   -0.105832
 C 0.0474 0.038 0.9451   -0.048441
 C 0.0377 0.9359 0.0328   -0.050632
 C 0.5192 0.5354 0.6779   0.684251
 C 0.4984 0.6041 0.7276   -0.116157
 C 0.4124 0.6411 0.7248   -0.056039
 C 0.3943 0.7072 0.7676   -0.042243
 C 0.4616 0.7382 0.812   -0.129634
 C 0.5456 0.7003 0.8157   -0.044332
 C 0.565 0.635 0.7752   -0.055749
 C 0.4469 0.8111 0.855   0.729371
 C 0.8187 0.4437 0.5438   0.628029
 C 0.9132 0.4733 0.5227   -0.105832
 C 0.9526 0.538 0.5549   -0.048441
 C 0.9623 0.4359 0.4672   -0.050632
 O 0.918 0.9615 0.5111   -0.796168
 O 0.898 0.0119 0.6803   -0.563849
 O 0.0443 0.0099 0.6386   -0.583455
 O 0.9879 0.3389 0.8903   -0.633465
 O 0.1346 0.3406 0.8534   -0.587197
 O 0.7199 0.9801 0.5975   -0.558762
 O 0.7171 0.8897 0.5098   -0.442836
 O 0.082 0.4615 0.9889   -0.796168
 O 0.102 0.5119 0.8197   -0.563849
 O 0.9557 0.5099 0.8614   -0.583455
 O 0.0121 0.8389 0.6097   -0.633465
 O 0.8654 0.8406 0.6466   -0.587197
 O 0.2801 0.4801 0.9025   -0.558762
 O 0.2829 0.3897 0.9902   -0.442836
 O 0.082 0.0385 0.4889   -0.796168
 O 0.102 0.9881 0.3197   -0.563849
 O 0.9557 0.9901 0.3614   -0.583455
 O 0.0121 0.6611 0.1097   -0.633465
 O 0.8654 0.6594 0.1466   -0.587197
 O 0.2801 0.0199 0.4025   -0.558762
 O 0.2829 0.1103 0.4902   -0.442836
 O 0.918 0.5385 0.0111   -0.796168
 O 0.898 0.4881 0.1803   -0.563849
 O 0.0443 0.4901 0.1386   -0.583455
 O 0.9879 0.1611 0.3903   -0.633465
 O 0.1346 0.1594 0.3534   -0.587197
 O 0.7199 0.5199 0.0975   -0.558762
 O 0.7171 0.6103 0.0098   -0.442836
 O 0.582 0.0385 0.0111   -0.796168
 O 0.602 0.9881 0.1803   -0.563849
 O 0.4557 0.9901 0.1386   -0.583455
 O 0.5121 0.6611 0.3903   -0.633465
 O 0.3654 0.6594 0.3534   -0.587197
 O 0.7801 0.0199 0.0975   -0.558762
 O 0.7829 0.1103 0.0098   -0.442836
 O 0.418 0.5385 0.4889   -0.796168
 O 0.398 0.4881 0.3197   -0.563849
 O 0.5443 0.4901 0.3614   -0.583455
 O 0.4879 0.1611 0.1097   -0.633465
 O 0.6346 0.1594 0.1466   -0.587197
 O 0.2199 0.5199 0.4025   -0.558762
 O 0.2171 0.6103 0.4902   -0.442836
 O 0.418 0.9615 0.9889   -0.796168
 O 0.398 0.0119 0.8197   -0.563849
 O 0.5443 0.0099 0.8614   -0.583455
 O 0.4879 0.3389 0.6097   -0.633465
 O 0.6346 0.3406 0.6466   -0.587197
 O 0.2199 0.9801 0.9025   -0.558762
 O 0.2171 0.8897 0.9902   -0.442836
 O 0.582 0.4615 0.5111   -0.796168
 O 0.602 0.5119 0.6803   -0.563849
 O 0.4557 0.5099 0.6386   -0.583455
 O 0.5121 0.8389 0.8903   -0.633465
 O 0.3654 0.8406 0.8534   -0.587197
 O 0.7801 0.4801 0.5975   -0.558762
 O 0.7829 0.3897 0.5098   -0.442836
