{'_ref': 'TBD', '_srcid': 'CAKYAQ_clean', 'submitters': [{'name': 'Dalar Nazarian Jeff Camp and David Sholl', 'email': 'dalar@gatech.edu jcamp6@gatech.edu'}], '_method': 'VASP DFT with PBE;DDEC'}
data_Sm2Cu7H28C42I6(NO2)7
_symmetry_space_group_name_H-M   'P 1'
_cell_length_a   7.08070000
_cell_length_b   18.18739978
_cell_length_c   24.82370000
_cell_angle_alpha   90.00000000
_cell_angle_beta   90.00000000
_cell_angle_gamma   99.02199864
_symmetry_Int_Tables_number   1
_chemical_formula_structural   Sm2Cu7H28C42I6(NO2)7
_chemical_formula_sum   'Sm4 Cu14 H56 C84 I12 N14 O28'
_cell_volume   3157.23425227
_cell_formula_units_Z   2
loop_
 _symmetry_equiv_pos_site_id
 _symmetry_equiv_pos_as_xyz
  1  'x, y, z'
loop_
 _atom_site_label
 _atom_site_fract_x
 _atom_site_fract_y
 _atom_site_fract_z
 _atom_site_charge
 Sm 0.78245 0.98433 0.59738   2.259875
 Sm 0.21755 0.01567 0.09738   2.259875
 Sm 0.21755 0.01567 0.40262   2.259859
 Sm 0.78245 0.98433 0.90262   2.259859
 Cu 0.24945 0.55362 0.68351   0.137
 Cu 0.17511 0.43904 0.58043   0.164386
 Cu 0.3779 0.54483 0.49216   0.134982
 Cu 0.75055 0.44638 0.18351   0.137
 Cu 0.82489 0.56096 0.08043   0.164386
 Cu 0.6221 0.45517 0.99216   0.134982
 Cu 0.75055 0.44638 0.31649   0.137002
 Cu 0.82489 0.56096 0.41957   0.164386
 Cu 0.6221 0.45517 0.50784   0.134983
 Cu 0.24945 0.55362 0.81649   0.137002
 Cu 0.17511 0.43904 0.91957   0.164386
 Cu 0.3779 0.54483 0.00784   0.134983
 Cu 0.23019 0.43285 0.75   0.101946
 Cu 0.76981 0.56715 0.25   0.101946
 H 0.3001 0.8286 0.6583   0.126244
 H 0.4053 0.7169 0.6747   0.076383
 H 0.8926 0.6082 0.6559   0.052619
 H 0.7743 0.7152 0.6399   0.122538
 H 0.197 0.2171 0.4651   0.114713
 H 0.1968 0.3395 0.4853   0.059524
 H 0.1121 0.293 0.6363   0.06407
 H 0.1004 0.1688 0.621   0.126886
 H 0.6976 0.194 0.4724   0.121432
 H 0.6808 0.3165 0.4537   0.063262
 H 0.5874 0.3568 0.6043   0.068024
 H 0.6125 0.2368 0.6276   0.133469
 H 0.6999 0.1714 0.1583   0.126244
 H 0.5947 0.2831 0.1747   0.076383
 H 0.1074 0.3918 0.1559   0.052619
 H 0.2257 0.2848 0.1399   0.122538
 H 0.803 0.7829 0.9651   0.114713
 H 0.8032 0.6605 0.9853   0.059524
 H 0.8879 0.707 0.1363   0.06407
 H 0.8996 0.8312 0.121   0.126886
 H 0.3024 0.806 0.9724   0.121432
 H 0.3192 0.6835 0.9537   0.063262
 H 0.4126 0.6432 0.1043   0.068024
 H 0.3875 0.7632 0.1276   0.133469
 H 0.6999 0.1714 0.3417   0.126242
 H 0.5947 0.2831 0.3253   0.076383
 H 0.1074 0.3918 0.3441   0.052619
 H 0.2257 0.2848 0.3601   0.122539
 H 0.803 0.7829 0.5349   0.114714
 H 0.8032 0.6605 0.5147   0.059524
 H 0.8879 0.707 0.3637   0.06407
 H 0.8996 0.8312 0.379   0.126886
 H 0.3024 0.806 0.5276   0.121432
 H 0.3192 0.6835 0.5463   0.063262
 H 0.4126 0.6432 0.3957   0.068024
 H 0.3875 0.7632 0.3724   0.133469
 H 0.3001 0.8286 0.8417   0.126242
 H 0.4053 0.7169 0.8253   0.076383
 H 0.8926 0.6082 0.8441   0.052619
 H 0.7743 0.7152 0.8601   0.122539
 H 0.197 0.2171 0.0349   0.114714
 H 0.1968 0.3395 0.0147   0.059524
 H 0.1121 0.293 0.8637   0.06407
 H 0.1004 0.1688 0.879   0.126886
 H 0.6976 0.194 0.0276   0.121432
 H 0.6808 0.3165 0.0463   0.063262
 H 0.5874 0.3568 0.8957   0.068024
 H 0.6125 0.2368 0.8724   0.133469
 H 0.7703 0.2894 0.75   0.105864
 H 0.6173 0.3913 0.75   0.042637
 H 0.1213 0.2651 0.75   0.078779
 H 0.261 0.1601 0.75   0.137037
 H 0.2297 0.7106 0.25   0.105864
 H 0.3827 0.6087 0.25   0.042637
 H 0.8787 0.7349 0.25   0.078779
 H 0.739 0.8399 0.25   0.137037
 C 0.9471 0.8562 0.6355   0.675692
 C 0.0246 0.7851 0.6478   -0.021026
 C 0.2139 0.7844 0.6579   -0.133133
 C 0.2761 0.7166 0.6677   0.120722
 C 0.9762 0.653 0.6568   0.137392
 C 0.9039 0.7171 0.647   -0.136243
 C 0.1405 0.0965 0.5275   0.83579
 C 0.1455 0.1778 0.5405   -0.112374
 C 0.177 0.231 0.5004   -0.113741
 C 0.1788 0.3047 0.513   0.121655
 C 0.1281 0.2774 0.6012   0.135563
 C 0.1211 0.2024 0.5925   -0.107103
 C 0.6736 0.1225 0.5669   0.650064
 C 0.6546 0.2013 0.5521   -0.029628
 C 0.6757 0.2262 0.5   -0.132085
 C 0.664 0.2997 0.489   0.114094
 C 0.6106 0.3237 0.5775   0.12564
 C 0.6239 0.2515 0.5918   -0.120454
 C 0.0529 0.1438 0.1355   0.675692
 C 0.9754 0.2149 0.1478   -0.021026
 C 0.7861 0.2156 0.1579   -0.133133
 C 0.7239 0.2834 0.1677   0.120722
 C 0.0238 0.347 0.1568   0.137392
 C 0.0961 0.2829 0.147   -0.136243
 C 0.8595 0.9035 0.0275   0.83579
 C 0.8545 0.8222 0.0405   -0.112374
 C 0.823 0.769 0.000399999999999   -0.113741
 C 0.8212 0.6953 0.013   0.121655
 C 0.8719 0.7226 0.1012   0.135563
 C 0.8789 0.7976 0.0925   -0.107103
 C 0.3264 0.8775 0.0669   0.650064
 C 0.3454 0.7987 0.0521   -0.029628
 C 0.3243 0.7738 0.0   -0.132085
 C 0.336 0.7003 0.989   0.114094
 C 0.3894 0.6763 0.0775   0.12564
 C 0.3761 0.7485 0.0918   -0.120454
 C 0.0529 0.1438 0.3645   0.67569
 C 0.9754 0.2149 0.3522   -0.021027
 C 0.7861 0.2156 0.3421   -0.133136
 C 0.7239 0.2834 0.3323   0.120723
 C 0.0238 0.347 0.3432   0.137393
 C 0.0961 0.2829 0.353   -0.136242
 C 0.8595 0.9035 0.4725   0.83579
 C 0.8545 0.8222 0.4595   -0.112374
 C 0.823 0.769 0.4996   -0.113741
 C 0.8212 0.6953 0.487   0.121655
 C 0.8719 0.7226 0.3988   0.135563
 C 0.8789 0.7976 0.4075   -0.107103
 C 0.3264 0.8775 0.4331   0.650064
 C 0.3454 0.7987 0.4479   -0.029628
 C 0.3243 0.7738 0.5   -0.132085
 C 0.336 0.7003 0.511   0.114094
 C 0.3894 0.6763 0.4225   0.12564
 C 0.3761 0.7485 0.4082   -0.120454
 C 0.9471 0.8562 0.8645   0.67569
 C 0.0246 0.7851 0.8522   -0.021027
 C 0.2139 0.7844 0.8421   -0.133136
 C 0.2761 0.7166 0.8323   0.120723
 C 0.9762 0.653 0.8432   0.137393
 C 0.9039 0.7171 0.853   -0.136242
 C 0.1405 0.0965 0.9725   0.83579
 C 0.1455 0.1778 0.9595   -0.112374
 C 0.177 0.231 0.9996   -0.113741
 C 0.1788 0.3047 0.987   0.121655
 C 0.1281 0.2774 0.8988   0.135563
 C 0.1211 0.2024 0.9075   -0.107103
 C 0.6736 0.1225 0.9331   0.650064
 C 0.6546 0.2013 0.9479   -0.029628
 C 0.6757 0.2262 0.0   -0.132085
 C 0.664 0.2997 0.011   0.114094
 C 0.6106 0.3237 0.9225   0.12564
 C 0.6239 0.2515 0.9082   -0.120454
 C 0.6362 0.1432 0.75   0.679134
 C 0.5338 0.2122 0.75   0.002343
 C 0.6374 0.2829 0.75   -0.161068
 C 0.5443 0.3441 0.75   0.120978
 C 0.2541 0.2705 0.75   0.11946
 C 0.3373 0.2067 0.75   -0.1443
 C 0.3638 0.8568 0.25   0.679134
 C 0.4662 0.7878 0.25   0.002343
 C 0.3626 0.7171 0.25   -0.161068
 C 0.4557 0.6559 0.25   0.120978
 C 0.7459 0.7295 0.25   0.11946
 C 0.6627 0.7933 0.25   -0.1443
 I 0.98055 0.44317 0.6702   -0.195365
 I 0.50937 0.52974 0.58947   -0.197817
 I 0.01945 0.55683 0.1702   -0.195365
 I 0.49063 0.47026 0.08947   -0.197817
 I 0.01945 0.55683 0.3298   -0.195366
 I 0.49063 0.47026 0.41053   -0.197817
 I 0.98055 0.44317 0.8298   -0.195366
 I 0.50937 0.52974 0.91053   -0.197817
 I 0.52586 0.55746 0.75   -0.218852
 I 0.47414 0.44254 0.25   -0.218852
 I 0.0 0.5 0.5   -0.286062
 I 0.0 0.5 0.0   -0.286062
 N 0.1605 0.6513 0.6675   -0.211074
 N 0.1559 0.3288 0.5633   -0.225945
 N 0.6294 0.3479 0.5272   -0.211938
 N 0.8395 0.3487 0.1675   -0.211074
 N 0.8441 0.6712 0.0633   -0.225945
 N 0.3706 0.6521 0.0272   -0.211938
 N 0.8395 0.3487 0.3325   -0.211074
 N 0.8441 0.6712 0.4367   -0.225945
 N 0.3706 0.6521 0.4728   -0.211938
 N 0.1605 0.6513 0.8325   -0.211074
 N 0.1559 0.3288 0.9367   -0.225945
 N 0.6294 0.3479 0.9728   -0.211938
 N 0.3514 0.3386 0.75   -0.235627
 N 0.6486 0.6614 0.25   -0.235627
 O 0.0605 0.9141 0.6263   -0.661218
 O 0.769 0.8536 0.6336   -0.745884
 O 0.207 0.0817 0.48268   -0.759509
 O 0.0747 0.0497 0.56224   -0.726948
 O 0.6979 0.0774 0.52971   -0.687816
 O 0.6733 0.1043 0.61494   -0.68647
 O 0.9395 0.0859 0.1263   -0.661218
 O 0.231 0.1464 0.1336   -0.745884
 O 0.793 0.9183 0.98268   -0.759509
 O 0.9253 0.9503 0.06224   -0.726948
 O 0.3021 0.9226 0.02971   -0.687816
 O 0.3267 0.8957 0.11494   -0.68647
 O 0.9395 0.0859 0.3737   -0.661218
 O 0.231 0.1464 0.3664   -0.745884
 O 0.793 0.9183 0.51732   -0.75951
 O 0.9253 0.9503 0.43776   -0.726948
 O 0.3021 0.9226 0.47029   -0.687816
 O 0.3267 0.8957 0.38506   -0.68647
 O 0.0605 0.9141 0.8737   -0.661218
 O 0.769 0.8536 0.8664   -0.745884
 O 0.207 0.0817 0.01732   -0.75951
 O 0.0747 0.0497 0.93776   -0.726948
 O 0.6979 0.0774 0.97029   -0.687816
 O 0.6733 0.1043 0.88506   -0.68647
 O 0.8099 0.1528 0.75   -0.671189
 O 0.5314 0.0816 0.75   -0.723557
 O 0.1901 0.8472 0.25   -0.671189
 O 0.4686 0.9184 0.25   -0.723557
