{'_ref': 'TBD', '_srcid': 'CAKYAQ_clean', 'submitters': [{'name': 'Dalar Nazarian Jeff Camp and David Sholl', 'email': 'dalar@gatech.edu jcamp6@gatech.edu'}], '_method': 'VASP DFT with PBE;DDEC'}
data_MnH2(CO2)2
_symmetry_space_group_name_H-M   'P 1'
_cell_length_a   10.17200000
_cell_length_b   11.71899958
_cell_length_c   14.92000000
_cell_angle_alpha   91.55299921
_cell_angle_beta   90.00000000
_cell_angle_gamma   90.00000000
_symmetry_Int_Tables_number   1
_chemical_formula_structural   MnH2(CO2)2
_chemical_formula_sum   'Mn12 H24 C24 O48'
_cell_volume   1777.8952129
_cell_formula_units_Z   12
loop_
 _symmetry_equiv_pos_site_id
 _symmetry_equiv_pos_as_xyz
  1  'x, y, z'
loop_
 _atom_site_label
 _atom_site_fract_x
 _atom_site_fract_y
 _atom_site_fract_z
 _atom_site_charge
 Mn 0.92004 0.7428 0.86897   1.159705
 Mn 0.10572 0.76022 0.68633   1.147005
 Mn 0.42004 0.7572 0.63103   1.159705
 Mn 0.60572 0.73978 0.81367   1.147005
 Mn 0.07996 0.2572 0.13103   1.159705
 Mn 0.89428 0.23978 0.31367   1.147005
 Mn 0.57996 0.2428 0.36897   1.159705
 Mn 0.39428 0.26022 0.18633   1.147005
 Mn 0.0 0.0 0.0   1.160749
 Mn 0.5 0.5 0.5   1.160749
 Mn 0.0 0.5 0.0   1.17538
 Mn 0.5 0.0 0.5   1.17538
 H 0.0305 0.0203 0.7364   0.010406
 H 0.6206 0.9369 0.9619   0.004874
 H 0.7556 0.6393 0.6346   -0.004196
 H 0.705 0.5039 0.9833   0.008216
 H 0.1953 0.5266 0.7709   -9.7e-05
 H 0.1561 0.8005 0.0728   0.007178
 H 0.5305 0.4797 0.7636   0.010406
 H 0.1206 0.5631 0.5381   0.004874
 H 0.2556 0.8607 0.8654   -0.004196
 H 0.205 0.9961 0.5167   0.008215
 H 0.6953 0.9734 0.7291   -9.7e-05
 H 0.6561 0.6995 0.4272   0.007178
 H 0.9695 0.9797 0.2636   0.010406
 H 0.3794 0.0631 0.0381   0.004871
 H 0.2444 0.3607 0.3654   -0.004196
 H 0.295 0.4961 0.0167   0.008215
 H 0.8047 0.4734 0.2291   -9.7e-05
 H 0.8439 0.1995 0.9272   0.007178
 H 0.4695 0.5203 0.2364   0.010406
 H 0.8794 0.4369 0.4619   0.004871
 H 0.7444 0.1393 0.1346   -0.004196
 H 0.795 0.0039 0.4833   0.008214
 H 0.3047 0.0266 0.2709   -9.7e-05
 H 0.3439 0.3005 0.5728   0.007178
 C 0.0114 0.9799 0.7892   0.68075
 C 0.7115 0.9223 0.95283   0.685815
 C 0.8248 0.6702 0.67049   0.694398
 C 0.7215 0.5662 0.94544   0.697503
 C 0.1329 0.5517 0.8146   0.686191
 C 0.1018 0.7581 0.0322   0.699876
 C 0.5114 0.5201 0.7108   0.68075
 C 0.2115 0.5777 0.54717   0.685815
 C 0.3248 0.8298 0.82951   0.694397
 C 0.2215 0.9338 0.55456   0.697504
 C 0.6329 0.9483 0.6854   0.686191
 C 0.6018 0.7419 0.4678   0.699875
 C 0.9886 0.0201 0.2108   0.68075
 C 0.2885 0.0777 0.04717   0.685816
 C 0.1752 0.3298 0.32951   0.694398
 C 0.2785 0.4338 0.05456   0.697504
 C 0.8671 0.4483 0.1854   0.686191
 C 0.8982 0.2419 0.9678   0.699875
 C 0.4886 0.4799 0.2892   0.68075
 C 0.7885 0.4223 0.45283   0.685816
 C 0.6752 0.1702 0.17049   0.694397
 C 0.7785 0.0662 0.44544   0.697504
 C 0.3671 0.0517 0.3146   0.686191
 C 0.3982 0.2581 0.5322   0.699875
 O 0.00518 0.87188 0.78162   -0.672048
 O 0.74147 0.8459 0.89339   -0.680486
 O 0.79811 0.69403 0.75216   -0.67196
 O 0.8408 0.59949 0.93906   -0.673429
 O 0.08091 0.6489 0.80369   -0.674308
 O 0.0296 0.81477 0.97942   -0.676696
 O 0.9949 0.03732 0.85891   -0.601682
 O 0.7887 0.97883 0.99936   -0.585784
 O 0.62613 0.60718 0.90726   -0.599312
 O 0.1099 0.48659 0.87646   -0.59866
 O 0.1073 0.65307 0.03505   -0.608755
 O 0.9323 0.68331 0.63317   -0.602568
 O 0.50518 0.62812 0.71838   -0.672048
 O 0.24147 0.6541 0.60661   -0.680486
 O 0.29811 0.80597 0.74784   -0.67196
 O 0.3408 0.90051 0.56094   -0.673429
 O 0.58091 0.8511 0.69631   -0.674308
 O 0.5296 0.68523 0.52058   -0.676696
 O 0.4949 0.46268 0.64109   -0.601682
 O 0.2887 0.52117 0.50064   -0.585784
 O 0.12613 0.89282 0.59274   -0.599312
 O 0.6099 0.01341 0.62354   -0.59866
 O 0.6073 0.84693 0.46495   -0.608754
 O 0.4323 0.81669 0.86683   -0.602568
 O 0.99482 0.12812 0.21838   -0.672048
 O 0.25853 0.1541 0.10661   -0.680486
 O 0.20189 0.30597 0.24784   -0.67196
 O 0.1592 0.40051 0.06094   -0.673429
 O 0.91909 0.3511 0.19631   -0.674308
 O 0.9704 0.18523 0.02058   -0.676696
 O 0.0051 0.96268 0.14109   -0.601682
 O 0.2113 0.02117 0.000639999999997   -0.585784
 O 0.37387 0.39282 0.09274   -0.599312
 O 0.8901 0.51341 0.12354   -0.59866
 O 0.8927 0.34693 0.96495   -0.608755
 O 0.0677 0.31669 0.36683   -0.602568
 O 0.49482 0.37188 0.28162   -0.672048
 O 0.75853 0.3459 0.39339   -0.680486
 O 0.70189 0.19403 0.25216   -0.67196
 O 0.6592 0.09949 0.43906   -0.673429
 O 0.41909 0.1489 0.30369   -0.674308
 O 0.4704 0.31477 0.47942   -0.676696
 O 0.5051 0.53732 0.35891   -0.601682
 O 0.7113 0.47883 0.49936   -0.585784
 O 0.87387 0.10718 0.40726   -0.599312
 O 0.3901 0.98659 0.37646   -0.59866
 O 0.3927 0.15307 0.53505   -0.608754
 O 0.5677 0.18331 0.13317   -0.602568
