{'_ref': 'TBD', '_srcid': 'CAKYAQ_clean', 'submitters': [{'name': 'Dalar Nazarian Jeff Camp and David Sholl', 'email': 'dalar@gatech.edu jcamp6@gatech.edu'}], '_method': 'VASP DFT with PBE;DDEC'}
data_LaCuH8C14(NO4)2
_symmetry_space_group_name_H-M   'P 1'
_cell_length_a   9.15500000
_cell_length_b   9.54540027
_cell_length_c   21.56790000
_cell_angle_alpha   90.00000000
_cell_angle_beta   90.00000000
_cell_angle_gamma   116.27800151
_symmetry_Int_Tables_number   1
_chemical_formula_structural   LaCuH8C14(NO4)2
_chemical_formula_sum   'La4 Cu4 H32 C56 N8 O32'
_cell_volume   1689.99899162
_cell_formula_units_Z   4
loop_
 _symmetry_equiv_pos_site_id
 _symmetry_equiv_pos_as_xyz
  1  'x, y, z'
loop_
 _atom_site_label
 _atom_site_fract_x
 _atom_site_fract_y
 _atom_site_fract_z
 _atom_site_charge
 La 0.12122 0.35765 0.00938   2.1114
 La 0.37878 0.64235 0.50938   2.1114
 La 0.87878 0.64235 0.99062   2.1114
 La 0.62122 0.35765 0.49062   2.1114
 Cu 0.45125 0.30919 0.14575   0.394764
 Cu 0.04875 0.69081 0.64575   0.394764
 Cu 0.54875 0.69081 0.85425   0.394764
 Cu 0.95125 0.30919 0.35425   0.394764
 H 0.2878 0.0214 0.0718   0.081195
 H 0.6975 0.1999 0.1636   0.055669
 H 0.7567 0.0025 0.1325   0.142562
 H 0.5707 0.8025 0.0729   0.098841
 H 0.3841 0.5879 0.1557   0.077038
 H 0.3608 0.7419 0.2329   0.137588
 H 0.4005 0.691 0.3353   0.111655
 H 0.4977 0.3461 0.2757   0.079137
 H 0.2122 0.9786 0.5718   0.081195
 H 0.8025 0.8001 0.6636   0.055669
 H 0.7433 0.9975 0.6325   0.142562
 H 0.9293 0.1975 0.5729   0.098841
 H 0.1159 0.4121 0.6557   0.077038
 H 0.1392 0.2581 0.7329   0.137588
 H 0.0995 0.309 0.8353   0.111655
 H 0.0023 0.6539 0.7757   0.079137
 H 0.7122 0.9786 0.9282   0.081195
 H 0.3025 0.8001 0.8364   0.05567
 H 0.2433 0.9975 0.8675   0.142565
 H 0.4293 0.1975 0.9271   0.098841
 H 0.6159 0.4121 0.8443   0.077038
 H 0.6392 0.2581 0.7671   0.13759
 H 0.5995 0.309 0.6647   0.111655
 H 0.5023 0.6539 0.7243   0.079138
 H 0.7878 0.0214 0.4282   0.081195
 H 0.1975 0.1999 0.3364   0.05567
 H 0.2567 0.0025 0.3675   0.142565
 H 0.0707 0.8025 0.4271   0.098841
 H 0.8841 0.5879 0.3443   0.077038
 H 0.8608 0.7419 0.2671   0.13759
 H 0.9005 0.691 0.1647   0.111655
 H 0.9977 0.3461 0.2243   0.079138
 C 0.2764 0.7601 0.0304   0.747542
 C 0.4066 0.8906 0.067   -0.227999
 C 0.3826 0.0169 0.0846   0.179778
 C 0.624 0.1229 0.1377   0.168196
 C 0.6596 0.0033 0.1203   -0.158178
 C 0.5499 0.8854 0.0849   0.054685
 C 0.9891 0.9929 0.0342   0.525205
 C 0.5034 0.4772 0.0339   0.522674
 C 0.401 0.5672 0.1965   0.187285
 C 0.3869 0.6607 0.2426   -0.196439
 C 0.412 0.6315 0.3032   0.060703
 C 0.4544 0.5124 0.3156   -0.216185
 C 0.4902 0.4751 0.3801   0.724929
 C 0.4672 0.425 0.267   0.150785
 C 0.2236 0.2399 0.5304   0.747542
 C 0.0934 0.1094 0.567   -0.227999
 C 0.1174 0.9831 0.5846   0.179778
 C 0.876 0.8771 0.6377   0.168196
 C 0.8404 0.9967 0.6203   -0.158178
 C 0.9501 0.1146 0.5849   0.054685
 C 0.5109 0.0071 0.5342   0.525205
 C 0.9966 0.5228 0.5339   0.522674
 C 0.099 0.4328 0.6965   0.187285
 C 0.1131 0.3393 0.7426   -0.196439
 C 0.088 0.3685 0.8032   0.060703
 C 0.0456 0.4876 0.8156   -0.216185
 C 0.0098 0.5249 0.8801   0.724929
 C 0.0328 0.575 0.767   0.150785
 C 0.7236 0.2399 0.9696   0.747541
 C 0.5934 0.1094 0.933   -0.227999
 C 0.6174 0.9831 0.9154   0.179778
 C 0.376 0.8771 0.8623   0.168196
 C 0.3404 0.9967 0.8797   -0.158179
 C 0.4501 0.1146 0.9151   0.054685
 C 0.0109 0.0071 0.9658   0.525206
 C 0.4966 0.5228 0.9661   0.522676
 C 0.599 0.4328 0.8035   0.187285
 C 0.6131 0.3393 0.7574   -0.196439
 C 0.588 0.3685 0.6968   0.060703
 C 0.5456 0.4876 0.6844   -0.216184
 C 0.5098 0.5249 0.6199   0.724929
 C 0.5328 0.575 0.733   0.150785
 C 0.7764 0.7601 0.4696   0.747541
 C 0.9066 0.8906 0.433   -0.227999
 C 0.8826 0.0169 0.4154   0.179778
 C 0.124 0.1229 0.3623   0.168196
 C 0.1596 0.0033 0.3797   -0.158179
 C 0.0499 0.8854 0.4151   0.054685
 C 0.4891 0.9929 0.4658   0.525206
 C 0.0034 0.4772 0.4661   0.522676
 C 0.901 0.5672 0.3035   0.187285
 C 0.8869 0.6607 0.2574   -0.196439
 C 0.912 0.6315 0.1968   0.060703
 C 0.9544 0.5124 0.1844   -0.216184
 C 0.9902 0.4751 0.1199   0.724929
 C 0.9672 0.425 0.233   0.150785
 N 0.4906 0.1361 0.12   -0.315675
 N 0.4378 0.448 0.2073   -0.304882
 N 0.0094 0.8639 0.62   -0.315675
 N 0.0622 0.552 0.7073   -0.304882
 N 0.5094 0.8639 0.88   -0.315675
 N 0.5622 0.552 0.7927   -0.304882
 N 0.9906 0.1361 0.38   -0.315675
 N 0.9378 0.448 0.2927   -0.304882
 O 0.2861 0.6327 0.0311   -0.694917
 O 0.1682 0.7848 0.0039   -0.698846
 O 0.0498 0.1159 0.0662   -0.6061
 O 0.9116 0.8565 0.0565   -0.634109
 O 0.3727 0.381 0.0581   -0.58526
 O 0.6386 0.5394 0.0606   -0.594166
 O 0.5578 0.3859 0.3849   -0.645513
 O 0.4514 0.5312 0.4258   -0.733366
 O 0.2139 0.3673 0.5311   -0.694917
 O 0.3318 0.2152 0.5039   -0.698846
 O 0.4502 0.8841 0.5662   -0.6061
 O 0.5884 0.1435 0.5565   -0.634109
 O 0.1273 0.619 0.5581   -0.58526
 O 0.8614 0.4606 0.5606   -0.594166
 O 0.9422 0.6141 0.8849   -0.645513
 O 0.0486 0.4688 0.9258   -0.733366
 O 0.7139 0.3673 0.9689   -0.694917
 O 0.8318 0.2152 0.9961   -0.698846
 O 0.9502 0.8841 0.9338   -0.6061
 O 0.0884 0.1435 0.9435   -0.634109
 O 0.6273 0.619 0.9419   -0.58526
 O 0.3614 0.4606 0.9394   -0.594166
 O 0.4422 0.6141 0.6151   -0.645513
 O 0.5486 0.4688 0.5742   -0.733366
 O 0.7861 0.6327 0.4689   -0.694917
 O 0.6682 0.7848 0.4961   -0.698846
 O 0.5498 0.1159 0.4338   -0.6061
 O 0.4116 0.8565 0.4435   -0.634109
 O 0.8727 0.381 0.4419   -0.58526
 O 0.1386 0.5394 0.4394   -0.594166
 O 0.0578 0.3859 0.1151   -0.645513
 O 0.9514 0.5312 0.0742   -0.733366
