{'_ref': 'TBD', '_srcid': 'CAKYAQ_clean', 'submitters': [{'name': 'Dalar Nazarian Jeff Camp and David Sholl', 'email': 'dalar@gatech.edu jcamp6@gatech.edu'}], '_method': 'VASP DFT with PBE;DDEC'}
data_Zn4H6C18O13
_symmetry_space_group_name_H-M   'P 1'
_cell_length_a   10.57870000
_cell_length_b   10.57870009
_cell_length_c   15.82800000
_cell_angle_alpha   90.00000000
_cell_angle_beta   90.00000000
_cell_angle_gamma   104.37599710
_symmetry_Int_Tables_number   1
_chemical_formula_structural   Zn4H6C18O13
_chemical_formula_sum   'Zn8 H12 C36 O26'
_cell_volume   1715.82991564
_cell_formula_units_Z   2
loop_
 _symmetry_equiv_pos_site_id
 _symmetry_equiv_pos_as_xyz
  1  'x, y, z'
loop_
 _atom_site_label
 _atom_site_fract_x
 _atom_site_fract_y
 _atom_site_fract_z
 _atom_site_charge
 Zn 0.12886 0.23752 0.92379   1.100805
 Zn 0.44207 0.27871 0.94336   1.057942
 Zn 0.87114 0.76248 0.42379   1.100805
 Zn 0.55793 0.72129 0.44336   1.057942
 Zn 0.76248 0.87114 0.57621   1.100804
 Zn 0.72129 0.55793 0.55664   1.057941
 Zn 0.23752 0.12886 0.07621   1.100804
 Zn 0.27871 0.44207 0.05664   1.057941
 H 0.5057 0.0805 0.712   0.129313
 H 0.2539 0.8299 0.5494   0.11183
 H 0.1146 0.0462 0.7163   0.098532
 H 0.4943 0.9195 0.212   0.129313
 H 0.7461 0.1701 0.0494   0.11183
 H 0.8854 0.9538 0.2163   0.098532
 H 0.9195 0.4943 0.788   0.129313
 H 0.1701 0.7461 0.9506   0.11183
 H 0.9538 0.8854 0.7837   0.098532
 H 0.0805 0.5057 0.288   0.129313
 H 0.8299 0.2539 0.4506   0.11183
 H 0.0462 0.1146 0.2837   0.098532
 C 0.3155 0.0891 0.7197   -0.169576
 C 0.4223 0.0507 0.6898   0.018887
 C 0.3893 0.9525 0.6152   -0.203865
 C 0.2675 0.8967 0.5892   0.039921
 C 0.1543 0.9399 0.6229   -0.16059
 C 0.1845 0.0257 0.6884   0.036694
 C 0.329 0.1744 0.7915   0.677943
 C 0.51 0.9014 0.5833   0.697211
 C 0.029 0.896 0.5772   0.675542
 C 0.6845 0.9109 0.2197   -0.169576
 C 0.5777 0.9493 0.1898   0.018887
 C 0.6107 0.0475 0.1152   -0.203865
 C 0.7325 0.1033 0.0892   0.039921
 C 0.8457 0.0601 0.1229   -0.16059
 C 0.8155 0.9743 0.1884   0.036694
 C 0.671 0.8256 0.2915   0.677943
 C 0.49 0.0986 0.0833   0.697211
 C 0.971 0.104 0.0772   0.675542
 C 0.9109 0.6845 0.7803   -0.169576
 C 0.9493 0.5777 0.8102   0.018887
 C 0.0475 0.6107 0.8848   -0.203865
 C 0.1033 0.7325 0.9108   0.039922
 C 0.0601 0.8457 0.8771   -0.16059
 C 0.9743 0.8155 0.8116   0.036694
 C 0.8256 0.671 0.7085   0.677943
 C 0.0986 0.49 0.9167   0.697212
 C 0.104 0.971 0.9228   0.675542
 C 0.0891 0.3155 0.2803   -0.169576
 C 0.0507 0.4223 0.3102   0.018887
 C 0.9525 0.3893 0.3848   -0.203865
 C 0.8967 0.2675 0.4108   0.039922
 C 0.9399 0.1543 0.3771   -0.16059
 C 0.0257 0.1845 0.3116   0.036694
 C 0.1744 0.329 0.2085   0.677943
 C 0.9014 0.51 0.4167   0.697212
 C 0.896 0.029 0.4228   0.675542
 O 0.25091 0.24609 0.8046   -0.59745
 O 0.43129 0.17551 0.84233   -0.609364
 O 0.61707 0.93693 0.6177   -0.521675
 O 0.47487 0.82913 0.5186   -0.616889
 O 0.94366 0.95314 0.60742   -0.589254
 O 0.01113 0.80159 0.5291   -0.581268
 O 0.74909 0.75391 0.3046   -0.59745
 O 0.56871 0.82449 0.34233   -0.609364
 O 0.38293 0.06307 0.1177   -0.521675
 O 0.52513 0.17087 0.0186   -0.616889
 O 0.05634 0.04686 0.10742   -0.589254
 O 0.98887 0.19841 0.0291   -0.581268
 O 0.75391 0.74909 0.6954   -0.59745
 O 0.82449 0.56871 0.65767   -0.609364
 O 0.06307 0.38293 0.8823   -0.521675
 O 0.17087 0.52513 0.9814   -0.616889
 O 0.04686 0.05634 0.89258   -0.589254
 O 0.19841 0.98887 0.9709   -0.581268
 O 0.24609 0.25091 0.1954   -0.59745
 O 0.17551 0.43129 0.15767   -0.609364
 O 0.93693 0.61707 0.3823   -0.521675
 O 0.82913 0.47487 0.4814   -0.616889
 O 0.95314 0.94366 0.39258   -0.589254
 O 0.80159 0.01113 0.4709   -0.581268
 O 0.2832 0.2832 0.0   -1.189382
 O 0.7168 0.7168 0.5   -1.189382
