{'_ref': 'TBD', '_srcid': 'CAKYAQ_clean', 'submitters': [{'name': 'Dalar Nazarian Jeff Camp and David Sholl', 'email': 'dalar@gatech.edu jcamp6@gatech.edu'}], '_method': 'VASP DFT with PBE;DDEC'}
data_V2NiH14C10(NO)4
_symmetry_space_group_name_H-M   'P 1'
_cell_length_a   11.08600000
_cell_length_b   17.97800000
_cell_length_c   17.97800000
_cell_angle_alpha   90.00000000
_cell_angle_beta   90.00000000
_cell_angle_gamma   90.00000000
_symmetry_Int_Tables_number   1
_chemical_formula_structural   V2NiH14C10(NO)4
_chemical_formula_sum   'V16 Ni8 H112 C80 N32 O32'
_cell_volume   3583.08925362
_cell_formula_units_Z   8
loop_
 _symmetry_equiv_pos_site_id
 _symmetry_equiv_pos_as_xyz
  1  'x, y, z'
loop_
 _atom_site_label
 _atom_site_fract_x
 _atom_site_fract_y
 _atom_site_fract_z
 _atom_site_charge
 V 0.09509 0.55968 0.96267   1.142136
 V 0.59509 0.44032 0.03733   1.142136
 V 0.84509 0.53733 0.05968   1.142137
 V 0.34509 0.46267 0.94032   1.142137
 V 0.65491 0.94032 0.46267   1.142136
 V 0.15491 0.05968 0.53733   1.142136
 V 0.90491 0.96267 0.55968   1.142137
 V 0.40491 0.03733 0.44032   1.142137
 V 0.0 0.96063 0.96063   2.149664
 V 0.5 0.03937 0.03937   2.149664
 V 0.75 0.53937 0.46063   2.149664
 V 0.25 0.46063 0.53937   2.149664
 V 0.25 0.06713 0.93287   0.724512
 V 0.75 0.93287 0.06713   0.724512
 V 0.0 0.56713 0.56713   0.724512
 V 0.5 0.43287 0.43287   0.724512
 Ni 0.07769 0.76463 0.97094   0.687184
 Ni 0.57769 0.23537 0.02906   0.687184
 Ni 0.82769 0.52906 0.26463   0.687184
 Ni 0.32769 0.47094 0.73537   0.687184
 Ni 0.67231 0.73537 0.47094   0.68718
 Ni 0.17231 0.26463 0.52906   0.68718
 Ni 0.92231 0.97094 0.76463   0.68718
 Ni 0.42231 0.02906 0.23537   0.68718
 H 0.0373 0.6535 0.1095   0.08224
 H 0.0514 0.6873 0.2408   0.121621
 H 0.1069 0.8662 0.1187   0.091585
 H 0.1643 0.875 0.2613   0.079574
 H 0.0259 0.868 0.2778   0.06983
 H 0.0578 0.7654 0.3522   0.085205
 H 0.1947 0.7629 0.3299   0.065593
 H 0.2252 0.8778 0.3893   0.090908
 H 0.0889 0.8798 0.4119   0.061064
 H 0.1186 0.7759 0.489   0.053367
 H 0.1983 0.8432 0.5142   0.057075
 H 0.2335 0.6514 0.4658   0.127959
 H 0.4449 0.6164 0.4619   0.113127
 H 0.4324 0.8333 0.4743   0.108481
 H 0.5373 0.3465 0.8905   0.08224
 H 0.5514 0.3127 0.7592   0.121621
 H 0.6069 0.1338 0.8813   0.091585
 H 0.6643 0.125 0.7387   0.079574
 H 0.5259 0.132 0.7222   0.06983
 H 0.5578 0.2346 0.6478   0.085205
 H 0.6947 0.2371 0.6701   0.065593
 H 0.7252 0.1222 0.6107   0.090908
 H 0.5889 0.1202 0.5881   0.061064
 H 0.6186 0.2241 0.511   0.053367
 H 0.6983 0.1568 0.4858   0.057075
 H 0.7335 0.3486 0.5342   0.127959
 H 0.9449 0.3836 0.5381   0.113127
 H 0.9324 0.1667 0.5257   0.108481
 H 0.7873 0.3905 0.1535   0.08224
 H 0.8014 0.2592 0.1873   0.121621
 H 0.8569 0.3813 0.3662   0.091585
 H 0.9143 0.2387 0.375   0.079574
 H 0.7759 0.2222 0.368   0.06983
 H 0.8078 0.1478 0.2654   0.085205
 H 0.9447 0.1701 0.2629   0.065593
 H 0.9752 0.1107 0.3778   0.090908
 H 0.8389 0.0881 0.3798   0.061065
 H 0.8686 0.011 0.2759   0.053367
 H 0.9483 0.9858 0.3432   0.057076
 H 0.9835 0.0342 0.1514   0.127959
 H 0.1949 0.0381 0.1164   0.113127
 H 0.1824 0.0257 0.3333   0.108481
 H 0.2873 0.6095 0.8465   0.08224
 H 0.3014 0.7408 0.8127   0.121621
 H 0.3569 0.6187 0.6338   0.091585
 H 0.4143 0.7613 0.625   0.079574
 H 0.2759 0.7778 0.632   0.06983
 H 0.3078 0.8522 0.7346   0.085205
 H 0.4447 0.8299 0.7371   0.065593
 H 0.4752 0.8893 0.6222   0.090908
 H 0.3389 0.9119 0.6202   0.061065
 H 0.3686 0.989 0.7241   0.053367
 H 0.4483 0.0142 0.6568   0.057076
 H 0.4835 0.9658 0.8486   0.127959
 H 0.6949 0.9619 0.8836   0.113127
 H 0.6824 0.9743 0.6667   0.108481
 H 0.7127 0.8465 0.6095   0.08224
 H 0.6986 0.8127 0.7408   0.121621
 H 0.6431 0.6338 0.6187   0.091585
 H 0.5857 0.625 0.7613   0.079574
 H 0.7241 0.632 0.7778   0.06983
 H 0.6922 0.7346 0.8522   0.085205
 H 0.5553 0.7371 0.8299   0.065594
 H 0.5248 0.6222 0.8893   0.090908
 H 0.6611 0.6202 0.9119   0.061064
 H 0.6314 0.7241 0.989   0.053367
 H 0.5517 0.6568 0.0142   0.057075
 H 0.5165 0.8486 0.9658   0.127959
 H 0.3051 0.8836 0.9619   0.113127
 H 0.3176 0.6667 0.9743   0.108481
 H 0.2127 0.1535 0.3905   0.08224
 H 0.1986 0.1873 0.2592   0.121621
 H 0.1431 0.3662 0.3813   0.091585
 H 0.0857 0.375 0.2387   0.079574
 H 0.2241 0.368 0.2222   0.06983
 H 0.1922 0.2654 0.1478   0.085205
 H 0.0553 0.2629 0.1701   0.065594
 H 0.0248 0.3778 0.1107   0.090908
 H 0.1611 0.3798 0.0881   0.061064
 H 0.1314 0.2759 0.011   0.053367
 H 0.0517 0.3432 0.9858   0.057075
 H 0.0165 0.1514 0.0342   0.127959
 H 0.8051 0.1164 0.0381   0.113127
 H 0.8176 0.3333 0.0257   0.108481
 H 0.9627 0.1095 0.6535   0.08224
 H 0.9486 0.2408 0.6873   0.121621
 H 0.8931 0.1187 0.8662   0.091585
 H 0.8357 0.2613 0.875   0.079574
 H 0.9741 0.2778 0.868   0.06983
 H 0.9422 0.3522 0.7654   0.085205
 H 0.8053 0.3299 0.7629   0.065594
 H 0.7748 0.3893 0.8778   0.090908
 H 0.9111 0.4119 0.8798   0.061065
 H 0.8814 0.489 0.7759   0.053367
 H 0.8017 0.5142 0.8432   0.057076
 H 0.7665 0.4658 0.6514   0.127959
 H 0.5551 0.4619 0.6164   0.113128
 H 0.5676 0.4743 0.8333   0.108481
 H 0.4627 0.8905 0.3465   0.08224
 H 0.4486 0.7592 0.3127   0.121621
 H 0.3931 0.8813 0.1338   0.091585
 H 0.3357 0.7387 0.125   0.079574
 H 0.4741 0.7222 0.132   0.06983
 H 0.4422 0.6478 0.2346   0.085205
 H 0.3053 0.6701 0.2371   0.065594
 H 0.2748 0.6107 0.1222   0.090908
 H 0.4111 0.5881 0.1202   0.061065
 H 0.3814 0.511 0.2241   0.053367
 H 0.3017 0.4858 0.1568   0.057076
 H 0.2665 0.5342 0.3486   0.127959
 H 0.0551 0.5381 0.3836   0.113128
 H 0.0676 0.5257 0.1667   0.108481
 C 0.0528 0.70095 0.1278   0.025253
 C 0.0607 0.71918 0.20053   -0.16523
 C 0.0909 0.81728 0.13248   0.114599
 C 0.0994 0.83981 0.26988   -0.019082
 C 0.127 0.79578 0.3392   -0.147741
 C 0.157 0.84707 0.40323   -0.14634
 C 0.18677 0.80672 0.47517   -0.008043
 C 0.299 0.68363 0.4668   -0.173935
 C 0.416 0.66489 0.46478   0.037162
 C 0.40987 0.78359 0.47143   0.12729
 C 0.5528 0.29905 0.8722   0.025253
 C 0.5607 0.28082 0.79947   -0.16523
 C 0.5909 0.18272 0.86752   0.114599
 C 0.5994 0.16019 0.73012   -0.019082
 C 0.627 0.20422 0.6608   -0.147741
 C 0.657 0.15293 0.59677   -0.14634
 C 0.68677 0.19328 0.52483   -0.008043
 C 0.799 0.31637 0.5332   -0.173935
 C 0.916 0.33511 0.53522   0.037162
 C 0.90987 0.21641 0.52857   0.12729
 C 0.8028 0.3722 0.20095   0.025253
 C 0.8107 0.29947 0.21918   -0.16523
 C 0.8409 0.36752 0.31728   0.114599
 C 0.8494 0.23012 0.33981   -0.019082
 C 0.877 0.1608 0.29578   -0.147741
 C 0.907 0.09677 0.34707   -0.146341
 C 0.93677 0.02483 0.30672   -0.008043
 C 0.049 0.0332 0.18363   -0.173935
 C 0.166 0.03522 0.16489   0.037162
 C 0.15987 0.02857 0.28359   0.12729
 C 0.3028 0.6278 0.79905   0.025253
 C 0.3107 0.70053 0.78082   -0.16523
 C 0.3409 0.63248 0.68272   0.114599
 C 0.3494 0.76988 0.66019   -0.019082
 C 0.377 0.8392 0.70422   -0.147741
 C 0.407 0.90323 0.65293   -0.146341
 C 0.43677 0.97517 0.69328   -0.008043
 C 0.549 0.9668 0.81637   -0.173935
 C 0.666 0.96478 0.83511   0.037162
 C 0.65987 0.97143 0.71641   0.12729
 C 0.6972 0.79905 0.6278   0.025253
 C 0.6893 0.78082 0.70053   -0.16523
 C 0.6591 0.68272 0.63248   0.114599
 C 0.6506 0.66019 0.76988   -0.019082
 C 0.623 0.70422 0.8392   -0.147741
 C 0.593 0.65293 0.90323   -0.14634
 C 0.56323 0.69328 0.97517   -0.008043
 C 0.451 0.81637 0.9668   -0.173935
 C 0.334 0.83511 0.96478   0.037162
 C 0.34013 0.71641 0.97143   0.12729
 C 0.1972 0.20095 0.3722   0.025253
 C 0.1893 0.21918 0.29947   -0.16523
 C 0.1591 0.31728 0.36752   0.114599
 C 0.1506 0.33981 0.23012   -0.019082
 C 0.123 0.29578 0.1608   -0.147741
 C 0.093 0.34707 0.09677   -0.14634
 C 0.06323 0.30672 0.02483   -0.008043
 C 0.951 0.18363 0.0332   -0.173935
 C 0.834 0.16489 0.03522   0.037162
 C 0.84013 0.28359 0.02857   0.12729
 C 0.9472 0.1278 0.70095   0.025253
 C 0.9393 0.20053 0.71918   -0.16523
 C 0.9091 0.13248 0.81728   0.114599
 C 0.9006 0.26988 0.83981   -0.019082
 C 0.873 0.3392 0.79578   -0.147741
 C 0.843 0.40323 0.84707   -0.146341
 C 0.81323 0.47517 0.80672   -0.008043
 C 0.701 0.4668 0.68363   -0.173934
 C 0.584 0.46478 0.66489   0.037162
 C 0.59013 0.47143 0.78359   0.12729
 C 0.4472 0.8722 0.29905   0.025253
 C 0.4393 0.79947 0.28082   -0.16523
 C 0.4091 0.86752 0.18272   0.114599
 C 0.4006 0.73012 0.16019   -0.019082
 C 0.373 0.6608 0.20422   -0.147741
 C 0.343 0.59677 0.15293   -0.146341
 C 0.31323 0.52483 0.19328   -0.008043
 C 0.201 0.5332 0.31637   -0.173934
 C 0.084 0.53522 0.33511   0.037162
 C 0.09013 0.52857 0.21641   0.12729
 N 0.07127 0.76293 0.08529   -0.348164
 N 0.08476 0.79325 0.20336   0.035151
 N 0.29508 0.75962 0.4706   0.030012
 N 0.48705 0.72739 0.46759   -0.343949
 N 0.57127 0.23707 0.91471   -0.348164
 N 0.58476 0.20675 0.79664   0.035151
 N 0.79508 0.24038 0.5294   0.030012
 N 0.98705 0.27261 0.53241   -0.343949
 N 0.82127 0.41471 0.26293   -0.348164
 N 0.83476 0.29664 0.29325   0.035151
 N 0.04508 0.0294 0.25962   0.030012
 N 0.23705 0.03241 0.22739   -0.343949
 N 0.32127 0.58529 0.73707   -0.348164
 N 0.33476 0.70336 0.70675   0.035151
 N 0.54508 0.9706 0.74038   0.030012
 N 0.73705 0.96759 0.77261   -0.343949
 N 0.67873 0.73707 0.58529   -0.348163
 N 0.66524 0.70675 0.70336   0.035151
 N 0.45492 0.74038 0.9706   0.030012
 N 0.26295 0.77261 0.96759   -0.34395
 N 0.17873 0.26293 0.41471   -0.348163
 N 0.16524 0.29325 0.29664   0.035151
 N 0.95492 0.25962 0.0294   0.030012
 N 0.76295 0.22739 0.03241   -0.34395
 N 0.92873 0.08529 0.76293   -0.348163
 N 0.91524 0.20336 0.79325   0.035151
 N 0.70492 0.4706 0.75962   0.030012
 N 0.51295 0.46759 0.72739   -0.34395
 N 0.42873 0.91471 0.23707   -0.348163
 N 0.41524 0.79664 0.20675   0.035151
 N 0.20492 0.5294 0.24038   0.030012
 N 0.01295 0.53241 0.27261   -0.34395
 O 0.2482 0.533 0.97939   -0.800615
 O 0.05566 0.87684 0.97071   -0.967178
 O 0.11699 0.02746 0.97428   -0.924287
 O 0.08875 0.65094 0.96613   -0.79894
 O 0.7482 0.467 0.02061   -0.800615
 O 0.55566 0.12316 0.02929   -0.967178
 O 0.61699 0.97254 0.02572   -0.924287
 O 0.58875 0.34906 0.03387   -0.79894
 O 0.9982 0.52061 0.033   -0.800615
 O 0.80566 0.52929 0.37684   -0.967178
 O 0.86699 0.52572 0.52746   -0.924287
 O 0.83875 0.53387 0.15094   -0.79894
 O 0.4982 0.47939 0.967   -0.800615
 O 0.30566 0.47071 0.62316   -0.967178
 O 0.36699 0.47428 0.47254   -0.924287
 O 0.33875 0.46613 0.84906   -0.79894
 O 0.5018 0.967 0.47939   -0.800615
 O 0.69434 0.62316 0.47071   -0.967178
 O 0.63301 0.47254 0.47428   -0.924287
 O 0.66125 0.84906 0.46613   -0.79894
 O 0.0018 0.033 0.52061   -0.800615
 O 0.19434 0.37684 0.52929   -0.967178
 O 0.13301 0.52746 0.52572   -0.924287
 O 0.16125 0.15094 0.53387   -0.79894
 O 0.7518 0.97939 0.533   -0.800615
 O 0.94434 0.97071 0.87684   -0.967178
 O 0.88301 0.97428 0.02746   -0.924287
 O 0.91125 0.96613 0.65094   -0.79894
 O 0.2518 0.02061 0.467   -0.800615
 O 0.44434 0.02929 0.12316   -0.967178
 O 0.38301 0.02572 0.97254   -0.924287
 O 0.41125 0.03387 0.34906   -0.79894
