{'_ref': 'TBD', '_srcid': 'CAKYAQ_clean', 'submitters': [{'name': 'Dalar Nazarian Jeff Camp and David Sholl', 'email': 'dalar@gatech.edu jcamp6@gatech.edu'}], '_method': 'VASP DFT with PBE;DDEC'}
data_CuH14C10BrN4
_symmetry_space_group_name_H-M   'P 1'
_cell_length_a   7.18100038
_cell_length_b   11.35110012
_cell_length_c   11.35110000
_cell_angle_alpha   66.32210028
_cell_angle_beta   71.56000242
_cell_angle_gamma   71.55990032
_symmetry_Int_Tables_number   1
_chemical_formula_structural   CuH14C10BrN4
_chemical_formula_sum   'Cu2 H28 C20 Br2 N8'
_cell_volume   784.545783014
_cell_formula_units_Z   2
loop_
 _symmetry_equiv_pos_site_id
 _symmetry_equiv_pos_as_xyz
  1  'x, y, z'
loop_
 _atom_site_label
 _atom_site_fract_x
 _atom_site_fract_y
 _atom_site_fract_z
 _atom_site_charge
 Cu 0.34052 0.88889 0.61111   0.267384
 Cu 0.84052 0.11111 0.38889   0.267394
 H 0.7539 0.8481 0.4413   0.244578
 H 0.2662 0.6285 0.6771   0.124326
 H 0.4155 0.4933 0.7249   0.122941
 H 0.332 0.5291 0.5999   0.110716
 H 0.0749 0.755 0.3312   0.123675
 H 0.0591 0.6495 0.2805   0.131311
 H 0.1447 0.6044 0.4066   0.124359
 H 0.0433 0.1519 0.5587   0.243801
 H 0.5718 0.3715 0.3229   0.122609
 H 0.6337 0.5067 0.2751   0.123441
 H 0.461 0.4709 0.4001   0.108607
 H 0.1611 0.245 0.6688   0.123332
 H 0.9891 0.3505 0.7195   0.131761
 H 0.1557 0.3956 0.5934   0.124062
 H 0.2539 0.9413 0.3481   0.244581
 H 0.7662 0.1771 0.1285   0.124329
 H 0.9155 0.2249 0.9933   0.122939
 H 0.832 0.0999 0.0291   0.110716
 H 0.5749 0.8312 0.255   0.123682
 H 0.5591 0.7805 0.1495   0.13131
 H 0.6447 0.9066 0.1044   0.124358
 H 0.5433 0.0587 0.6519   0.243798
 H 0.0718 0.8229 0.8715   0.122635
 H 0.1337 0.7751 0.0067   0.123442
 H 0.961 0.9001 0.9709   0.108595
 H 0.6611 0.1688 0.745   0.123333
 H 0.4891 0.2195 0.8505   0.131755
 H 0.6557 0.0934 0.8956   0.124063
 C 0.7374 0.5682 0.5016   -0.187285
 C 0.8446 0.667 0.44   0.16542
 C 0.5475 0.6252 0.5646   0.219097
 C 0.375 0.5637 0.6491   -0.349745
 C 0.0485 0.6691 0.3575   -0.349282
 C 0.8072 0.4318 0.4984   -0.187583
 C 0.9516 0.333 0.56   0.164863
 C 0.7373 0.3748 0.4354   0.221663
 C 0.5878 0.4363 0.3509   -0.345888
 C 0.0751 0.3309 0.6425   -0.348891
 C 0.2374 0.0016 0.0682   -0.187286
 C 0.3446 0.94 0.167   0.165419
 C 0.0475 0.0646 0.1252   0.2191
 C 0.875 0.1491 0.0637   -0.349742
 C 0.5485 0.8575 0.1691   -0.349285
 C 0.3072 0.9984 0.9318   -0.187587
 C 0.4516 0.06 0.833   0.16487
 C 0.2373 0.9354 0.8748   0.221661
 C 0.0878 0.8509 0.9363   -0.345896
 C 0.5751 0.1425 0.8309   -0.348894
 Br 0.49303 0.09474 0.40526   -0.52843
 Br 0.99303 0.90526 0.59474   -0.52843
 N 0.54106 0.75024 0.54444   -0.267563
 N 0.7214 0.7733 0.4685   -0.082322
 N 0.83574 0.24976 0.45556   -0.272167
 N 0.9632 0.2267 0.5315   -0.078799
 N 0.04106 0.04444 0.25024   -0.267565
 N 0.2214 0.9685 0.2733   -0.082328
 N 0.33574 0.95556 0.74976   -0.272166
 N 0.4632 0.0315 0.7267   -0.078795
