{'_ref': 'TBD', '_srcid': 'CAKYAQ_clean', 'submitters': [{'name': 'Dalar Nazarian Jeff Camp and David Sholl', 'email': 'dalar@gatech.edu jcamp6@gatech.edu'}], '_method': 'VASP DFT with PBE;DDEC'}
data_ErH32C44N(ClO3)3
_symmetry_space_group_name_H-M   'P 1'
_cell_length_a   12.77600000
_cell_length_b   18.30010005
_cell_length_c   24.72400000
_cell_angle_alpha   90.00000000
_cell_angle_beta   90.00000000
_cell_angle_gamma   110.42999861
_symmetry_Int_Tables_number   1
_chemical_formula_structural   ErH32C44N(ClO3)3
_chemical_formula_sum   'Er4 H128 C176 N4 Cl12 O36'
_cell_volume   5416.92399826
_cell_formula_units_Z   4
loop_
 _symmetry_equiv_pos_site_id
 _symmetry_equiv_pos_as_xyz
  1  'x, y, z'
loop_
 _atom_site_label
 _atom_site_fract_x
 _atom_site_fract_y
 _atom_site_fract_z
 _atom_site_charge
 Er 0.23021 0.76948 0.78565   1.43901
 Er 0.76979 0.23052 0.28565   1.43901
 Er 0.53927 0.76948 0.71435   1.439607
 Er 0.46073 0.23052 0.21435   1.439607
 H 0.0729 0.8886 0.7621   0.089135
 H 0.0308 0.9914 0.7993   0.094646
 H 0.1244 0.0542 0.876   0.078253
 H 0.2602 0.0142 0.9154   0.115424
 H 0.3022 0.9112 0.8783   0.066498
 H 0.0712 0.5462 0.9029   0.130933
 H 0.0647 0.7966 0.9348   0.129987
 H 0.9186 0.7822 0.0795   0.118328
 H 0.9019 0.653 0.0881   0.108384
 H 0.9879 0.4202 0.907   0.038776
 H 0.0989 0.4298 0.9388   0.046203
 H 0.9928 0.2958 0.9288   0.116097
 H 0.0031 0.3178 0.9904   0.127685
 H 0.8925 0.3084 0.959   0.114869
 H 0.6777 0.3666 0.092   0.130107
 H 0.918 0.4398 0.2412   0.150907
 H 0.1799 0.62 0.1858   0.122365
 H 0.0934 0.6166 0.1051   0.091057
 H 0.7212 0.3404 0.000900000000001   0.043818
 H 0.6156 0.3654 0.995   0.038018
 H 0.6688 0.3346 0.909   0.117717
 H 0.683 0.4232 0.9106   0.124404
 H 0.7877 0.3978 0.9165   0.114072
 H 0.4039 0.84 0.9093   0.134581
 H 0.7094 0.9776 0.8018   0.133542
 H 0.9104 0.1388 0.9004   0.111395
 H 0.789 0.0926 0.9717   0.103249
 H 0.275 0.8482 0.9805   0.046598
 H 0.3347 0.7872 0.9898   0.035163
 H 0.2037 0.7736 0.0559   0.111847
 H 0.323 0.8016 0.082   0.114018
 H 0.2617 0.8612 0.0723   0.117106
 H 0.9271 0.1114 0.2621   0.089135
 H 0.9692 0.0086 0.2993   0.094646
 H 0.8756 0.9458 0.376   0.078253
 H 0.7398 0.9858 0.4154   0.115424
 H 0.6978 0.0888 0.3783   0.066498
 H 0.9288 0.4538 0.4029   0.130933
 H 0.9353 0.2034 0.4348   0.129987
 H 0.0814 0.2178 0.5795   0.118328
 H 0.0981 0.347 0.5881   0.108384
 H 0.0121 0.5798 0.407   0.038776
 H 0.9011 0.5702 0.4388   0.046203
 H 0.0072 0.7042 0.4288   0.116097
 H 0.9969 0.6822 0.4904   0.127685
 H 0.1075 0.6916 0.459   0.114869
 H 0.3223 0.6334 0.592   0.130107
 H 0.082 0.5602 0.7412   0.150907
 H 0.8201 0.38 0.6858   0.122364
 H 0.9066 0.3834 0.6051   0.091057
 H 0.2788 0.6596 0.5009   0.043818
 H 0.3844 0.6346 0.495   0.038018
 H 0.3312 0.6654 0.409   0.117717
 H 0.317 0.5768 0.4106   0.124404
 H 0.2123 0.6022 0.4165   0.114072
 H 0.5961 0.16 0.4093   0.134581
 H 0.2906 0.0224 0.3018   0.133542
 H 0.0896 0.8612 0.4004   0.111395
 H 0.211 0.9074 0.4717   0.103249
 H 0.725 0.1518 0.4805   0.046598
 H 0.6653 0.2128 0.4898   0.035163
 H 0.7963 0.2264 0.5559   0.111847
 H 0.677 0.1984 0.582   0.114018
 H 0.7383 0.1388 0.5723   0.117106
 H 0.8157 0.8886 0.7379   0.088754
 H 0.9606 0.9914 0.7007   0.094437
 H 0.9298 0.0542 0.624   0.078005
 H 0.754 0.0142 0.5846   0.115628
 H 0.609 0.9112 0.6217   0.06682
 H 0.475 0.5462 0.5971   0.131652
 H 0.7319 0.7966 0.5652   0.130081
 H 0.8636 0.7822 0.4205   0.118576
 H 0.7511 0.653 0.4119   0.108217
 H 0.4323 0.4202 0.593   0.039685
 H 0.3309 0.4298 0.5612   0.04693
 H 0.303 0.2958 0.5712   0.11689
 H 0.3147 0.3178 0.5096   0.127689
 H 0.4159 0.3084 0.541   0.115676
 H 0.6889 0.3666 0.408   0.128789
 H 0.5218 0.4398 0.2588   0.150851
 H 0.4401 0.62 0.3142   0.122148
 H 0.5232 0.6166 0.3949   0.091352
 H 0.6192 0.3404 0.4991   0.04313
 H 0.7498 0.3654 0.505   0.038042
 H 0.6658 0.3346 0.591   0.118048
 H 0.7402 0.4232 0.5894   0.124181
 H 0.6101 0.3978 0.5835   0.114027
 H 0.4361 0.84 0.5907   0.134333
 H 0.2682 0.9776 0.6982   0.134089
 H 0.2284 0.1388 0.5996   0.111933
 H 0.3036 0.0926 0.5283   0.103309
 H 0.5732 0.8482 0.5195   0.045598
 H 0.4525 0.7872 0.5102   0.035333
 H 0.5699 0.7736 0.4441   0.111532
 H 0.4786 0.8016 0.418   0.11362
 H 0.5995 0.8612 0.4277   0.117365
 H 0.1843 0.1114 0.2379   0.088754
 H 0.0394 0.0086 0.2007   0.094437
 H 0.0702 0.9458 0.124   0.078005
 H 0.246 0.9858 0.0846   0.115628
 H 0.391 0.0888 0.1217   0.06682
 H 0.525 0.4538 0.0971   0.131652
 H 0.2681 0.2034 0.0652   0.130081
 H 0.1364 0.2178 0.9205   0.118576
 H 0.2489 0.347 0.9119   0.108217
 H 0.5677 0.5798 0.093   0.039685
 H 0.6691 0.5702 0.0612   0.04693
 H 0.697 0.7042 0.0712   0.11689
 H 0.6853 0.6822 0.0096   0.127689
 H 0.5841 0.6916 0.041   0.115676
 H 0.3111 0.6334 0.908   0.128789
 H 0.4782 0.5602 0.7588   0.150851
 H 0.5599 0.38 0.8142   0.122148
 H 0.4768 0.3834 0.8949   0.091352
 H 0.3808 0.6596 0.9991   0.04313
 H 0.2502 0.6346 0.005   0.038042
 H 0.3342 0.6654 0.091   0.118048
 H 0.2598 0.5768 0.0894   0.124181
 H 0.3899 0.6022 0.0835   0.114027
 H 0.5639 0.16 0.0907   0.134333
 H 0.7318 0.0224 0.1982   0.134089
 H 0.7716 0.8612 0.0996   0.111933
 H 0.6964 0.9074 0.0283   0.103309
 H 0.4268 0.1518 0.0195   0.045598
 H 0.5475 0.2128 0.0102   0.035333
 H 0.4301 0.2264 0.9441   0.111532
 H 0.5214 0.1984 0.918   0.11362
 H 0.4005 0.1388 0.9277   0.117365
 C 0.1105 0.9138 0.7929   0.157722
 C 0.0852 0.9754 0.8151   -0.180204
 C 0.1413 0.013 0.8611   0.010898
 C 0.2226 0.989 0.8847   -0.20082
 C 0.2479 0.9274 0.8624   0.199203
 C 0.9632 0.5644 0.0193   -0.062454
 C 0.0002 0.5294 0.977   0.237099
 C 0.0479 0.571 0.9308   -0.205411
 C 0.0609 0.6498 0.9263   -0.045955
 C 0.0323 0.767 0.965   -0.158026
 C 0.9921 0.7996 0.0055   0.135319
 C 0.9441 0.758 0.052   -0.153283
 C 0.9344 0.6808 0.0572   -0.082622
 C 0.97426 0.64352 0.0152   0.01167
 C 0.0251 0.6876 0.9685   0.043259
 C 0.1169 0.693 0.8762   0.634322
 C 0.0181 0.4116 0.9415   0.168473
 C 0.9724 0.3254 0.9563   -0.369087
 C 0.90593 0.51426 0.0667   -0.058876
 C 0.8018 0.4576 0.0574   0.223026
 C 0.7475 0.404 0.0987   -0.203779
 C 0.79579 0.40638 0.1477   -0.050586
 C 0.953 0.473 0.213   -0.146483
 C 0.0544 0.5306 0.221   0.14512
 C 0.1094 0.583 0.1798   -0.151153
 C 0.0589 0.5792 0.1311   -0.081976
 C 0.9543 0.5198 0.1184   0.011269
 C 0.90086 0.46432 0.1602   0.050248
 C 0.7354 0.3418 0.188   0.684435
 C 0.6941 0.3794 0.9859   0.169888
 C 0.7098 0.3842 0.9249   -0.371732
 C 0.5935 0.9796 0.9734   -0.054515
 C 0.4966 0.9182 0.965   0.235252
 C 0.4706 0.8816 0.9141   -0.205069
 C 0.5444 0.9076 0.8713   -0.071425
 C 0.7243 0.9992 0.8363   -0.15353
 C 0.8198 0.06 0.8461   0.14885
 C 0.8448 0.0964 0.8956   -0.16356
 C 0.7714 0.0692 0.9379   -0.076239
 C 0.6684 0.0054 0.9309   0.011644
 C 0.6478 0.9686 0.8786   0.064355
 C 0.5035 0.866 0.8189   0.709398
 C 0.324 0.8332 0.0046   0.184219
 C 0.2738 0.816 0.0583   -0.373795
 C 0.8895 0.0862 0.2929   0.157722
 C 0.9148 0.0246 0.3151   -0.180204
 C 0.8587 0.987 0.3611   0.010898
 C 0.7774 0.011 0.3847   -0.20082
 C 0.7521 0.0726 0.3624   0.199203
 C 0.0368 0.4356 0.5193   -0.062454
 C 0.9998 0.4706 0.477   0.237099
 C 0.9521 0.429 0.4308   -0.205411
 C 0.9391 0.3502 0.4263   -0.045955
 C 0.9677 0.233 0.465   -0.158026
 C 0.0079 0.2004 0.5055   0.135319
 C 0.0559 0.242 0.552   -0.153283
 C 0.0656 0.3192 0.5572   -0.082622
 C 0.02574 0.35648 0.5152   0.01167
 C 0.9749 0.3124 0.4685   0.043259
 C 0.8831 0.307 0.3762   0.634322
 C 0.9819 0.5884 0.4415   0.168473
 C 0.0276 0.6746 0.4563   -0.369087
 C 0.09407 0.48574 0.5667   -0.058876
 C 0.1982 0.5424 0.5574   0.223026
 C 0.2525 0.596 0.5987   -0.203779
 C 0.20421 0.59362 0.6477   -0.050586
 C 0.047 0.527 0.713   -0.146483
 C 0.9456 0.4694 0.721   0.14512
 C 0.8906 0.417 0.6798   -0.151152
 C 0.9411 0.4208 0.6311   -0.081976
 C 0.0457 0.4802 0.6184   0.011269
 C 0.09914 0.53568 0.6602   0.050248
 C 0.2646 0.6582 0.688   0.684435
 C 0.3059 0.6206 0.4859   0.169888
 C 0.2902 0.6158 0.4249   -0.371732
 C 0.4065 0.0204 0.4734   -0.054515
 C 0.5034 0.0818 0.465   0.235252
 C 0.5294 0.1184 0.4141   -0.205069
 C 0.4556 0.0924 0.3713   -0.071425
 C 0.2757 0.000799999999998 0.3363   -0.15353
 C 0.1802 0.94 0.3461   0.14885
 C 0.1552 0.9036 0.3956   -0.16356
 C 0.2286 0.9308 0.4379   -0.076239
 C 0.3316 0.9946 0.4309   0.011644
 C 0.3522 0.0314 0.3786   0.064355
 C 0.4965 0.134 0.3189   0.709398
 C 0.676 0.1668 0.5046   0.184219
 C 0.7262 0.184 0.5583   -0.373795
 C 0.8033 0.9138 0.7071   0.158859
 C 0.8902 0.9754 0.6849   -0.180368
 C 0.8717 0.013 0.6389   0.011327
 C 0.7664 0.989 0.6153   -0.201697
 C 0.6795 0.9274 0.6376   0.198859
 C 0.6012 0.5644 0.4807   -0.06404
 C 0.5292 0.5294 0.523   0.237721
 C 0.5231 0.571 0.5692   -0.206787
 C 0.5889 0.6498 0.5737   -0.045742
 C 0.7347 0.767 0.535   -0.158441
 C 0.8075 0.7996 0.4945   0.135196
 C 0.8139 0.758 0.448   -0.153605
 C 0.7464 0.6808 0.4428   -0.082675
 C 0.66926 0.64352 0.4848   0.012579
 C 0.6625 0.6876 0.5315   0.043805
 C 0.5761 0.693 0.6238   0.634775
 C 0.3935 0.4116 0.5585   0.166083
 C 0.353 0.3254 0.5437   -0.370632
 C 0.60833 0.51426 0.4333   -0.057405
 C 0.6558 0.4576 0.4426   0.222319
 C 0.6565 0.404 0.4013   -0.201178
 C 0.61059 0.40638 0.3523   -0.052491
 C 0.52 0.473 0.287   -0.146465
 C 0.4762 0.5306 0.279   0.145804
 C 0.4736 0.583 0.3202   -0.151848
 C 0.5203 0.5792 0.3689   -0.081204
 C 0.5655 0.5198 0.3816   0.010598
 C 0.56346 0.46432 0.3398   0.050952
 C 0.6064 0.3418 0.312   0.684974
 C 0.6853 0.3794 0.5141   0.169915
 C 0.6744 0.3842 0.5751   -0.371637
 C 0.3861 0.9796 0.5266   -0.05472
 C 0.4216 0.9182 0.535   0.235279
 C 0.411 0.8816 0.5859   -0.204659
 C 0.3632 0.9076 0.6287   -0.071536
 C 0.2749 0.9992 0.6637   -0.15459
 C 0.2402 0.06 0.6539   0.149647
 C 0.2516 0.0964 0.6044   -0.164183
 C 0.2978 0.0692 0.5621   -0.076763
 C 0.337 0.0054 0.5691   0.011929
 C 0.3208 0.9686 0.6214   0.064548
 C 0.3625 0.866 0.6811   0.709226
 C 0.5092 0.8332 0.4954   0.185748
 C 0.5422 0.816 0.4417   -0.373819
 C 0.1967 0.0862 0.2071   0.158859
 C 0.1098 0.0246 0.1849   -0.180368
 C 0.1283 0.987 0.1389   0.011327
 C 0.2336 0.011 0.1153   -0.201697
 C 0.3205 0.0726 0.1376   0.198859
 C 0.3988 0.4356 0.9807   -0.06404
 C 0.4708 0.4706 0.023   0.237721
 C 0.4769 0.429 0.0692   -0.206787
 C 0.4111 0.3502 0.0737   -0.045742
 C 0.2653 0.233 0.035   -0.158441
 C 0.1925 0.2004 0.9945   0.135196
 C 0.1861 0.242 0.948   -0.153605
 C 0.2536 0.3192 0.9428   -0.082675
 C 0.33074 0.35648 0.9848   0.012579
 C 0.3375 0.3124 0.0315   0.043805
 C 0.4239 0.307 0.1238   0.634775
 C 0.6065 0.5884 0.0585   0.166083
 C 0.647 0.6746 0.0437   -0.370632
 C 0.39167 0.48574 0.9333   -0.057405
 C 0.3442 0.5424 0.9426   0.222319
 C 0.3435 0.596 0.9013   -0.201178
 C 0.38941 0.59362 0.8523   -0.052491
 C 0.48 0.527 0.787   -0.146465
 C 0.5238 0.4694 0.779   0.145804
 C 0.5264 0.417 0.8202   -0.151848
 C 0.4797 0.4208 0.8689   -0.081204
 C 0.4345 0.4802 0.8816   0.010598
 C 0.43654 0.53568 0.8398   0.050952
 C 0.3936 0.6582 0.812   0.684974
 C 0.3147 0.6206 0.0141   0.169915
 C 0.3256 0.6158 0.0751   -0.371637
 C 0.6139 0.0204 0.0266   -0.05472
 C 0.5784 0.0818 0.035   0.235279
 C 0.589 0.1184 0.0859   -0.204659
 C 0.6368 0.0924 0.1287   -0.071536
 C 0.7251 0.000799999999998 0.1637   -0.15459
 C 0.7598 0.94 0.1539   0.149647
 C 0.7484 0.9036 0.1044   -0.164183
 C 0.7022 0.9308 0.0621   -0.076763
 C 0.663 0.9946 0.0691   0.011929
 C 0.6792 0.0314 0.1214   0.064548
 C 0.6375 0.134 0.1811   0.709226
 C 0.4908 0.1668 0.9954   0.185748
 C 0.4578 0.184 0.9417   -0.373819
 N 0.19176 0.88972 0.8165   -0.416132
 N 0.80824 0.11028 0.3165   -0.416132
 N 0.69796 0.88972 0.6835   -0.416067
 N 0.30204 0.11028 0.1835   -0.416067
 Cl 0.99738 0.89636 0.00027   -0.106301
 Cl 0.1183 0.5382 0.28485   -0.11204
 Cl 0.91634 0.09828 0.79327   -0.121502
 Cl 0.00262 0.10364 0.50027   -0.106301
 Cl 0.8817 0.4618 0.78485   -0.11204
 Cl 0.08366 0.90172 0.29327   -0.121502
 Cl 0.89898 0.89636 0.49973   -0.106157
 Cl 0.4199 0.5382 0.21515   -0.112331
 Cl 0.18194 0.09828 0.70673   -0.121631
 Cl 0.10102 0.10364 0.99973   -0.106157
 Cl 0.5801 0.4618 0.71515   -0.112331
 Cl 0.81806 0.90172 0.20673   -0.121631
 O 0.19385 0.7569 0.88033   -0.623276
 O 0.08491 0.66282 0.83062   -0.603936
 O 0.98417 0.45174 0.9838   -0.259617
 O 0.63185 0.3193 0.1873   -0.593339
 O 0.79495 0.3145 0.2158   -0.630448
 O 0.75718 0.45536 0.007   -0.261205
 O 0.4025 0.844 0.81   -0.622438
 O 0.57523 0.85546 0.7879   -0.644094
 O 0.426 0.8936 0.009   -0.275005
 O 0.80615 0.2431 0.38033   -0.623276
 O 0.91509 0.33718 0.33062   -0.603936
 O 0.01583 0.54826 0.4838   -0.259617
 O 0.36815 0.6807 0.6873   -0.593339
 O 0.20505 0.6855 0.7158   -0.630448
 O 0.24282 0.54464 0.507   -0.261205
 O 0.5975 0.156 0.31   -0.622438
 O 0.42477 0.14454 0.2879   -0.644094
 O 0.574 0.1064 0.509   -0.275005
 O 0.56305 0.7569 0.61967   -0.623506
 O 0.57791 0.66282 0.66938   -0.604148
 O 0.46757 0.45174 0.5162   -0.259262
 O 0.68745 0.3193 0.3127   -0.59311
 O 0.51955 0.3145 0.2842   -0.630948
 O 0.69818 0.45536 0.493   -0.261063
 O 0.4415 0.844 0.69   -0.623218
 O 0.28023 0.85546 0.7121   -0.643275
 O 0.4676 0.8936 0.491   -0.27522
 O 0.43695 0.2431 0.11967   -0.623506
 O 0.42209 0.33718 0.16938   -0.604148
 O 0.53243 0.54826 0.0162   -0.259262
 O 0.31255 0.6807 0.8127   -0.59311
 O 0.48045 0.6855 0.7842   -0.630948
 O 0.30182 0.54464 0.993   -0.261063
 O 0.5585 0.156 0.19   -0.623218
 O 0.71977 0.14454 0.2121   -0.643275
 O 0.5324 0.1064 0.991   -0.27522
