{'_ref': 'TBD', '_srcid': 'CAKYAQ_clean', 'submitters': [{'name': 'Dalar Nazarian Jeff Camp and David Sholl', 'email': 'dalar@gatech.edu jcamp6@gatech.edu'}], '_method': 'VASP DFT with PBE;DDEC'}
data_NiH13C20N3O4
_symmetry_space_group_name_H-M   'P 1'
_cell_length_a   8.79299990
_cell_length_b   10.09099988
_cell_length_c   15.40400000
_cell_angle_alpha   87.82599751
_cell_angle_beta   88.94100057
_cell_angle_gamma   73.31800110
_symmetry_Int_Tables_number   1
_chemical_formula_structural   NiH13C20N3O4
_chemical_formula_sum   'Ni2 H26 C40 N6 O8'
_cell_volume   1308.29101298
_cell_formula_units_Z   2
loop_
 _symmetry_equiv_pos_site_id
 _symmetry_equiv_pos_as_xyz
  1  'x, y, z'
loop_
 _atom_site_label
 _atom_site_fract_x
 _atom_site_fract_y
 _atom_site_fract_z
 _atom_site_charge
 Ni 0.05223 0.07877 0.35688   0.779456
 Ni 0.94777 0.92123 0.64312   0.779456
 H 0.3873 0.9652 0.293   0.071545
 H 0.5954 0.7692 0.2897   0.124067
 H 0.3264 0.5646 0.4088   0.138548
 H 0.1297 0.7694 0.4176   0.075242
 H 0.9744 0.3744 0.4212   0.08811
 H 0.7699 0.5783 0.4229   0.14043
 H 0.5187 0.4055 0.2758   0.135067
 H 0.731 0.2101 0.2751   0.065824
 H 0.1228 0.1927 0.1825   0.090854
 H 0.1068 0.1633 0.0384   0.122115
 H 0.9046 0.8684 0.093   0.125873
 H 0.9265 0.908 0.2366   0.082587
 H 0.5851 0.1281 0.3939   0.07816
 H 0.6127 0.0348 0.707   0.071545
 H 0.4046 0.2308 0.7103   0.124067
 H 0.6736 0.4354 0.5912   0.138548
 H 0.8703 0.2306 0.5824   0.075242
 H 0.0256 0.6256 0.5788   0.088112
 H 0.2301 0.4217 0.5771   0.140431
 H 0.4813 0.5945 0.7242   0.135067
 H 0.269 0.7899 0.7249   0.065824
 H 0.8772 0.8073 0.8175   0.090854
 H 0.8932 0.8367 0.9616   0.122115
 H 0.0954 0.1316 0.907   0.125873
 H 0.0735 0.092 0.7634   0.082587
 H 0.4149 0.8719 0.6061   0.078159
 C 0.3745 0.8839 0.3183   0.164589
 C 0.5002 0.7657 0.3156   -0.219865
 C 0.4868 0.6441 0.3506   0.125658
 C 0.3437 0.646 0.3864   -0.198823
 C 0.2242 0.7696 0.3895   0.180057
 C 0.8815 0.3805 0.3913   0.171504
 C 0.7585 0.504 0.3924   -0.196975
 C 0.6208 0.5155 0.3485   0.110048
 C 0.6106 0.4031 0.3055   -0.212478
 C 0.7392 0.2845 0.3066   0.154473
 C 0.0776 0.1255 0.1648   0.165474
 C 0.0684 0.1079 0.0775   -0.205577
 C 0.005 0.0118 0.0468   0.091402
 C 0.9505 0.9361 0.1089   -0.204838
 C 0.9644 0.9611 0.1957   0.163103
 C 0.2805 0.2235 0.3995   0.679868
 C 0.3876 0.1076 0.4539   -0.092804
 C 0.5502 0.0758 0.4366   -0.038217
 C 0.3386 0.029 0.5203   -0.146534
 C 0.1647 0.0522 0.5419   0.669037
 C 0.6255 0.1161 0.6817   0.164589
 C 0.4998 0.2343 0.6844   -0.219865
 C 0.5132 0.3559 0.6494   0.125658
 C 0.6563 0.354 0.6136   -0.198822
 C 0.7758 0.2304 0.6105   0.180057
 C 0.1185 0.6195 0.6087   0.171503
 C 0.2415 0.496 0.6076   -0.196975
 C 0.3792 0.4845 0.6515   0.110048
 C 0.3894 0.5969 0.6945   -0.212478
 C 0.2608 0.7155 0.6934   0.154473
 C 0.9224 0.8745 0.8352   0.165474
 C 0.9316 0.8921 0.9225   -0.205577
 C 0.995 0.9882 0.9532   0.091403
 C 0.0495 0.0639 0.8911   -0.204838
 C 0.0356 0.0389 0.8043   0.163103
 C 0.7195 0.7765 0.6005   0.679868
 C 0.6124 0.8924 0.5461   -0.092807
 C 0.4498 0.9242 0.5634   -0.038211
 C 0.6614 0.971 0.4797   -0.146528
 C 0.8353 0.9478 0.4581   0.669036
 N 0.2363 0.8875 0.35496   -0.32651
 N 0.8702 0.2704 0.34861   -0.284559
 N 0.0268 0.0539 0.22426   -0.276918
 N 0.7637 0.1125 0.64504   -0.32651
 N 0.1298 0.7296 0.65139   -0.284558
 N 0.9732 0.9461 0.77574   -0.276918
 O 0.2129 0.1901 0.33529   -0.647777
 O 0.2743 0.342 0.4179   -0.590204
 O 0.0649 0.1135 0.48633   -0.564066
 O 0.1319 0.0097 0.61595   -0.58695
 O 0.7871 0.8099 0.66471   -0.647777
 O 0.7257 0.658 0.5821   -0.590204
 O 0.9351 0.8865 0.51367   -0.564066
 O 0.8681 0.9903 0.38405   -0.58695
