{'_ref': 'TBD', '_srcid': 'CAKYAQ_clean', 'submitters': [{'name': 'Dalar Nazarian Jeff Camp and David Sholl', 'email': 'dalar@gatech.edu jcamp6@gatech.edu'}], '_method': 'VASP DFT with PBE;DDEC'}
data_Cd3P2H24C14N2(ClO5)2
_symmetry_space_group_name_H-M   'P 1'
_cell_length_a   7.03600000
_cell_length_b   15.89210000
_cell_length_c   26.56100000
_cell_angle_alpha   90.00000000
_cell_angle_beta   90.00000000
_cell_angle_gamma   90.00000000
_symmetry_Int_Tables_number   1
_chemical_formula_structural   Cd3P2H24C14N2(ClO5)2
_chemical_formula_sum   'Cd12 P8 H96 C56 N8 Cl8 O40'
_cell_volume   2969.96643915
_cell_formula_units_Z   4
loop_
 _symmetry_equiv_pos_site_id
 _symmetry_equiv_pos_as_xyz
  1  'x, y, z'
loop_
 _atom_site_label
 _atom_site_fract_x
 _atom_site_fract_y
 _atom_site_fract_z
 _atom_site_charge
 Cd 0.59302 0.51981 0.98568   1.172176
 Cd 0.34696 0.75398 0.9977   1.196602
 Cd 0.2766 0.50851 0.88659   1.217261
 Cd 0.90698 0.48019 0.48568   1.172176
 Cd 0.15304 0.24602 0.4977   1.196602
 Cd 0.2234 0.49149 0.38659   1.217261
 Cd 0.40698 0.01981 0.51432   1.172176
 Cd 0.65304 0.25398 0.5023   1.196602
 Cd 0.7234 0.00851 0.61341   1.217261
 Cd 0.09302 0.98019 0.01432   1.172176
 Cd 0.84696 0.74602 0.0023   1.196602
 Cd 0.7766 0.99149 0.11341   1.217261
 P 0.0936 0.55956 0.99999   1.523927
 P 0.5966 0.67172 0.90095   1.42322
 P 0.4064 0.44044 0.49999   1.523927
 P 0.9034 0.32828 0.40095   1.42322
 P 0.9064 0.05956 0.50001   1.523927
 P 0.4034 0.17172 0.59905   1.42322
 P 0.5936 0.94044 1.00000000032e-05   1.523927
 P 0.0966 0.82828 0.09905   1.42322
 H 0.9066 0.4234 0.0605   0.209841
 H 0.5023 0.7922 0.8208   0.274888
 H 0.0253 0.545 0.0849   0.171181
 H 0.2322 0.5136 0.0743   0.162937
 H 0.0805 0.3893 0.9917   0.114438
 H 0.2504 0.3647 0.0271   0.096262
 H 0.8973 0.2818 0.0251   0.089422
 H 0.0864 0.2445 0.0032   0.095405
 H 0.2185 0.2435 0.0844   0.095018
 H 0.8612 0.2981 0.1185   0.084305
 H 0.0325 0.2759 0.1539   0.095166
 H 0.208 0.3872 0.1224   0.106697
 H 0.0117 0.422 0.1411   0.098768
 H 0.5322 0.6497 0.8162   0.165163
 H 0.7514 0.6595 0.824   0.180627
 H 0.7604 0.7483 0.7471   0.113809
 H 0.5407 0.733 0.7424   0.101639
 H 0.4858 0.8789 0.7429   0.08881
 H 0.6246 0.8562 0.6986   0.108915
 H 0.8858 0.8969 0.7466   0.096955
 H 0.8522 0.9515 0.8263   0.122161
 H 0.6309 0.9414 0.8236   0.073662
 H 0.7481 0.8325 0.872   0.124546
 H 0.8928 0.8069 0.8297   0.114211
 H 0.5934 0.5766 0.5605   0.209841
 H 0.9977 0.2078 0.3208   0.274888
 H 0.4747 0.455 0.5849   0.171181
 H 0.2678 0.4864 0.5743   0.162937
 H 0.4195 0.6107 0.4917   0.114438
 H 0.2496 0.6353 0.5271   0.096262
 H 0.6027 0.7182 0.5251   0.089422
 H 0.4136 0.7555 0.5032   0.095405
 H 0.2815 0.7565 0.5844   0.095018
 H 0.6388 0.7019 0.6185   0.084306
 H 0.4675 0.7241 0.6539   0.095163
 H 0.292 0.6128 0.6224   0.106697
 H 0.4883 0.578 0.6411   0.098769
 H 0.9678 0.3503 0.3162   0.165163
 H 0.7486 0.3405 0.324   0.180627
 H 0.7396 0.2517 0.2471   0.113811
 H 0.9593 0.267 0.2424   0.101637
 H 0.0142 0.1211 0.2429   0.088809
 H 0.8754 0.1438 0.1986   0.108914
 H 0.6142 0.1031 0.2466   0.096955
 H 0.6478 0.0485 0.3263   0.122161
 H 0.8691 0.0586 0.3236   0.073662
 H 0.7519 0.1675 0.372   0.124546
 H 0.6072 0.1931 0.3297   0.114211
 H 0.0934 0.9234 0.4395   0.209841
 H 0.4977 0.2922 0.6792   0.274888
 H 0.9747 0.045 0.4151   0.171182
 H 0.7678 0.0136 0.4257   0.162936
 H 0.9195 0.8893 0.5083   0.114439
 H 0.7496 0.8647 0.4729   0.096262
 H 0.1027 0.7818 0.4749   0.089424
 H 0.9136 0.7445 0.4968   0.095408
 H 0.7815 0.7435 0.4156   0.09502
 H 0.1388 0.7981 0.3815   0.084305
 H 0.9675 0.7759 0.3461   0.095166
 H 0.792 0.8872 0.3776   0.106697
 H 0.9883 0.922 0.3589   0.09877
 H 0.4678 0.1497 0.6838   0.165163
 H 0.2486 0.1595 0.676   0.180626
 H 0.2396 0.2483 0.7529   0.113809
 H 0.4593 0.233 0.7576   0.101639
 H 0.5142 0.3789 0.7571   0.08881
 H 0.3754 0.3562 0.8014   0.108915
 H 0.1142 0.3969 0.7534   0.096955
 H 0.1478 0.4515 0.6737   0.122161
 H 0.3691 0.4414 0.6764   0.073663
 H 0.2519 0.3325 0.628   0.124545
 H 0.1072 0.3069 0.6703   0.114211
 H 0.4066 0.0766 0.9395   0.209841
 H 0.0023 0.7078 0.1792   0.274888
 H 0.5253 0.955 0.9151   0.171182
 H 0.7322 0.9864 0.9257   0.162936
 H 0.5805 0.1107 0.0083   0.114439
 H 0.7504 0.1353 0.9729   0.096262
 H 0.3973 0.2182 0.9749   0.089424
 H 0.5864 0.2555 0.9968   0.095408
 H 0.7185 0.2565 0.9156   0.09502
 H 0.3612 0.2019 0.8815   0.084306
 H 0.5325 0.2241 0.8461   0.095163
 H 0.708 0.1128 0.8776   0.106697
 H 0.5117 0.078 0.8589   0.09877
 H 0.0322 0.8503 0.1838   0.165163
 H 0.2514 0.8405 0.176   0.180626
 H 0.2604 0.7517 0.2529   0.113811
 H 0.0407 0.767 0.2576   0.101637
 H 0.9858 0.6211 0.2571   0.088809
 H 0.1246 0.6438 0.3014   0.108914
 H 0.3858 0.6031 0.2534   0.096955
 H 0.3522 0.5485 0.1737   0.122161
 H 0.1309 0.5586 0.1764   0.073663
 H 0.2481 0.6675 0.128   0.124545
 H 0.3928 0.6931 0.1703   0.114211
 C 0.1021 0.5115 0.0622   -0.501229
 C 0.113 0.3667 0.0245   -0.073607
 C 0.034 0.2799 0.0295   -0.147659
 C 0.08 0.2414 0.0807   -0.172503
 C 0.9987 0.2978 0.121   -0.145818
 C 0.0723 0.3867 0.116   -0.075151
 C 0.0236 0.1467 0.0812   0.721435
 C 0.6288 0.683 0.833   -0.481416
 C 0.637 0.77 0.7565   -0.080583
 C 0.612 0.8581 0.7349   -0.176642
 C 0.76 0.9172 0.7567   -0.166932
 C 0.7505 0.9166 0.8131   -0.172206
 C 0.7667 0.8293 0.8359   -0.086488
 C 0.7342 0.0068 0.7357   0.704932
 C 0.3979 0.4885 0.5622   -0.501229
 C 0.387 0.6333 0.5245   -0.073607
 C 0.466 0.7201 0.5295   -0.147659
 C 0.42 0.7586 0.5807   -0.172503
 C 0.5013 0.7022 0.621   -0.145817
 C 0.4277 0.6133 0.616   -0.075152
 C 0.4764 0.8533 0.5812   0.721435
 C 0.8712 0.317 0.333   -0.481416
 C 0.863 0.23 0.2565   -0.080584
 C 0.888 0.1419 0.2349   -0.176642
 C 0.74 0.0828 0.2567   -0.166932
 C 0.7495 0.0834 0.3131   -0.172206
 C 0.7333 0.1707 0.3359   -0.086488
 C 0.7658 0.9932 0.2357   0.704932
 C 0.8979 0.0115 0.4378   -0.501229
 C 0.887 0.8667 0.4755   -0.073607
 C 0.966 0.7799 0.4705   -0.14766
 C 0.92 0.7414 0.4193   -0.172503
 C 0.0013 0.7978 0.379   -0.145818
 C 0.9277 0.8867 0.384   -0.075152
 C 0.9764 0.6467 0.4188   0.721435
 C 0.3712 0.183 0.667   -0.481416
 C 0.363 0.27 0.7435   -0.080583
 C 0.388 0.3581 0.7651   -0.176642
 C 0.24 0.4172 0.7433   -0.166932
 C 0.2495 0.4166 0.6869   -0.172207
 C 0.2333 0.3293 0.6641   -0.086488
 C 0.2658 0.5068 0.7643   0.704932
 C 0.6021 0.9885 0.9378   -0.501229
 C 0.613 0.1333 0.9755   -0.073607
 C 0.534 0.2201 0.9705   -0.14766
 C 0.58 0.2586 0.9193   -0.172503
 C 0.4987 0.2022 0.879   -0.145817
 C 0.5723 0.1133 0.884   -0.075152
 C 0.5236 0.3533 0.9188   0.721435
 C 0.1288 0.817 0.167   -0.481416
 C 0.137 0.73 0.2435   -0.080584
 C 0.112 0.6419 0.2651   -0.176642
 C 0.26 0.5828 0.2433   -0.166932
 C 0.2505 0.5834 0.1869   -0.172207
 C 0.2667 0.6707 0.1641   -0.086488
 C 0.2342 0.4932 0.2643   0.704932
 N 0.035 0.4223 0.0647   0.16671
 N 0.619 0.7712 0.8131   0.120398
 N 0.465 0.5777 0.5647   0.16671
 N 0.881 0.2288 0.3131   0.120398
 N 0.965 0.9223 0.4353   0.16671
 N 0.381 0.2712 0.6869   0.120398
 N 0.535 0.0777 0.9353   0.16671
 N 0.119 0.7288 0.1869   0.120398
 Cl 0.5933 0.4378 0.06915   -0.632945
 Cl 0.582 0.65231 0.04191   -0.521947
 Cl 0.9067 0.5622 0.56915   -0.632945
 Cl 0.918 0.34769 0.54191   -0.521947
 Cl 0.4067 0.9378 0.43085   -0.632945
 Cl 0.418 0.15231 0.45809   -0.521947
 Cl 0.0933 0.0622 0.93085   -0.632945
 Cl 0.082 0.84769 0.95809   -0.521947
 O 0.9111 0.5296 0.977   -0.868072
 O 0.1044 0.6549 0.0071   -0.869435
 O 0.2684 0.526 0.9717   -0.907923
 O 0.8786 0.1272 0.1054   -0.658693
 O 0.121 0.0998 0.056   -0.606908
 O 0.5592 0.5776 0.9064   -0.838881
 O 0.781 0.698 0.9256   -0.841056
 O 0.4253 0.7245 0.9173   -0.876235
 O 0.6565 0.0166 0.6954   -0.674144
 O 0.8172 0.0637 0.7604   -0.655016
 O 0.5889 0.4704 0.477   -0.868072
 O 0.3956 0.3451 0.5071   -0.869435
 O 0.2316 0.474 0.4717   -0.907923
 O 0.6214 0.8728 0.6054   -0.658693
 O 0.379 0.9002 0.556   -0.606908
 O 0.9408 0.4224 0.4064   -0.838881
 O 0.719 0.302 0.4256   -0.841056
 O 0.0747 0.2755 0.4173   -0.876235
 O 0.8435 0.9834 0.1954   -0.674144
 O 0.6828 0.9363 0.2604   -0.655016
 O 0.0889 0.0296 0.523   -0.868072
 O 0.8956 0.1549 0.4929   -0.869435
 O 0.7316 0.026 0.5283   -0.907923
 O 0.1214 0.6272 0.3946   -0.658693
 O 0.879 0.5998 0.444   -0.606908
 O 0.4408 0.0776 0.5936   -0.838881
 O 0.219 0.198 0.5744   -0.841056
 O 0.5747 0.2245 0.5827   -0.876235
 O 0.3435 0.5166 0.8046   -0.674144
 O 0.1828 0.5637 0.7396   -0.655016
 O 0.4111 0.9704 0.023   -0.868072
 O 0.6044 0.8451 0.9929   -0.869435
 O 0.7684 0.974 0.0283   -0.907923
 O 0.3786 0.3728 0.8946   -0.658693
 O 0.621 0.4002 0.944   -0.606908
 O 0.0592 0.9224 0.0936   -0.838881
 O 0.281 0.802 0.0744   -0.841056
 O 0.9253 0.7755 0.0827   -0.876235
 O 0.1565 0.4834 0.3046   -0.674144
 O 0.3172 0.4363 0.2396   -0.655016
