{'_ref': 'TBD', '_srcid': 'CAKYAQ_clean', 'submitters': [{'name': 'Dalar Nazarian Jeff Camp and David Sholl', 'email': 'dalar@gatech.edu jcamp6@gatech.edu'}], '_method': 'VASP DFT with PBE;DDEC'}
data_Zn7Cd2P6H54C36(NO5)6
_symmetry_space_group_name_H-M   'P 1'
_cell_length_a   13.58739993
_cell_length_b   13.58740026
_cell_length_c   25.72430000
_cell_angle_alpha   96.19810198
_cell_angle_beta   104.90339881
_cell_angle_gamma   107.97899984
_symmetry_Int_Tables_number   1
_chemical_formula_structural   Zn7Cd2P6H54C36(NO5)6
_chemical_formula_sum   'Zn14 Cd4 P12 H108 C72 N12 O60'
_cell_volume   4273.65369606
_cell_formula_units_Z   2
loop_
 _symmetry_equiv_pos_site_id
 _symmetry_equiv_pos_as_xyz
  1  'x, y, z'
loop_
 _atom_site_label
 _atom_site_fract_x
 _atom_site_fract_y
 _atom_site_fract_z
 _atom_site_charge
 Zn 0.67495 0.88669 0.94746   1.070031
 Zn 0.23529 0.82606 0.91295   1.047059
 Zn 0.49056 0.09265 0.87179   1.069551
 Zn 0.43923 0.72749 0.55254   1.070627
 Zn 0.41311 0.32234 0.58705   1.046245
 Zn 0.72086 0.61877 0.62821   1.070488
 Zn 0.32505 0.11331 0.05254   1.070031
 Zn 0.76471 0.17394 0.08705   1.047059
 Zn 0.50944 0.90735 0.12821   1.069551
 Zn 0.56077 0.27251 0.44746   1.070627
 Zn 0.58689 0.67766 0.41295   1.046245
 Zn 0.27914 0.38123 0.37179   1.070488
 Zn 0.5 0.0 0.0   1.349552
 Zn 0.5 0.5 0.5   1.349912
 Cd 0.86747 0.7392 0.81691   1.104703
 Cd 0.42229 0.05056 0.68309   1.105027
 Cd 0.13253 0.2608 0.18309   1.104703
 Cd 0.57771 0.94944 0.31691   1.105027
 P 0.43933 0.85458 0.87695   1.52038
 P 0.70739 0.12708 0.95913   1.512862
 P 0.6932 0.92915 0.07221   1.502157
 P 0.47763 0.56238 0.62305   1.523982
 P 0.66795 0.74826 0.54087   1.509113
 P 0.35694 0.62099 0.42779   1.502241
 P 0.56067 0.14542 0.12305   1.52038
 P 0.29261 0.87292 0.04087   1.512862
 P 0.3068 0.07085 0.92779   1.502157
 P 0.52237 0.43762 0.37695   1.523982
 P 0.33205 0.25174 0.45913   1.509113
 P 0.64306 0.37901 0.57221   1.502241
 H 0.0438 0.4881 0.8491   0.094228
 H 0.1343 0.4683 0.8258   0.079363
 H 0.2143 0.49 0.9191   0.078015
 H 0.1691 0.5806 0.9333   0.104
 H 0.3357 0.598 0.8819   0.061889
 H 0.3455 0.6756 0.9349   0.081044
 H 0.3418 0.6935 0.8151   0.140026
 H 0.2794 0.7726 0.8038   0.16732
 H 0.1333 0.6108 0.7895   0.095857
 H 0.6947 0.3087 0.8326   0.104932
 H 0.5169 0.3643 0.81   0.088313
 H 0.6331 0.4403 0.8476   0.083862
 H 0.5426 0.433 0.9114   0.076906
 H 0.4632 0.3159 0.8837   0.104506
 H 0.5904 0.2909 0.9575   0.08391
 H 0.6885 0.3763 0.9468   0.063438
 H 0.7317 0.1689 0.8766   0.170397
 H 0.7864 0.2712 0.9232   0.147348
 H 0.8665 0.7697 0.0068   0.116326
 H 0.8041 0.592 0.9957   0.086925
 H 0.7121 0.5778 0.9405   0.080649
 H 0.7007 0.6202 0.0487   0.078951
 H 0.6087 0.539 0.9977   0.078199
 H 0.5684 0.6717 0.9589   0.078344
 H 0.5851 0.7104 0.0217   0.083791
 H 0.7754 0.8018 0.0814   0.141563
 H 0.845 0.8949 0.0603   0.173824
 H 0.139 0.1947 0.6509   0.094951
 H 0.1425 0.3085 0.6742   0.07784
 H 0.0709 0.2952 0.5809   0.078111
 H 0.1473 0.2358 0.5667   0.10145
 H 0.2161 0.4538 0.6181   0.061892
 H 0.2407 0.4106 0.5651   0.081885
 H 0.3784 0.5267 0.6849   0.139438
 H 0.4688 0.4756 0.6962   0.16684
 H 0.3213 0.3438 0.7105   0.096282
 H 0.9761 0.8621 0.6674   0.106605
 H 0.0543 0.7069 0.69   0.08856
 H 0.0927 0.7855 0.6524   0.084384
 H 0.0216 0.6312 0.5886   0.077273
 H 0.9322 0.5795 0.6163   0.103563
 H 0.8334 0.6329 0.5425   0.085676
 H 0.9295 0.7417 0.5532   0.063252
 H 0.7923 0.8551 0.6234   0.17017
 H 0.848 0.8632 0.5768   0.147018
 H 0.2629 0.8597 0.4932   0.116121
 H 0.0963 0.8084 0.5043   0.087164
 H 0.1373 0.7716 0.5595   0.079444
 H 0.0715 0.652 0.4513   0.079188
 H 0.0413 0.611 0.5023   0.077683
 H 0.2128 0.6095 0.5411   0.079338
 H 0.1887 0.5634 0.4783   0.084186
 H 0.2204 0.694 0.4186   0.140812
 H 0.3346 0.7847 0.4397   0.174281
 H 0.9562 0.5119 0.1509   0.094227
 H 0.8657 0.5317 0.1742   0.079362
 H 0.7857 0.51 0.0809   0.078015
 H 0.8309 0.4194 0.0667   0.104001
 H 0.6643 0.402 0.1181   0.061889
 H 0.6545 0.3244 0.0651   0.081044
 H 0.6582 0.3065 0.1849   0.140026
 H 0.7206 0.2274 0.1962   0.16732
 H 0.8667 0.3892 0.2105   0.095857
 H 0.3053 0.6913 0.1674   0.104932
 H 0.4831 0.6357 0.19   0.088313
 H 0.3669 0.5597 0.1524   0.083862
 H 0.4574 0.567 0.0886   0.076906
 H 0.5368 0.6841 0.1163   0.104505
 H 0.4096 0.7091 0.0425   0.08391
 H 0.3115 0.6237 0.0532   0.063438
 H 0.2683 0.8311 0.1234   0.170397
 H 0.2136 0.7288 0.0768   0.147349
 H 0.1335 0.2303 0.9932   0.116326
 H 0.1959 0.408 0.0043   0.086926
 H 0.2879 0.4222 0.0595   0.080649
 H 0.2993 0.3798 0.9513   0.07895
 H 0.3913 0.461 0.0023   0.078198
 H 0.4316 0.3283 0.0411   0.078344
 H 0.4149 0.2896 0.9783   0.083791
 H 0.2246 0.1982 0.9186   0.141562
 H 0.155 0.1051 0.9397   0.173823
 H 0.861 0.8053 0.3491   0.094951
 H 0.8575 0.6915 0.3258   0.077839
 H 0.9291 0.7048 0.4191   0.07811
 H 0.8527 0.7642 0.4333   0.101451
 H 0.7839 0.5462 0.3819   0.061892
 H 0.7593 0.5894 0.4349   0.081885
 H 0.6216 0.4733 0.3151   0.139438
 H 0.5312 0.5244 0.3038   0.16684
 H 0.6787 0.6562 0.2895   0.096282
 H 0.0239 0.1379 0.3326   0.106605
 H 0.9457 0.2931 0.31   0.08856
 H 0.9073 0.2145 0.3476   0.084384
 H 0.9784 0.3688 0.4114   0.077273
 H 0.0678 0.4205 0.3837   0.103562
 H 0.1666 0.3671 0.4575   0.085676
 H 0.0705 0.2583 0.4468   0.063252
 H 0.2077 0.1449 0.3766   0.17017
 H 0.152 0.1368 0.4232   0.147019
 H 0.7371 0.1403 0.5068   0.116121
 H 0.9037 0.1916 0.4957   0.087165
 H 0.8627 0.2284 0.4405   0.079444
 H 0.9285 0.348 0.5487   0.079187
 H 0.9587 0.389 0.4977   0.077682
 H 0.7872 0.3905 0.4589   0.079338
 H 0.8113 0.4366 0.5217   0.084186
 H 0.7796 0.306 0.5814   0.140811
 H 0.6654 0.2153 0.5603   0.174281
 C 0.1183 0.5189 0.8488   -0.13086
 C 0.1974 0.55 0.9072   -0.178125
 C 0.2965 0.6319 0.8998   0.001676
 C 0.3193 0.746 0.8325   -0.450953
 C 0.1358 0.6224 0.8282   -0.028221
 C 0.0507 0.6684 0.8355   0.615992
 C 0.5458 0.1951 0.7871   0.612644
 C 0.6214 0.2819 0.8361   -0.0277
 C 0.5767 0.3723 0.8424   -0.119614
 C 0.5375 0.3643 0.8932   -0.18205
 C 0.618 0.3214 0.9294   0.004873
 C 0.7221 0.2081 0.9076   -0.454338
 C 0.8011 0.7634 0.9237   0.637031
 C 0.7939 0.7394 0.9799   -0.030463
 C 0.7471 0.6173 0.978   -0.140939
 C 0.6656 0.6081 0.0095   -0.170955
 C 0.6203 0.6933 0.9954   0.005896
 C 0.7714 0.8492 0.056   -0.439028
 C 0.1701 0.2695 0.6512   -0.131431
 C 0.1428 0.2902 0.5928   -0.174176
 C 0.2321 0.3967 0.6002   -0.000155
 C 0.4135 0.4868 0.6675   -0.4503
 C 0.2942 0.3076 0.6718   -0.027608
 C 0.3329 0.2152 0.6645   0.612373
 C 0.908 0.7587 0.7129   0.61523
 C 0.9458 0.7853 0.6639   -0.032328
 C 0.0299 0.7343 0.6576   -0.119658
 C 0.9711 0.6443 0.6068   -0.181396
 C 0.892 0.6886 0.5706   0.004159
 C 0.8005 0.8145 0.5924   -0.45212
 C 0.3397 0.8774 0.5763   0.636954
 C 0.2595 0.814 0.5201   -0.031076
 C 0.1393 0.7691 0.522   -0.140584
 C 0.0986 0.6561 0.4905   -0.169394
 C 0.1979 0.6249 0.5046   0.004138
 C 0.2932 0.7154 0.444   -0.438033
 C 0.8817 0.4811 0.1512   -0.13086
 C 0.8026 0.45 0.0928   -0.178125
 C 0.7035 0.3681 0.1002   0.001676
 C 0.6807 0.254 0.1675   -0.450953
 C 0.8642 0.3776 0.1718   -0.028221
 C 0.9493 0.3316 0.1645   0.615992
 C 0.4542 0.8049 0.2129   0.612644
 C 0.3786 0.7181 0.1639   -0.0277
 C 0.4233 0.6277 0.1576   -0.119615
 C 0.4625 0.6357 0.1068   -0.18205
 C 0.382 0.6786 0.0706   0.004873
 C 0.2779 0.7919 0.0924   -0.454339
 C 0.1989 0.2366 0.0763   0.637031
 C 0.2061 0.2606 0.0201   -0.030463
 C 0.2529 0.3827 0.022   -0.14094
 C 0.3344 0.3919 0.9905   -0.170954
 C 0.3797 0.3067 0.0046   0.005896
 C 0.2286 0.1508 0.944   -0.439028
 C 0.8299 0.7305 0.3488   -0.131431
 C 0.8572 0.7098 0.4072   -0.174176
 C 0.7679 0.6033 0.3998   -0.000155
 C 0.5865 0.5132 0.3325   -0.4503
 C 0.7058 0.6924 0.3282   -0.027608
 C 0.6671 0.7848 0.3355   0.612373
 C 0.092 0.2413 0.2871   0.61523
 C 0.0542 0.2147 0.3361   -0.032328
 C 0.9701 0.2657 0.3424   -0.119658
 C 0.0289 0.3557 0.3932   -0.181395
 C 0.108 0.3114 0.4294   0.004159
 C 0.1995 0.1855 0.4076   -0.45212
 C 0.6603 0.1226 0.4237   0.636954
 C 0.7405 0.186 0.4799   -0.031075
 C 0.8607 0.2309 0.478   -0.140585
 C 0.9014 0.3439 0.5095   -0.169393
 C 0.8021 0.3751 0.4954   0.004138
 C 0.7068 0.2846 0.556   -0.438032
 N 0.2478 0.6965 0.8639   -0.162656
 N 0.7196 0.7867 0.9985   -0.171775
 N 0.624 0.2391 0.8883   -0.169816
 N 0.3326 0.3839 0.6361   -0.161943
 N 0.2882 0.7211 0.5015   -0.172524
 N 0.8508 0.7357 0.6117   -0.170729
 N 0.7522 0.3035 0.1361   -0.162656
 N 0.2804 0.2133 0.0015   -0.171775
 N 0.376 0.7609 0.1117   -0.169816
 N 0.6674 0.6161 0.3639   -0.161944
 N 0.7118 0.2789 0.4985   -0.172524
 N 0.1492 0.2643 0.3883   -0.170729
 O 0.53326 0.8136 0.89286   -0.854781
 O 0.40621 0.8861 0.92771   -0.915835
 O 0.4617 0.941 0.8441   -0.843022
 O 0.07496 0.754 0.86876   -0.559114
 O 0.95363 0.6183 0.80533   -0.607062
 O 0.47726 0.1131 0.79356   -0.578518
 O 0.5538 0.2084 0.7406   -0.555462
 O 0.58398 0.0862 0.95158   -0.91767
 O 0.74946 0.0377 0.94656   -0.839927
 O 0.77419 0.1989 0.01509   -0.841832
 O 0.8498 0.7141 0.9011   -0.584927
 O 0.76152 0.8281 0.90462   -0.577774
 O 0.77801 0.0384 0.10301   -0.830488
 O 0.62779 0.8779 0.10809   -0.844229
 O 0.622 0.9329 0.0155   -0.915462
 O 0.42074 0.6404 0.60714   -0.855543
 O 0.45839 0.4785 0.57229   -0.916924
 O 0.5969 0.6176 0.6559   -0.844493
 O 0.38524 0.2062 0.63124   -0.556154
 O 0.31297 0.1483 0.69467   -0.607107
 O 0.81954 0.6837 0.70644   -0.579236
 O 0.9678 0.8132 0.7594   -0.555826
 O 0.63462 0.6324 0.54842   -0.917696
 O 0.59114 0.8029 0.55344   -0.83877
 O 0.68381 0.7591 0.48491   -0.840834
 O 0.313 0.9487 0.5989   -0.584439
 O 0.42348 0.8569 0.59538   -0.577908
 O 0.43539 0.675 0.39699   -0.829362
 O 0.26981 0.5197 0.39191   -0.845326
 O 0.4174 0.6065 0.4845   -0.915827
 O 0.46674 0.1864 0.10714   -0.854781
 O 0.59379 0.1139 0.07229   -0.915835
 O 0.5383 0.059 0.1559   -0.843022
 O 0.92504 0.246 0.13124   -0.559114
 O 0.04637 0.3817 0.19467   -0.607062
 O 0.52274 0.8869 0.20644   -0.578518
 O 0.4462 0.7916 0.2594   -0.555462
 O 0.41602 0.9138 0.04842   -0.91767
 O 0.25054 0.9623 0.05344   -0.839927
 O 0.22581 0.8011 0.98491   -0.841832
 O 0.1502 0.2859 0.0989   -0.584927
 O 0.23848 0.1719 0.09538   -0.577774
 O 0.22199 0.9616 0.89699   -0.830489
 O 0.37221 0.1221 0.89191   -0.844229
 O 0.378 0.0671 0.9845   -0.915462
 O 0.57926 0.3596 0.39286   -0.855543
 O 0.54161 0.5215 0.42771   -0.916924
 O 0.4031 0.3824 0.3441   -0.844493
 O 0.61476 0.7938 0.36876   -0.556154
 O 0.68703 0.8517 0.30533   -0.607107
 O 0.18046 0.3163 0.29356   -0.579236
 O 0.0322 0.1868 0.2406   -0.555826
 O 0.36538 0.3676 0.45158   -0.917696
 O 0.40886 0.1971 0.44656   -0.83877
 O 0.31619 0.2409 0.51509   -0.840834
 O 0.687 0.0513 0.4011   -0.584439
 O 0.57652 0.1431 0.40462   -0.577908
 O 0.56461 0.325 0.60301   -0.829362
 O 0.73019 0.4803 0.60809   -0.845326
 O 0.5826 0.3935 0.5155   -0.915827
