{'_ref': 'TBD', '_srcid': 'CAKYAQ_clean', 'submitters': [{'name': 'Dalar Nazarian Jeff Camp and David Sholl', 'email': 'dalar@gatech.edu jcamp6@gatech.edu'}], '_method': 'VASP DFT with PBE;DDEC'}
data_Zn3H34C76N6(O4F5)2
_symmetry_space_group_name_H-M   'P 1'
_cell_length_a   11.56900003
_cell_length_b   15.44699995
_cell_length_c   21.19000000
_cell_angle_alpha   76.79399896
_cell_angle_beta   79.02499939
_cell_angle_gamma   89.61500121
_symmetry_Int_Tables_number   1
_chemical_formula_structural   Zn3H34C76N6(O4F5)2
_chemical_formula_sum   'Zn3 H34 C76 N6 O8 F10'
_cell_volume   3616.53829237
_cell_formula_units_Z   1
loop_
 _symmetry_equiv_pos_site_id
 _symmetry_equiv_pos_as_xyz
  1  'x, y, z'
loop_
 _atom_site_label
 _atom_site_fract_x
 _atom_site_fract_y
 _atom_site_fract_z
 _atom_site_charge
 Zn 0.96485 0.47913 0.57266   0.939107
 Zn 0.03515 0.52087 0.42734   0.939107
 Zn 0.5 0.5 0.0   0.784574
 H 0.3112 0.3483 0.4377   0.092379
 H 0.4348 0.2294 0.4306   0.107456
 H 0.2651 0.0979 0.6109   0.104648
 H 0.1517 0.2178 0.6213   0.103316
 H 0.2967 0.9869 0.534   0.110321
 H 0.5551 0.176 0.5826   0.106003
 H 0.6764 0.295 0.5844   0.09848
 H 0.8324 0.3054 0.3955   0.095515
 H 0.7188 0.1806 0.3963   0.107115
 H 0.7229 0.4607 0.6454   0.09038
 H 0.6144 0.4604 0.7448   0.145511
 H 0.9103 0.523 0.8005   0.149131
 H 0.0059 0.5241 0.6948   0.084261
 H 0.6976 0.3169 0.8384   0.143567
 H 0.5909 0.2071 0.9315   0.09567
 H 0.2476 0.2322 0.1374   0.13337
 H 0.2587 0.3315 0.2213   0.145897
 H 0.6888 0.6517 0.5623   0.092379
 H 0.5652 0.7706 0.5694   0.107457
 H 0.7349 0.9021 0.3891   0.104647
 H 0.8483 0.7822 0.3787   0.103316
 H 0.7033 0.0131 0.466   0.110322
 H 0.4449 0.824 0.4174   0.106003
 H 0.3236 0.705 0.4156   0.09848
 H 0.1676 0.6946 0.6045   0.095515
 H 0.2812 0.8194 0.6037   0.107114
 H 0.2771 0.5393 0.3546   0.090381
 H 0.3856 0.5396 0.2552   0.145511
 H 0.0897 0.477 0.1995   0.149131
 H 0.9941 0.4759 0.3052   0.084261
 H 0.3024 0.6831 0.1616   0.143567
 H 0.4091 0.7929 0.0685   0.09567
 H 0.7524 0.7678 0.8626   0.133369
 H 0.7413 0.6685 0.7787   0.145897
 C 0.1345 0.3694 0.5306   0.69249
 C 0.2182 0.2948 0.5289   -0.135006
 C 0.3027 0.2974 0.4735   -0.034716
 C 0.376 0.2266 0.469   -0.152359
 C 0.3631 0.1518 0.5206   0.071661
 C 0.2764 0.1498 0.576   -0.15589
 C 0.2073 0.2196 0.5817   -0.041507
 C 0.4353 0.074 0.5128   0.008603
 C 0.3798 0.9926 0.5197   -0.156372
 C 0.56 0.0816 0.4933   0.008918
 C 0.627 0.1643 0.4903   0.07491
 C 0.6139 0.2005 0.5449   -0.149361
 C 0.6849 0.2723 0.5458   -0.037896
 C 0.7677 0.3105 0.4906   -0.139374
 C 0.7782 0.2776 0.4344   -0.039561
 C 0.7093 0.204 0.4347   -0.167081
 C 0.8485 0.3846 0.493   0.702291
 C 0.762 0.471 0.6787   0.183
 C 0.697 0.4722 0.7369   -0.237754
 C 0.7478 0.4901 0.7858   0.182504
 C 0.8684 0.509 0.7695   -0.248778
 C 0.9247 0.5066 0.7069   0.197844
 C 0.6764 0.492 0.8535   -0.156649
 C 0.6307 0.4161 0.892   0.250166
 C 0.6517 0.3295 0.8772   -0.195144
 C 0.594 0.2726 0.9285   -0.077902
 C 0.485 0.3245 0.9623   0.12094
 C 0.403 0.2874 0.0166   -0.036964
 C 0.3304 0.2028 0.015   -0.119919
 C 0.2287 0.1902 0.9918   0.205025
 C 0.1873 0.1046 0.9954   0.105551
 C 0.2477 0.0315 0.0222   0.148314
 C 0.3494 0.0441 0.0455   0.091027
 C 0.3908 0.1297 0.0418   0.181465
 C 0.401 0.3223 0.0803   0.162191
 C 0.296 0.2835 0.1333   -0.156102
 C 0.287 0.343 0.175   -0.2066
 C 0.6661 0.5734 0.8701   0.235568
 C 0.8655 0.6306 0.4694   0.69249
 C 0.7818 0.7052 0.4711   -0.135006
 C 0.6973 0.7026 0.5265   -0.034716
 C 0.624 0.7734 0.531   -0.152359
 C 0.6369 0.8482 0.4794   0.071661
 C 0.7236 0.8502 0.424   -0.155889
 C 0.7927 0.7804 0.4183   -0.041507
 C 0.5647 0.926 0.4872   0.008603
 C 0.6202 0.0074 0.4803   -0.156372
 C 0.44 0.9184 0.5067   0.008918
 C 0.373 0.8357 0.5097   0.07491
 C 0.3861 0.7995 0.4551   -0.149361
 C 0.3151 0.7277 0.4542   -0.037896
 C 0.2323 0.6895 0.5094   -0.139374
 C 0.2218 0.7224 0.5656   -0.039561
 C 0.2907 0.796 0.5653   -0.16708
 C 0.1515 0.6154 0.507   0.702291
 C 0.238 0.529 0.3213   0.183
 C 0.303 0.5278 0.2631   -0.237754
 C 0.2522 0.5099 0.2142   0.182504
 C 0.1316 0.491 0.2305   -0.248778
 C 0.0753 0.4934 0.2931   0.197845
 C 0.3236 0.508 0.1465   -0.156649
 C 0.3693 0.5839 0.108   0.250166
 C 0.3483 0.6705 0.1228   -0.195144
 C 0.406 0.7274 0.0715   -0.077902
 C 0.515 0.6755 0.0377   0.12094
 C 0.597 0.7126 0.9834   -0.036964
 C 0.6696 0.7972 0.985   -0.119919
 C 0.7713 0.8098 0.0082   0.205025
 C 0.8127 0.8954 0.0046   0.105551
 C 0.7523 0.9685 0.9778   0.148314
 C 0.6506 0.9559 0.9545   0.091027
 C 0.6092 0.8703 0.9582   0.181465
 C 0.599 0.6777 0.9197   0.16219
 C 0.704 0.7165 0.8667   -0.156102
 C 0.713 0.657 0.825   -0.206599
 C 0.3339 0.4266 0.1299   0.235568
 N 0.8776 0.4832 0.6637   -0.282865
 N 0.5548 0.4045 0.9528   -0.429786
 N 0.4034 0.4097 0.0738   -0.402547
 N 0.1224 0.5168 0.3363   -0.282865
 N 0.4452 0.5955 0.0472   -0.429786
 N 0.5966 0.5903 0.9262   -0.402547
 O 0.078 0.3779 0.5848   -0.590982
 O 0.1268 0.4191 0.4753   -0.63992
 O 0.9051 0.4284 0.43859   -0.613544
 O 0.8543 0.3962 0.54823   -0.600389
 O 0.922 0.6221 0.4152   -0.590982
 O 0.8732 0.5809 0.5247   -0.639921
 O 0.0949 0.5716 0.56141   -0.613544
 O 0.1457 0.6038 0.45177   -0.600389
 F 0.1694 0.2619 0.9654   -0.132675
 F 0.0843 0.0918 0.9719   -0.137698
 F 0.2062 0.9456 0.0259   -0.124582
 F 0.4101 0.9706 0.0724   -0.133209
 F 0.4931 0.1423 0.0652   -0.133752
 F 0.8306 0.7381 0.0346   -0.132675
 F 0.9157 0.9082 0.0281   -0.137697
 F 0.7938 0.0544 0.9741   -0.124581
 F 0.5899 0.0294 0.9276   -0.133209
 F 0.5069 0.8577 0.9348   -0.133752
