{'_ref': 'TBD', '_srcid': 'CAKYAQ_clean', 'submitters': [{'name': 'Dalar Nazarian Jeff Camp and David Sholl', 'email': 'dalar@gatech.edu jcamp6@gatech.edu'}], '_method': 'VASP DFT with PBE;DDEC'}
data_NiH10C4(NCl)2
_symmetry_space_group_name_H-M   'P 1'
_cell_length_a   6.30720041
_cell_length_b   7.94609995
_cell_length_c   7.94610000
_cell_angle_alpha   108.46599672
_cell_angle_beta   91.44920022
_cell_angle_gamma   91.44919700
_symmetry_Int_Tables_number   1
_chemical_formula_structural   NiH10C4(NCl)2
_chemical_formula_sum   'Ni2 H20 C8 N4 Cl4'
_cell_volume   377.381393957
_cell_formula_units_Z   2
loop_
 _symmetry_equiv_pos_site_id
 _symmetry_equiv_pos_as_xyz
  1  'x, y, z'
loop_
 _atom_site_label
 _atom_site_fract_x
 _atom_site_fract_y
 _atom_site_fract_z
 _atom_site_charge
 Ni 0.75 0.92725 0.07275   0.50384
 Ni 0.25 0.07275 0.92725   0.50384
 H 0.035 0.002 0.278   0.235224
 H 0.724 0.09 0.51   0.060904
 H 0.828 0.225 0.429   0.078362
 H 0.026 0.727 0.285   0.082227
 H 0.845 0.787 0.427   0.073323
 H 0.465 0.722 0.998   0.235224
 H 0.776 0.49 0.91   0.060903
 H 0.672 0.571 0.775   0.078376
 H 0.474 0.715 0.273   0.082223
 H 0.655 0.573 0.213   0.073332
 H 0.965 0.998 0.722   0.235222
 H 0.276 0.91 0.49   0.060897
 H 0.172 0.775 0.571   0.078371
 H 0.974 0.273 0.715   0.082224
 H 0.155 0.213 0.573   0.073323
 H 0.535 0.278 0.002   0.235222
 H 0.224 0.51 0.09   0.060897
 H 0.328 0.429 0.225   0.078384
 H 0.526 0.285 0.727   0.082221
 H 0.345 0.427 0.787   0.073332
 C 0.8566 0.1235 0.4681   -0.005505
 C 0.9744 0.8235 0.3829   -0.007226
 C 0.6434 0.5319 0.8765   -0.00551
 C 0.5256 0.6171 0.1765   -0.007228
 C 0.1434 0.8765 0.5319   -0.0055
 C 0.0256 0.1765 0.6171   -0.00722
 C 0.3566 0.4681 0.1235   -0.005504
 C 0.4744 0.3829 0.8235   -0.007221
 N 0.9222 0.97239 0.31621   -0.344238
 N 0.5778 0.68379 0.02761   -0.344236
 N 0.0778 0.02761 0.68379   -0.344238
 N 0.4222 0.31621 0.97239   -0.344237
 Cl 0.06563 0.78868 0.92382   -0.425
 Cl 0.43437 0.07618 0.21132   -0.425001
 Cl 0.93437 0.21132 0.07618   -0.425002
 Cl 0.56563 0.92382 0.78868   -0.425003
