{'_ref': 'TBD', '_srcid': 'CAKYAQ_clean', 'submitters': [{'name': 'Dalar Nazarian Jeff Camp and David Sholl', 'email': 'dalar@gatech.edu jcamp6@gatech.edu'}], '_method': 'VASP DFT with PBE;DDEC'}
data_Cu3H32C42(S3N5)2
_symmetry_space_group_name_H-M   'P 1'
_cell_length_a   11.40600018
_cell_length_b   12.45300037
_cell_length_c   13.75900000
_cell_angle_alpha   110.45199906
_cell_angle_beta   101.87799828
_cell_angle_gamma   108.21400116
_symmetry_Int_Tables_number   1
_chemical_formula_structural   Cu3H32C42(S3N5)2
_chemical_formula_sum   'Cu3 H32 C42 S6 N10'
_cell_volume   1626.75922782
_cell_formula_units_Z   1
loop_
 _symmetry_equiv_pos_site_id
 _symmetry_equiv_pos_as_xyz
  1  'x, y, z'
loop_
 _atom_site_label
 _atom_site_fract_x
 _atom_site_fract_y
 _atom_site_fract_z
 _atom_site_charge
 Cu 0.5 0.5 0.5   0.555307
 Cu 0.5 0.0 0.0   0.397462
 Cu 0.5 0.5 0.0   0.290679
 H 0.5333 0.2855 0.532   0.083346
 H 0.4168 0.1056 0.547   0.137126
 H 0.1172 0.2147 0.5471   0.124119
 H 0.2405 0.387 0.5248   0.082392
 H 0.5133 0.1712 0.8981   0.067893
 H 0.4035 0.1837 0.7428   0.120306
 H 0.1307 0.8298 0.6402   0.137039
 H 0.2476 0.826 0.7956   0.075812
 H 0.7832 0.1803 0.0404   0.080281
 H 0.9415 0.1807 0.9616   0.129521
 H 0.7 0.8222 0.7312   0.139111
 H 0.5436 0.8338 0.8147   0.071411
 H 0.3556 0.2928 0.055   0.07867
 H 0.1605 0.1096 0.9734   0.13011
 H 0.0532 0.1982 0.7229   0.120608
 H 0.2514 0.3741 0.8074   0.069823
 H 0.4667 0.7145 0.468   0.083346
 H 0.5832 0.8944 0.453   0.137137
 H 0.8828 0.7853 0.4529   0.124121
 H 0.7595 0.613 0.4752   0.082395
 H 0.4867 0.8288 0.1019   0.067893
 H 0.5965 0.8163 0.2572   0.120306
 H 0.8693 0.1702 0.3598   0.137044
 H 0.7524 0.174 0.2044   0.075813
 H 0.2168 0.8197 0.9596   0.080282
 H 0.0585 0.8193 0.0384   0.129521
 H 0.3 0.1778 0.2688   0.139111
 H 0.4564 0.1662 0.1853   0.071409
 H 0.6444 0.7072 0.945   0.078667
 H 0.8395 0.8904 0.0266   0.13011
 H 0.9468 0.8018 0.2771   0.120608
 H 0.7486 0.6259 0.1926   0.069823
 C 0.4468 0.2695 0.5336   0.147286
 C 0.3791 0.1629 0.5437   -0.223787
 C 0.2527 0.1419 0.549   0.098151
 C 0.2021 0.2262 0.5429   -0.213616
 C 0.2768 0.3294 0.5304   0.141884
 C 0.4349 0.1005 0.8443   0.146392
 C 0.3702 0.1092 0.7521   -0.219263
 C 0.2555 0.0058 0.6737   0.110195
 C 0.2101 0.9008 0.6919   -0.202311
 C 0.2799 0.8994 0.7847   0.13437
 C 0.7656 0.1069 0.9764   0.142443
 C 0.8605 0.1077 0.9303   -0.193871
 C 0.8385 0.0022 0.8378   0.113832
 C 0.7184 0.8971 0.7942   -0.201731
 C 0.6263 0.9048 0.8454   0.134769
 C 0.2944 0.2722 0.9859   0.128825
 C 0.1777 0.163 0.938   -0.178322
 C 0.0875 0.1333 0.8384   0.070392
 C 0.1149 0.2147 0.7901   -0.192797
 C 0.2325 0.3194 0.8415   0.11752
 C 0.757 0.6083 0.6975   0.381336
 C 0.5532 0.7305 0.4664   0.147288
 C 0.6209 0.8371 0.4563   -0.223789
 C 0.7473 0.8581 0.451   0.098152
 C 0.7979 0.7738 0.4571   -0.213617
 C 0.7232 0.6706 0.4696   0.141883
 C 0.5651 0.8995 0.1557   0.146392
 C 0.6298 0.8908 0.2479   -0.219263
 C 0.7445 0.9942 0.3263   0.110196
 C 0.7899 0.0992 0.3081   -0.202313
 C 0.7201 0.1006 0.2153   0.13437
 C 0.2344 0.8931 0.0236   0.142442
 C 0.1395 0.8923 0.0697   -0.193871
 C 0.1615 0.9978 0.1622   0.113833
 C 0.2816 0.1029 0.2058   -0.20173
 C 0.3737 0.0952 0.1546   0.13477
 C 0.7056 0.7278 0.0141   0.128826
 C 0.8223 0.837 0.062   -0.178322
 C 0.9125 0.8667 0.1616   0.070392
 C 0.8851 0.7853 0.2099   -0.192797
 C 0.7675 0.6806 0.1585   0.11752
 C 0.243 0.3917 0.3025   0.381335
 S 0.15605 0.00328 0.55553   -0.072916
 S 0.94621 0.98715 0.76378   -0.036797
 S 0.9032 0.6823 0.7891   -0.520224
 S 0.84395 0.99672 0.44447   -0.072917
 S 0.05379 0.01285 0.23622   -0.036797
 S 0.0968 0.3177 0.2109   -0.520224
 N 0.3969 0.3508 0.5259   -0.294399
 N 0.3927 0.9978 0.8615   -0.324399
 N 0.6475 0.0068 0.9358   -0.33255
 N 0.3236 0.3494 0.9383   -0.331229
 N 0.6521 0.557 0.6321   -0.598486
 N 0.6031 0.6492 0.4741   -0.294399
 N 0.6073 0.0022 0.1385   -0.324399
 N 0.3525 0.9932 0.0642   -0.33255
 N 0.6764 0.6506 0.0617   -0.331229
 N 0.3479 0.443 0.3679   -0.598486
