{'_ref': 'TBD', '_srcid': 'CAKYAQ_clean', 'submitters': [{'name': 'Dalar Nazarian Jeff Camp and David Sholl', 'email': 'dalar@gatech.edu jcamp6@gatech.edu'}], '_method': 'VASP DFT with PBE;DDEC'}
data_Ho2H9C24(NO6)3
_symmetry_space_group_name_H-M   'P 1'
_cell_length_a   13.68310008
_cell_length_b   13.68309976
_cell_length_c   16.19550000
_cell_angle_alpha   66.58149834
_cell_angle_beta   66.58149892
_cell_angle_gamma   74.94559765
_symmetry_Int_Tables_number   1
_chemical_formula_structural   Ho2H9C24(NO6)3
_chemical_formula_sum   'Ho4 H18 C48 N6 O36'
_cell_volume   2534.54178831
_cell_formula_units_Z   2
loop_
 _symmetry_equiv_pos_site_id
 _symmetry_equiv_pos_as_xyz
  1  'x, y, z'
loop_
 _atom_site_label
 _atom_site_fract_x
 _atom_site_fract_y
 _atom_site_fract_z
 _atom_site_charge
 Ho 0.66281 0.95456 0.99796   2.172886
 Ho 0.04544 0.33719 0.50204   2.172886
 Ho 0.33719 0.04544 0.00204   2.172886
 Ho 0.95456 0.66281 0.49796   2.172886
 H 0.8371 0.7257 0.244   0.121228
 H 0.96 0.4184 0.277   0.115226
 H 0.8437 0.5915 0.0621   0.124401
 H 0.579 0.6302 0.154   0.124239
 H 0.2743 0.1629 0.256   0.121228
 H 0.5816 0.04 0.223   0.115226
 H 0.4085 0.1563 0.4379   0.124401
 H 0.3698 0.421 0.346   0.124239
 H 0.1629 0.2743 0.756   0.121228
 H 0.04 0.5816 0.723   0.115226
 H 0.1563 0.4085 0.9379   0.124401
 H 0.421 0.3698 0.846   0.124239
 H 0.7257 0.8371 0.744   0.121228
 H 0.4184 0.96 0.777   0.115226
 H 0.5915 0.8437 0.5621   0.124401
 H 0.6302 0.579 0.654   0.124239
 H 0.2666 0.7334 0.25   0.106035
 H 0.7334 0.2666 0.75   0.106035
 C 0.449 0.8108 0.1247   0.819463
 C 0.832 0.6748 0.1451   -0.125958
 C 0.8549 0.6665 0.2239   0.026954
 C 0.9038 0.5716 0.2732   -0.181169
 C 0.9284 0.4832 0.2443   0.003802
 C 0.905 0.4932 0.1665   -0.036957
 C 0.8576 0.5874 0.1152   0.000309
 C 0.7778 0.7762 0.0907   0.665603
 C 0.9299 0.5635 0.3579   0.820752
 C 0.4253 0.6989 0.1904   -0.165252
 C 0.5088 0.6168 0.1916   0.001641
 C 0.1892 0.551 0.3753   0.819463
 C 0.3252 0.168 0.3549   -0.125958
 C 0.3335 0.1451 0.2761   0.026954
 C 0.4284 0.0962 0.2268   -0.181169
 C 0.5168 0.0716 0.2557   0.003802
 C 0.5068 0.095 0.3335   -0.036957
 C 0.4126 0.1424 0.3848   0.00031
 C 0.2238 0.2222 0.4093   0.665604
 C 0.4365 0.0701 0.1421   0.820752
 C 0.3011 0.5747 0.3096   -0.165252
 C 0.3832 0.4912 0.3084   0.001641
 C 0.551 0.1892 0.8753   0.819463
 C 0.168 0.3252 0.8549   -0.125958
 C 0.1451 0.3335 0.7761   0.026954
 C 0.0962 0.4284 0.7268   -0.181169
 C 0.0716 0.5168 0.7557   0.003802
 C 0.095 0.5068 0.8335   -0.036957
 C 0.1424 0.4126 0.8848   0.000309
 C 0.2222 0.2238 0.9093   0.665603
 C 0.0701 0.4365 0.6421   0.820752
 C 0.5747 0.3011 0.8096   -0.165252
 C 0.4912 0.3832 0.8084   0.001641
 C 0.8108 0.449 0.6247   0.819463
 C 0.6748 0.832 0.6451   -0.125958
 C 0.6665 0.8549 0.7239   0.026954
 C 0.5716 0.9038 0.7732   -0.181169
 C 0.4832 0.9284 0.7443   0.003802
 C 0.4932 0.905 0.6665   -0.036957
 C 0.5874 0.8576 0.6152   0.000309
 C 0.7762 0.7778 0.5907   0.665604
 C 0.5635 0.9299 0.8579   0.820751
 C 0.6989 0.4253 0.6904   -0.165252
 C 0.6168 0.5088 0.6916   0.001641
 C 0.3224 0.6776 0.25   0.039186
 C 0.4855 0.5145 0.25   -0.054957
 C 0.6776 0.3224 0.75   0.039186
 C 0.5145 0.4855 0.75   -0.054957
 N 0.9277 0.3991 0.1343   0.624197
 N 0.6009 0.0723 0.3657   0.624196
 N 0.0723 0.6009 0.8657   0.624197
 N 0.3991 0.9277 0.6343   0.624196
 N 0.5741 0.4259 0.25   0.619486
 N 0.4259 0.5741 0.75   0.619486
 O 0.7355 0.8513 0.1257   -0.701916
 O 0.7708 0.78 0.0154   -0.639423
 O 0.5463 0.8259 0.0862   -0.707351
 O 0.3725 0.8799 0.1106   -0.792835
 O 0.9104 0.647 0.3788   -0.701089
 O 0.9698 0.4742 0.4012   -0.808878
 O 0.9594 0.314 0.1853   -0.384515
 O 0.9173 0.4119 0.0611   -0.363745
 O 0.6642 0.4486 0.2026   -0.36649
 O 0.1487 0.2645 0.3743   -0.701916
 O 0.22 0.2292 0.4846   -0.639424
 O 0.1741 0.4537 0.4138   -0.707351
 O 0.1201 0.6275 0.3894   -0.792835
 O 0.353 0.0896 0.1212   -0.701089
 O 0.5258 0.0302 0.0988   -0.808878
 O 0.686 0.0406 0.3147   -0.384513
 O 0.5881 0.0827 0.4389   -0.363745
 O 0.5514 0.3358 0.2974   -0.366489
 O 0.2645 0.1487 0.8743   -0.701916
 O 0.2292 0.22 0.9846   -0.639423
 O 0.4537 0.1741 0.9138   -0.707351
 O 0.6275 0.1201 0.8894   -0.792835
 O 0.0896 0.353 0.6212   -0.701089
 O 0.0302 0.5258 0.5988   -0.808878
 O 0.0406 0.686 0.8147   -0.384515
 O 0.0827 0.5881 0.9389   -0.363745
 O 0.3358 0.5514 0.7974   -0.36649
 O 0.8513 0.7355 0.6257   -0.701916
 O 0.78 0.7708 0.5154   -0.639424
 O 0.8259 0.5463 0.5862   -0.707351
 O 0.8799 0.3725 0.6106   -0.792835
 O 0.647 0.9104 0.8788   -0.701089
 O 0.4742 0.9698 0.9012   -0.808878
 O 0.314 0.9594 0.6853   -0.384513
 O 0.4119 0.9173 0.5611   -0.363745
 O 0.4486 0.6642 0.7026   -0.366489
