{'_ref': 'TBD', '_srcid': 'CAKYAQ_clean', 'submitters': [{'name': 'Dalar Nazarian Jeff Camp and David Sholl', 'email': 'dalar@gatech.edu jcamp6@gatech.edu'}], '_method': 'VASP DFT with PBE;DDEC'}
data_Nd2H9C24(NO6)3
_symmetry_space_group_name_H-M   'P 1'
_cell_length_a   13.85420016
_cell_length_b   13.85420012
_cell_length_c   16.44500000
_cell_angle_alpha   67.10220016
_cell_angle_beta   67.10220022
_cell_angle_gamma   75.86889922
_symmetry_Int_Tables_number   1
_chemical_formula_structural   Nd2H9C24(NO6)3
_chemical_formula_sum   'Nd4 H18 C48 N6 O36'
_cell_volume   2662.53484254
_cell_formula_units_Z   2
loop_
 _symmetry_equiv_pos_site_id
 _symmetry_equiv_pos_as_xyz
  1  'x, y, z'
loop_
 _atom_site_label
 _atom_site_fract_x
 _atom_site_fract_y
 _atom_site_fract_z
 _atom_site_charge
 Nd 0.95365 0.66626 0.49935   2.262872
 Nd 0.33374 0.04635 0.00065   2.262872
 Nd 0.04635 0.33374 0.50065   2.262872
 Nd 0.66626 0.95365 0.99935   2.262872
 H 0.7215 0.8401 0.7424   0.118657
 H 0.418 0.9532 0.7817   0.105414
 H 0.5827 0.8433 0.5676   0.124416
 H 0.63 0.5752 0.6536   0.124721
 H 0.1599 0.2785 0.7576   0.118657
 H 0.0468 0.582 0.7183   0.105414
 H 0.1567 0.4173 0.9324   0.124416
 H 0.4248 0.37 0.8464   0.124721
 H 0.2785 0.1599 0.2576   0.118657
 H 0.582 0.0468 0.2183   0.105414
 H 0.4173 0.1567 0.4324   0.124416
 H 0.37 0.4248 0.3464   0.124721
 H 0.8401 0.7215 0.2424   0.118657
 H 0.9532 0.418 0.2817   0.105414
 H 0.8433 0.5827 0.0676   0.124416
 H 0.5752 0.63 0.1536   0.124721
 H 0.7319 0.2681 0.75   0.105899
 H 0.2681 0.7319 0.25   0.105899
 C 0.6681 0.8333 0.6471   -0.132324
 C 0.6621 0.8557 0.7244   0.030552
 C 0.5697 0.9011 0.775   -0.181414
 C 0.4813 0.9235 0.7483   0.00085
 C 0.4889 0.9007 0.6709   -0.03733
 C 0.5799 0.8569 0.6196   0.007167
 C 0.7682 0.7806 0.5928   0.689409
 C 0.5641 0.9265 0.8584   0.819266
 C 0.6988 0.4242 0.6909   -0.165008
 C 0.61714 0.50634 0.6916   -0.00594
 C 0.809 0.4482 0.625   0.826553
 C 0.1667 0.3319 0.8529   -0.132324
 C 0.1443 0.3379 0.7756   0.030552
 C 0.0989 0.4303 0.725   -0.181414
 C 0.0765 0.5187 0.7517   0.00085
 C 0.0993 0.5111 0.8291   -0.03733
 C 0.1431 0.4201 0.8804   0.007167
 C 0.2194 0.2318 0.9072   0.689409
 C 0.0735 0.4359 0.6416   0.819266
 C 0.5758 0.3012 0.8091   -0.165008
 C 0.49366 0.38286 0.8084   -0.00594
 C 0.5518 0.191 0.875   0.826552
 C 0.3319 0.1667 0.3529   -0.132324
 C 0.3379 0.1443 0.2756   0.030552
 C 0.4303 0.0989 0.225   -0.181414
 C 0.5187 0.0765 0.2517   0.00085
 C 0.5111 0.0993 0.3291   -0.03733
 C 0.4201 0.1431 0.3804   0.007167
 C 0.2318 0.2194 0.4072   0.689409
 C 0.4359 0.0735 0.1416   0.819266
 C 0.3012 0.5758 0.3091   -0.165008
 C 0.38286 0.49366 0.3084   -0.00594
 C 0.191 0.5518 0.375   0.826552
 C 0.8333 0.6681 0.1471   -0.132324
 C 0.8557 0.6621 0.2244   0.030552
 C 0.9011 0.5697 0.275   -0.181414
 C 0.9235 0.4813 0.2483   0.00085
 C 0.9007 0.4889 0.1709   -0.03733
 C 0.8569 0.5799 0.1196   0.007167
 C 0.7806 0.7682 0.0928   0.689409
 C 0.9265 0.5641 0.3584   0.819266
 C 0.4242 0.6988 0.1909   -0.165009
 C 0.50634 0.61714 0.1916   -0.00594
 C 0.4482 0.809 0.125   0.826552
 C 0.6773 0.3227 0.75   0.037977
 C 0.5171 0.4829 0.75   -0.041469
 C 0.3227 0.6773 0.25   0.037977
 C 0.4829 0.5171 0.25   -0.041469
 N 0.3946 0.9238 0.6421   0.627558
 N 0.0762 0.6054 0.8579   0.627558
 N 0.6054 0.0762 0.3579   0.627558
 N 0.9238 0.3946 0.1421   0.627558
 N 0.4308 0.5692 0.75   0.601908
 N 0.5692 0.4308 0.25   0.601908
 O 0.77154 0.77058 0.5194   -0.671367
 O 0.84483 0.74885 0.6232   -0.732785
 O 0.64739 0.90703 0.8775   -0.70175
 O 0.47754 0.96854 0.9005   -0.823754
 O 0.3108 0.9458 0.696   -0.377322
 O 0.4068 0.9192 0.5668   -0.375696
 O 0.87467 0.37177 0.6105   -0.804456
 O 0.82501 0.54301 0.5891   -0.714369
 O 0.33997 0.54737 0.7938   -0.366075
 O 0.22942 0.22846 0.9806   -0.671367
 O 0.25115 0.15517 0.8768   -0.732785
 O 0.09297 0.35261 0.6225   -0.70175
 O 0.03146 0.52246 0.5995   -0.823754
 O 0.0542 0.6892 0.804   -0.377322
 O 0.0808 0.5932 0.9332   -0.375696
 O 0.62823 0.12533 0.8895   -0.804456
 O 0.45699 0.17499 0.9109   -0.714369
 O 0.45263 0.66003 0.7062   -0.366076
 O 0.22846 0.22942 0.4806   -0.671367
 O 0.15517 0.25115 0.3768   -0.732785
 O 0.35261 0.09297 0.1225   -0.70175
 O 0.52246 0.03146 0.0995   -0.823754
 O 0.6892 0.0542 0.304   -0.377322
 O 0.5932 0.0808 0.4332   -0.375696
 O 0.12533 0.62823 0.3895   -0.804456
 O 0.17499 0.45699 0.4109   -0.714369
 O 0.66003 0.45263 0.2062   -0.366075
 O 0.77058 0.77154 0.0194   -0.671367
 O 0.74885 0.84483 0.1232   -0.732785
 O 0.90703 0.64739 0.3775   -0.70175
 O 0.96854 0.47754 0.4005   -0.823754
 O 0.9458 0.3108 0.196   -0.377322
 O 0.9192 0.4068 0.0668   -0.375696
 O 0.37177 0.87467 0.1105   -0.804456
 O 0.54301 0.82501 0.0891   -0.714369
 O 0.54737 0.33997 0.2938   -0.366076
