{'_ref': 'TBD', '_srcid': 'CAKYAQ_clean', 'submitters': [{'name': 'Dalar Nazarian Jeff Camp and David Sholl', 'email': 'dalar@gatech.edu jcamp6@gatech.edu'}], '_method': 'VASP DFT with PBE;DDEC'}
data_LiH4C6NO2
_symmetry_space_group_name_H-M   'P 1'
_cell_length_a   5.40280000
_cell_length_b   11.28619986
_cell_length_c   13.91750000
_cell_angle_alpha   90.00000000
_cell_angle_beta   90.00000000
_cell_angle_gamma   102.87500029
_symmetry_Int_Tables_number   1
_chemical_formula_structural   LiH4C6NO2
_chemical_formula_sum   'Li4 H16 C24 N4 O8'
_cell_volume   827.312232612
_cell_formula_units_Z   4
loop_
 _symmetry_equiv_pos_site_id
 _symmetry_equiv_pos_as_xyz
  1  'x, y, z'
loop_
 _atom_site_label
 _atom_site_fract_x
 _atom_site_fract_y
 _atom_site_fract_z
 _atom_site_charge
 Li 0.8124 0.0089 0.5658   0.867459
 Li 0.6876 0.4911 0.0658   0.867459
 Li 0.1876 0.9911 0.4342   0.86746
 Li 0.3124 0.5089 0.9342   0.86746
 H 0.9574 0.7243 0.3732   0.129013
 H 0.3945 0.6682 0.1227   0.072444
 H 0.3643 0.8102 0.2376   0.119974
 H 0.9637 0.5829 0.2553   0.061246
 H 0.5426 0.7757 0.8732   0.129014
 H 0.1055 0.8318 0.6227   0.072445
 H 0.1357 0.6898 0.7376   0.119974
 H 0.5363 0.9171 0.7553   0.061246
 H 0.0426 0.2757 0.6268   0.129013
 H 0.6055 0.3318 0.8773   0.072444
 H 0.6357 0.1898 0.7624   0.119974
 H 0.0363 0.4171 0.7447   0.061246
 H 0.4574 0.2243 0.1268   0.129014
 H 0.8945 0.1682 0.3773   0.072445
 H 0.8643 0.3102 0.2624   0.119974
 H 0.4637 0.0829 0.2447   0.061246
 C 0.6359 0.8748 0.39689   0.765032
 C 0.6585 0.7844 0.31884   -0.038024
 C 0.8403 0.7144 0.3232   -0.160583
 C 0.5081 0.6793 0.17386   0.192649
 C 0.4891 0.7655 0.24255   -0.163528
 C 0.8427 0.6298 0.25159   0.194817
 C 0.8641 0.6252 0.89689   0.765032
 C 0.8415 0.7156 0.81884   -0.038024
 C 0.6597 0.7856 0.8232   -0.160583
 C 0.9919 0.8207 0.67386   0.192649
 C 0.0109 0.7345 0.74255   -0.163528
 C 0.6573 0.8702 0.75159   0.194817
 C 0.3641 0.1252 0.60311   0.765032
 C 0.3415 0.2156 0.68116   -0.038024
 C 0.1597 0.2856 0.6768   -0.160583
 C 0.4919 0.3207 0.82614   0.192649
 C 0.5109 0.2345 0.75745   -0.163528
 C 0.1573 0.3702 0.74841   0.194817
 C 0.1359 0.3748 0.10311   0.765032
 C 0.1585 0.2844 0.18116   -0.038024
 C 0.3403 0.2144 0.1768   -0.160583
 C 0.0081 0.1793 0.32614   0.192649
 C 0.9891 0.2655 0.25745   -0.163528
 C 0.3427 0.1298 0.24841   0.194817
 N 0.6816 0.6112 0.17727   -0.492368
 N 0.8184 0.8888 0.67727   -0.492368
 N 0.3184 0.3888 0.82273   -0.492368
 N 0.1816 0.1112 0.32273   -0.492368
 O 0.826 0.91302 0.44943   -0.807173
 O 0.4279 0.90417 0.40297   -0.74096
 O 0.674 0.58698 0.94943   -0.807173
 O 0.0721 0.59583 0.90297   -0.74096
 O 0.174 0.08698 0.55057   -0.807173
 O 0.5721 0.09583 0.59703   -0.740959
 O 0.326 0.41302 0.05057   -0.807173
 O 0.9279 0.40417 0.09703   -0.740959
