{'_ref': 'TBD', '_srcid': 'CAKYAQ_clean', 'submitters': [{'name': 'Dalar Nazarian Jeff Camp and David Sholl', 'email': 'dalar@gatech.edu jcamp6@gatech.edu'}], '_method': 'VASP DFT with PBE;DDEC'}
data_Zn3H32C52(NO6)2
_symmetry_space_group_name_H-M   'P 1'
_cell_length_a   14.53200000
_cell_length_b   18.18400000
_cell_length_c   25.03700000
_cell_angle_alpha   90.00000000
_cell_angle_beta   90.00000000
_cell_angle_gamma   90.00000000
_symmetry_Int_Tables_number   1
_chemical_formula_structural   Zn3H32C52(NO6)2
_chemical_formula_sum   'Zn12 H128 C208 N8 O48'
_cell_volume   6616.02444586
_cell_formula_units_Z   4
loop_
 _symmetry_equiv_pos_site_id
 _symmetry_equiv_pos_as_xyz
  1  'x, y, z'
loop_
 _atom_site_label
 _atom_site_fract_x
 _atom_site_fract_y
 _atom_site_fract_z
 _atom_site_charge
 Zn 0.53536 0.94315 0.64808   0.971572
 Zn 0.46464 0.55685 0.64808   0.971572
 Zn 0.03536 0.55685 0.14808   0.971572
 Zn 0.96464 0.94315 0.14808   0.971572
 Zn 0.5 0.75 0.64837   1.21111
 Zn 0.0 0.75 0.14837   1.21111
 Zn 0.96464 0.44315 0.85192   0.971572
 Zn 0.03536 0.05685 0.85192   0.971572
 Zn 0.46464 0.05685 0.35192   0.971572
 Zn 0.53536 0.44315 0.35192   0.971572
 Zn 0.0 0.25 0.85163   1.21111
 Zn 0.5 0.25 0.35163   1.21111
 H 0.4788 0.066 0.5746   0.084844
 H 0.4628 0.1915 0.5735   0.125206
 H 0.554 0.1984 0.7236   0.124358
 H 0.5695 0.0722 0.7211   0.092134
 H 0.6309 0.5215 0.5087   0.103801
 H 0.7154 0.5246 0.4306   0.11019
 H 0.731 0.7442 0.4397   0.106533
 H 0.6466 0.7423 0.5181   0.111085
 H 0.8218 0.5315 0.3759   0.089478
 H 0.7654 0.7379 0.3564   0.094724
 H 0.8394 0.9174 0.6716   0.094291
 H 0.9842 0.8701 0.6749   0.097769
 H 0.8865 0.6697 0.6511   0.106135
 H 0.7394 0.7176 0.6434   0.106101
 H 0.9009 0.5311 0.2974   0.080437
 H 0.8595 0.7388 0.2827   0.091747
 H 0.5212 0.434 0.5746   0.084844
 H 0.5372 0.3085 0.5735   0.125206
 H 0.446 0.3016 0.7236   0.124358
 H 0.4305 0.4278 0.7211   0.092134
 H 0.3691 0.9785 0.5087   0.103801
 H 0.2846 0.9754 0.4306   0.11019
 H 0.269 0.7558 0.4397   0.106533
 H 0.3534 0.7577 0.5181   0.111085
 H 0.1782 0.9685 0.3759   0.089478
 H 0.2346 0.7621 0.3564   0.094724
 H 0.1606 0.5826 0.6716   0.094291
 H 0.0158 0.6299 0.6749   0.09777
 H 0.1135 0.8303 0.6511   0.106135
 H 0.2606 0.7824 0.6434   0.106101
 H 0.0991 0.9689 0.2974   0.080437
 H 0.1405 0.7612 0.2827   0.091747
 H 0.9788 0.434 0.0746   0.084844
 H 0.9628 0.3085 0.0735   0.125206
 H 0.054 0.3016 0.2236   0.124358
 H 0.0695 0.4278 0.2211   0.092134
 H 0.1309 0.9785 0.0087   0.103801
 H 0.2154 0.9754 0.9306   0.11019
 H 0.231 0.7558 0.9397   0.106533
 H 0.1466 0.7577 0.0181   0.111085
 H 0.3218 0.9685 0.8759   0.089478
 H 0.2654 0.7621 0.8564   0.094724
 H 0.3394 0.5826 0.1716   0.094291
 H 0.4842 0.6299 0.1749   0.097769
 H 0.3865 0.8303 0.1511   0.106135
 H 0.2394 0.7824 0.1434   0.106101
 H 0.4009 0.9689 0.7974   0.080437
 H 0.3595 0.7612 0.7827   0.091747
 H 0.0212 0.066 0.0746   0.084844
 H 0.0372 0.1915 0.0735   0.125206
 H 0.946 0.1984 0.2236   0.124358
 H 0.9305 0.0722 0.2211   0.092134
 H 0.8691 0.5215 0.0087   0.103801
 H 0.7846 0.5246 0.9306   0.11019
 H 0.769 0.7442 0.9397   0.106533
 H 0.8534 0.7423 0.0181   0.111085
 H 0.6782 0.5315 0.8759   0.089478
 H 0.7346 0.7379 0.8564   0.094724
 H 0.6606 0.9174 0.1716   0.094291
 H 0.5158 0.8701 0.1749   0.09777
 H 0.6135 0.6697 0.1511   0.106135
 H 0.7606 0.7176 0.1434   0.106101
 H 0.5991 0.5311 0.7974   0.080437
 H 0.6405 0.7388 0.7827   0.091747
 H 0.0212 0.566 0.9254   0.084844
 H 0.0372 0.6915 0.9265   0.125206
 H 0.946 0.6984 0.7764   0.124358
 H 0.9305 0.5722 0.7789   0.092135
 H 0.8691 0.0215 0.9913   0.103801
 H 0.7846 0.0246 0.0694   0.11019
 H 0.769 0.2442 0.0603   0.106533
 H 0.8534 0.2423 0.9819   0.111085
 H 0.6782 0.0315 0.1241   0.089478
 H 0.7346 0.2379 0.1436   0.094724
 H 0.6606 0.4174 0.8284   0.094291
 H 0.5158 0.3701 0.8251   0.097769
 H 0.6135 0.1697 0.8489   0.106135
 H 0.7606 0.2176 0.8566   0.106101
 H 0.5991 0.0311 0.2026   0.080437
 H 0.6405 0.2388 0.2173   0.091747
 H 0.9788 0.934 0.9254   0.084844
 H 0.9628 0.8085 0.9265   0.125206
 H 0.054 0.8016 0.7764   0.124358
 H 0.0695 0.9278 0.7789   0.092135
 H 0.1309 0.4785 0.9913   0.103801
 H 0.2154 0.4754 0.0694   0.11019
 H 0.231 0.2558 0.0603   0.106533
 H 0.1466 0.2577 0.9819   0.111085
 H 0.3218 0.4685 0.1241   0.089478
 H 0.2654 0.2621 0.1436   0.094724
 H 0.3394 0.0826 0.8284   0.094291
 H 0.4842 0.1299 0.8251   0.09777
 H 0.3865 0.3303 0.8489   0.106136
 H 0.2394 0.2824 0.8566   0.106101
 H 0.4009 0.4689 0.2026   0.080437
 H 0.3595 0.2612 0.2173   0.091747
 H 0.5212 0.934 0.4254   0.084844
 H 0.5372 0.8085 0.4265   0.125206
 H 0.446 0.8016 0.2764   0.124358
 H 0.4305 0.9278 0.2789   0.092135
 H 0.3691 0.4785 0.4913   0.103801
 H 0.2846 0.4754 0.5694   0.11019
 H 0.269 0.2558 0.5603   0.106533
 H 0.3534 0.2577 0.4819   0.111085
 H 0.1782 0.4685 0.6241   0.089478
 H 0.2346 0.2621 0.6436   0.094724
 H 0.1606 0.0826 0.3284   0.094291
 H 0.0158 0.1299 0.3251   0.097769
 H 0.1135 0.3303 0.3489   0.106135
 H 0.2606 0.2824 0.3566   0.106101
 H 0.0991 0.4689 0.7026   0.080437
 H 0.1405 0.2612 0.7173   0.091747
 H 0.4788 0.566 0.4254   0.084844
 H 0.4628 0.6915 0.4265   0.125206
 H 0.554 0.6984 0.2764   0.124358
 H 0.5695 0.5722 0.2789   0.092135
 H 0.6309 0.0215 0.4913   0.103801
 H 0.7154 0.0246 0.5694   0.11019
 H 0.731 0.2442 0.5603   0.106533
 H 0.6466 0.2423 0.4819   0.111085
 H 0.8218 0.0315 0.6241   0.089478
 H 0.7654 0.2379 0.6436   0.094724
 H 0.8394 0.4174 0.3284   0.094291
 H 0.9842 0.3701 0.3251   0.09777
 H 0.8865 0.1697 0.3489   0.106136
 H 0.7394 0.2176 0.3566   0.106101
 H 0.9009 0.0311 0.7026   0.080437
 H 0.8595 0.2388 0.7173   0.091747
 C 0.4941 0.0929 0.6049   0.179174
 C 0.484 0.1683 0.6043   -0.194208
 C 0.5049 0.2095 0.6486   0.107481
 C 0.538 0.1726 0.6929   -0.192972
 C 0.5472 0.0966 0.6911   0.183056
 C 0.6268 0.6324 0.5201   -0.170272
 C 0.65 0.5663 0.4946   -0.041445
 C 0.7017 0.5683 0.4482   -0.133639
 C 0.7335 0.6348 0.4272   0.047347
 C 0.711 0.6995 0.4536   -0.145976
 C 0.6593 0.6986 0.5003   -0.037663
 C 0.788 0.6355 0.3771   0.055265
 C 0.8272 0.5754 0.3571   -0.128761
 C 0.7961 0.6951 0.3467   -0.149292
 C 0.6782 0.8534 0.6512   0.743528
 C 0.7738 0.8228 0.6557   -0.15857
 C 0.8483 0.8673 0.6661   -0.030715
 C 0.935 0.8387 0.6683   -0.143994
 C 0.952 0.7651 0.6611   0.042323
 C 0.8777 0.7203 0.6537   -0.142673
 C 0.7888 0.7489 0.6499   -0.024928
 C 0.9369 0.6324 0.2292   0.764676
 C 0.8876 0.6343 0.2806   -0.149727
 C 0.8758 0.5752 0.3094   -0.03072
 C 0.8498 0.6946 0.3004   -0.026363
 C 0.5675 0.6317 0.569   0.728833
 C 0.5059 0.4071 0.6049   0.179174
 C 0.516 0.3317 0.6043   -0.194208
 C 0.4951 0.2905 0.6486   0.107481
 C 0.462 0.3274 0.6929   -0.192972
 C 0.4528 0.4034 0.6911   0.183056
 C 0.3732 0.8676 0.5201   -0.170272
 C 0.35 0.9337 0.4946   -0.041445
 C 0.2983 0.9317 0.4482   -0.133639
 C 0.2665 0.8652 0.4272   0.047347
 C 0.289 0.8005 0.4536   -0.145976
 C 0.3407 0.8014 0.5003   -0.037663
 C 0.212 0.8645 0.3771   0.055265
 C 0.1728 0.9246 0.3571   -0.128762
 C 0.2039 0.8049 0.3467   -0.149293
 C 0.3218 0.6466 0.6512   0.743528
 C 0.2262 0.6772 0.6557   -0.15857
 C 0.1517 0.6327 0.6661   -0.030715
 C 0.065 0.6613 0.6683   -0.143994
 C 0.048 0.7349 0.6611   0.042323
 C 0.1223 0.7797 0.6537   -0.142673
 C 0.2112 0.7511 0.6499   -0.024927
 C 0.0631 0.8676 0.2292   0.764676
 C 0.1124 0.8657 0.2806   -0.149727
 C 0.1242 0.9248 0.3094   -0.03072
 C 0.1502 0.8054 0.3004   -0.026364
 C 0.4325 0.8683 0.569   0.728833
 C 0.9941 0.4071 0.1049   0.179174
 C 0.984 0.3317 0.1043   -0.194208
 C 0.0049 0.2905 0.1486   0.107481
 C 0.038 0.3274 0.1929   -0.192972
 C 0.0472 0.4034 0.1911   0.183056
 C 0.1268 0.8676 0.0201   -0.170272
 C 0.15 0.9337 0.9946   -0.041445
 C 0.2017 0.9317 0.9482   -0.133639
 C 0.2335 0.8652 0.9272   0.047347
 C 0.211 0.8005 0.9536   -0.145976
 C 0.1593 0.8014 0.000300000000003   -0.037663
 C 0.288 0.8645 0.8771   0.055265
 C 0.3272 0.9246 0.8571   -0.128761
 C 0.2961 0.8049 0.8467   -0.149292
 C 0.1782 0.6466 0.1512   0.743528
 C 0.2738 0.6772 0.1557   -0.15857
 C 0.3483 0.6327 0.1661   -0.030715
 C 0.435 0.6613 0.1683   -0.143994
 C 0.452 0.7349 0.1611   0.042323
 C 0.3777 0.7797 0.1537   -0.142673
 C 0.2888 0.7511 0.1499   -0.024928
 C 0.4369 0.8676 0.7292   0.764676
 C 0.3876 0.8657 0.7806   -0.149727
 C 0.3758 0.9248 0.8094   -0.03072
 C 0.3498 0.8054 0.8004   -0.026363
 C 0.0675 0.8683 0.069   0.728833
 C 0.0059 0.0929 0.1049   0.179174
 C 0.016 0.1683 0.1043   -0.194208
 C 0.9951 0.2095 0.1486   0.107481
 C 0.962 0.1726 0.1929   -0.192972
 C 0.9528 0.0966 0.1911   0.183056
 C 0.8732 0.6324 0.0201   -0.170272
 C 0.85 0.5663 0.9946   -0.041445
 C 0.7983 0.5683 0.9482   -0.133639
 C 0.7665 0.6348 0.9272   0.047347
 C 0.789 0.6995 0.9536   -0.145976
 C 0.8407 0.6986 0.000300000000003   -0.037663
 C 0.712 0.6355 0.8771   0.055265
 C 0.6728 0.5754 0.8571   -0.128762
 C 0.7039 0.6951 0.8467   -0.149293
 C 0.8218 0.8534 0.1512   0.743528
 C 0.7262 0.8228 0.1557   -0.15857
 C 0.6517 0.8673 0.1661   -0.030715
 C 0.565 0.8387 0.1683   -0.143994
 C 0.548 0.7651 0.1611   0.042323
 C 0.6223 0.7203 0.1537   -0.142673
 C 0.7112 0.7489 0.1499   -0.024928
 C 0.5631 0.6324 0.7292   0.764676
 C 0.6124 0.6343 0.7806   -0.149727
 C 0.6242 0.5752 0.8094   -0.03072
 C 0.6502 0.6946 0.8004   -0.026364
 C 0.9325 0.6317 0.069   0.728833
 C 0.0059 0.5929 0.8951   0.179174
 C 0.016 0.6683 0.8957   -0.194207
 C 0.9951 0.7095 0.8514   0.107481
 C 0.962 0.6726 0.8071   -0.192972
 C 0.9528 0.5966 0.8089   0.183056
 C 0.8732 0.1324 0.9799   -0.170272
 C 0.85 0.0663 0.0054   -0.041445
 C 0.7983 0.0683 0.0518   -0.133639
 C 0.7665 0.1348 0.0728   0.047347
 C 0.789 0.1995 0.0464   -0.145976
 C 0.8407 0.1986 0.9997   -0.037663
 C 0.712 0.1355 0.1229   0.055265
 C 0.6728 0.0754 0.1429   -0.128761
 C 0.7039 0.1951 0.1533   -0.149292
 C 0.8218 0.3534 0.8488   0.743528
 C 0.7262 0.3228 0.8443   -0.15857
 C 0.6517 0.3673 0.8339   -0.030715
 C 0.565 0.3387 0.8317   -0.143994
 C 0.548 0.2651 0.8389   0.042323
 C 0.6223 0.2203 0.8463   -0.142673
 C 0.7112 0.2489 0.8501   -0.024928
 C 0.5631 0.1324 0.2708   0.764676
 C 0.6124 0.1343 0.2194   -0.149727
 C 0.6242 0.0752 0.1906   -0.03072
 C 0.6502 0.1946 0.1996   -0.026363
 C 0.9325 0.1317 0.931   0.728833
 C 0.9941 0.9071 0.8951   0.179174
 C 0.984 0.8317 0.8957   -0.194207
 C 0.0049 0.7905 0.8514   0.107481
 C 0.038 0.8274 0.8071   -0.192972
 C 0.0472 0.9034 0.8089   0.183056
 C 0.1268 0.3676 0.9799   -0.170272
 C 0.15 0.4337 0.0054   -0.041445
 C 0.2017 0.4317 0.0518   -0.133639
 C 0.2335 0.3652 0.0728   0.047347
 C 0.211 0.3005 0.0464   -0.145976
 C 0.1593 0.3014 0.9997   -0.037663
 C 0.288 0.3645 0.1229   0.055265
 C 0.3272 0.4246 0.1429   -0.128761
 C 0.2961 0.3049 0.1533   -0.149293
 C 0.1782 0.1466 0.8488   0.743528
 C 0.2738 0.1772 0.8443   -0.15857
 C 0.3483 0.1327 0.8339   -0.030715
 C 0.435 0.1613 0.8317   -0.143994
 C 0.452 0.2349 0.8389   0.042323
 C 0.3777 0.2797 0.8463   -0.142673
 C 0.2888 0.2511 0.8501   -0.024927
 C 0.4369 0.3676 0.2708   0.764676
 C 0.3876 0.3657 0.2194   -0.149727
 C 0.3758 0.4248 0.1906   -0.03072
 C 0.3498 0.3054 0.1996   -0.026364
 C 0.0675 0.3683 0.931   0.728833
 C 0.5059 0.9071 0.3951   0.179174
 C 0.516 0.8317 0.3957   -0.194207
 C 0.4951 0.7905 0.3514   0.107481
 C 0.462 0.8274 0.3071   -0.192972
 C 0.4528 0.9034 0.3089   0.183056
 C 0.3732 0.3676 0.4799   -0.170272
 C 0.35 0.4337 0.5054   -0.041445
 C 0.2983 0.4317 0.5518   -0.133639
 C 0.2665 0.3652 0.5728   0.047347
 C 0.289 0.3005 0.5464   -0.145976
 C 0.3407 0.3014 0.4997   -0.037663
 C 0.212 0.3645 0.6229   0.055265
 C 0.1728 0.4246 0.6429   -0.128761
 C 0.2039 0.3049 0.6533   -0.149292
 C 0.3218 0.1466 0.3488   0.743528
 C 0.2262 0.1772 0.3443   -0.15857
 C 0.1517 0.1327 0.3339   -0.030715
 C 0.065 0.1613 0.3317   -0.143994
 C 0.048 0.2349 0.3389   0.042323
 C 0.1223 0.2797 0.3463   -0.142673
 C 0.2112 0.2511 0.3501   -0.024928
 C 0.0631 0.3676 0.7708   0.764676
 C 0.1124 0.3657 0.7194   -0.149727
 C 0.1242 0.4248 0.6906   -0.03072
 C 0.1502 0.3054 0.6996   -0.026363
 C 0.4325 0.3683 0.431   0.728833
 C 0.4941 0.5929 0.3951   0.179174
 C 0.484 0.6683 0.3957   -0.194207
 C 0.5049 0.7095 0.3514   0.107481
 C 0.538 0.6726 0.3071   -0.192972
 C 0.5472 0.5966 0.3089   0.183056
 C 0.6268 0.1324 0.4799   -0.170272
 C 0.65 0.0663 0.5054   -0.041445
 C 0.7017 0.0683 0.5518   -0.133639
 C 0.7335 0.1348 0.5728   0.047347
 C 0.711 0.1995 0.5464   -0.145976
 C 0.6593 0.1986 0.4997   -0.037663
 C 0.788 0.1355 0.6229   0.055265
 C 0.8272 0.0754 0.6429   -0.128761
 C 0.7961 0.1951 0.6533   -0.149293
 C 0.6782 0.3534 0.3488   0.743528
 C 0.7738 0.3228 0.3443   -0.15857
 C 0.8483 0.3673 0.3339   -0.030715
 C 0.935 0.3387 0.3317   -0.143994
 C 0.952 0.2651 0.3389   0.042323
 C 0.8777 0.2203 0.3463   -0.142673
 C 0.7888 0.2489 0.3501   -0.024927
 C 0.9369 0.1324 0.7708   0.764676
 C 0.8876 0.1343 0.7194   -0.149727
 C 0.8758 0.0752 0.6906   -0.03072
 C 0.8498 0.1946 0.6996   -0.026364
 C 0.5675 0.1317 0.431   0.728833
 N 0.5252 0.0572 0.64819   -0.343954
 N 0.4748 0.4428 0.64819   -0.343954
 N 0.0252 0.4428 0.14819   -0.343954
 N 0.9748 0.0572 0.14819   -0.343954
 N 0.9748 0.5572 0.85181   -0.343954
 N 0.0252 0.9428 0.85181   -0.343954
 N 0.4748 0.9428 0.35181   -0.343954
 N 0.5252 0.5572 0.35181   -0.343954
 O 0.6664 0.9206 0.6529   -0.645379
 O 0.97 0.574 0.21437   -0.650329
 O 0.5327 0.5722 0.58261   -0.63815
 O 0.556 0.6888 0.5922   -0.612128
 O 0.6152 0.8146 0.6453   -0.623134
 O 0.9446 0.6876 0.2042   -0.632653
 O 0.3336 0.5794 0.6529   -0.645379
 O 0.03 0.926 0.21437   -0.650329
 O 0.4673 0.9278 0.58261   -0.63815
 O 0.444 0.8112 0.5922   -0.612128
 O 0.3848 0.6854 0.6453   -0.623134
 O 0.0554 0.8124 0.2042   -0.632653
 O 0.1664 0.5794 0.1529   -0.645379
 O 0.47 0.926 0.71437   -0.650329
 O 0.0327 0.9278 0.08261   -0.63815
 O 0.056 0.8112 0.0922   -0.612128
 O 0.1152 0.6854 0.1453   -0.623134
 O 0.4446 0.8124 0.7042   -0.632653
 O 0.8336 0.9206 0.1529   -0.645379
 O 0.53 0.574 0.71437   -0.650329
 O 0.9673 0.5722 0.08261   -0.63815
 O 0.944 0.6888 0.0922   -0.612128
 O 0.8848 0.8146 0.1453   -0.623134
 O 0.5554 0.6876 0.7042   -0.632653
 O 0.8336 0.4206 0.8471   -0.645379
 O 0.53 0.074 0.28563   -0.650329
 O 0.9673 0.0722 0.91739   -0.63815
 O 0.944 0.1888 0.9078   -0.612128
 O 0.8848 0.3146 0.8547   -0.623134
 O 0.5554 0.1876 0.2958   -0.632653
 O 0.1664 0.0794 0.8471   -0.645379
 O 0.47 0.426 0.28563   -0.650329
 O 0.0327 0.4278 0.91739   -0.63815
 O 0.056 0.3112 0.9078   -0.612128
 O 0.1152 0.1854 0.8547   -0.623134
 O 0.4446 0.3124 0.2958   -0.632653
 O 0.3336 0.0794 0.3471   -0.645379
 O 0.03 0.426 0.78563   -0.650329
 O 0.4673 0.4278 0.41739   -0.63815
 O 0.444 0.3112 0.4078   -0.612128
 O 0.3848 0.1854 0.3547   -0.623134
 O 0.0554 0.3124 0.7958   -0.632653
 O 0.6664 0.4206 0.3471   -0.645379
 O 0.97 0.074 0.78563   -0.650329
 O 0.5327 0.0722 0.41739   -0.63815
 O 0.556 0.1888 0.4078   -0.612128
 O 0.6152 0.3146 0.3547   -0.623134
 O 0.9446 0.1876 0.7958   -0.632653
