{'_ref': 'TBD', '_srcid': 'CAKYAQ_clean', 'submitters': [{'name': 'Dalar Nazarian Jeff Camp and David Sholl', 'email': 'dalar@gatech.edu jcamp6@gatech.edu'}], '_method': 'VASP DFT with PBE;DDEC'}
data_Cd2H12C17N18
_symmetry_space_group_name_H-M   'P 1'
_cell_length_a   9.59900002
_cell_length_b   11.02500048
_cell_length_c   12.57100000
_cell_angle_alpha   86.32800023
_cell_angle_beta   81.70500166
_cell_angle_gamma   79.83399993
_symmetry_Int_Tables_number   1
_chemical_formula_structural   Cd2H12C17N18
_chemical_formula_sum   'Cd4 H24 C34 N36'
_cell_volume   1294.77356519
_cell_formula_units_Z   2
loop_
 _symmetry_equiv_pos_site_id
 _symmetry_equiv_pos_as_xyz
  1  'x, y, z'
loop_
 _atom_site_label
 _atom_site_fract_x
 _atom_site_fract_y
 _atom_site_fract_z
 _atom_site_charge
 Cd 0.82571 0.48714 0.97605   0.984879
 Cd 0.67544 0.64951 0.71479   0.90371
 Cd 0.17429 0.51286 0.02395   0.984878
 Cd 0.32456 0.35049 0.28521   0.90371
 H 0.9382 0.26 0.1488   0.070279
 H 0.9141 0.0603 0.2041   0.12067
 H 0.8157 0.9458 0.1004   0.094249
 H 0.7234 0.0367 0.9491   0.097847
 H 0.3765 0.4191 0.6864   0.134636
 H 0.2689 0.4171 0.5349   0.076972
 H 0.6252 0.2683 0.3744   0.071406
 H 0.7384 0.2512 0.5256   0.129735
 H 0.8686 0.0652 0.6966   0.155112
 H 0.8521 0.8676 0.651   0.084341
 H 0.4556 0.9092 0.7733   0.066178
 H 0.4529 0.1114 0.8164   0.153636
 H 0.0618 0.74 0.8512   0.070279
 H 0.0859 0.9397 0.7959   0.120672
 H 0.1843 0.0542 0.8996   0.094249
 H 0.2766 0.9633 0.0509   0.097847
 H 0.6235 0.5809 0.3136   0.134636
 H 0.7311 0.5829 0.4651   0.076972
 H 0.3748 0.7317 0.6256   0.071407
 H 0.2616 0.7488 0.4744   0.129736
 H 0.1314 0.9348 0.3034   0.155114
 H 0.1479 0.1324 0.349   0.084342
 H 0.5444 0.0908 0.2267   0.066179
 H 0.5471 0.8886 0.1836   0.153637
 C 0.8947 0.2147 0.1073   0.207299
 C 0.8816 0.0942 0.1407   -0.173811
 C 0.8216 0.0277 0.0808   0.039713
 C 0.7687 0.0811 0.99   -0.152001
 C 0.7832 0.1993 0.9604   0.162381
 C 0.7343 0.2713 0.8642   0.227581
 C 0.6405 0.3341 0.7199   0.293689
 C 0.5689 0.3348 0.6226   0.027316
 C 0.4291 0.385 0.6241   -0.148399
 C 0.3656 0.385 0.5322   0.193171
 C 0.5731 0.2961 0.4391   0.182164
 C 0.643 0.2879 0.529   -0.186856
 C 0.6623 0.108 0.7591   0.198808
 C 0.7826 0.0358 0.7117   -0.253536
 C 0.7724 0.9167 0.6866   0.192219
 C 0.5395 0.9418 0.7574   0.212107
 C 0.5357 0.0634 0.7839   -0.199049
 C 0.1053 0.7853 0.8927   0.207299
 C 0.1184 0.9058 0.8593   -0.173811
 C 0.1784 0.9723 0.9192   0.039713
 C 0.2313 0.9189 0.01   -0.152
 C 0.2168 0.8007 0.0396   0.162381
 C 0.2657 0.7287 0.1358   0.227581
 C 0.3595 0.6659 0.2801   0.293689
 C 0.4311 0.6652 0.3774   0.027316
 C 0.5709 0.615 0.3759   -0.1484
 C 0.6344 0.615 0.4678   0.193171
 C 0.4269 0.7039 0.5609   0.182165
 C 0.357 0.7121 0.471   -0.186857
 C 0.3377 0.892 0.2409   0.198808
 C 0.2174 0.9642 0.2883   -0.253536
 C 0.2276 0.0833 0.3134   0.19222
 C 0.4605 0.0582 0.2426   0.212109
 C 0.4643 0.9366 0.2161   -0.199049
 N 0.8476 0.2676 0.0184   -0.353866
 N 0.7358 0.3874 0.8499   -0.217702
 N 0.678 0.4285 0.7572   -0.242514
 N 0.672 0.2321 0.7842   -0.07493
 N 0.4362 0.3415 0.441   -0.346229
 N 0.6525 0.8712 0.712   -0.342736
 N 0.0592 0.4396 0.9003   -0.676946
 N 0.1022 0.358 0.8456   0.605733
 N 0.1428 0.2734 0.7914   -0.545536
 N 0.7588 0.6631 0.8812   -0.696563
 N 0.6921 0.7448 0.9357   0.570362
 N 0.6282 0.8222 0.9857   -0.438498
 N 0.8882 0.6199 0.6135   -0.662883
 N 0.9949 0.6115 0.6399   0.636331
 N 0.1075 0.608 0.6639   -0.598974
 N 0.5503 0.3329 0.19   -0.569172
 N 0.5875 0.418 0.1439   0.566561
 N 0.624 0.5064 0.099   -0.578894
 N 0.1524 0.7324 0.9816   -0.353866
 N 0.2642 0.6126 0.1501   -0.217701
 N 0.322 0.5715 0.2428   -0.242515
 N 0.328 0.7679 0.2158   -0.07493
 N 0.5638 0.6585 0.559   -0.346229
 N 0.3475 0.1288 0.288   -0.342736
 N 0.9408 0.5604 0.0997   -0.676946
 N 0.8978 0.642 0.1544   0.605733
 N 0.8572 0.7266 0.2086   -0.545535
 N 0.2412 0.3369 0.1188   -0.696563
 N 0.3079 0.2552 0.0643   0.570362
 N 0.3718 0.1778 0.0143   -0.438497
 N 0.1118 0.3801 0.3865   -0.662882
 N 0.0051 0.3885 0.3601   0.636331
 N 0.8925 0.392 0.3361   -0.598973
 N 0.4497 0.6671 0.81   -0.569171
 N 0.4125 0.582 0.8561   0.566561
 N 0.376 0.4936 0.901   -0.578893
