{'_ref': 'TBD', '_srcid': 'CAKYAQ_clean', 'submitters': [{'name': 'Dalar Nazarian Jeff Camp and David Sholl', 'email': 'dalar@gatech.edu jcamp6@gatech.edu'}], '_method': 'VASP DFT with PBE;DDEC'}
data_ZnH7C13NO4
_symmetry_space_group_name_H-M   'P 1'
_cell_length_a   8.20870015
_cell_length_b   14.99120000
_cell_length_c   21.97890000
_cell_angle_alpha   90.00000000
_cell_angle_beta   94.70199845
_cell_angle_gamma   90.00000000
_symmetry_Int_Tables_number   1
_chemical_formula_structural   ZnH7C13NO4
_chemical_formula_sum   'Zn8 H56 C104 N8 O32'
_cell_volume   2695.58277321
_cell_formula_units_Z   8
loop_
 _symmetry_equiv_pos_site_id
 _symmetry_equiv_pos_as_xyz
  1  'x, y, z'
loop_
 _atom_site_label
 _atom_site_fract_x
 _atom_site_fract_y
 _atom_site_fract_z
 _atom_site_charge
 Zn 0.32564 0.08091 0.13506   1.042308
 Zn 0.53362 0.23276 0.24283   0.921949
 Zn 0.17436 0.58091 0.36494   1.042308
 Zn 0.96638 0.73276 0.25717   0.921949
 Zn 0.67436 0.91909 0.86494   1.042308
 Zn 0.46638 0.76724 0.75717   0.921949
 Zn 0.82564 0.41909 0.63506   1.042308
 Zn 0.03362 0.26724 0.74283   0.921949
 H 0.3543 0.8766 0.2539   0.105079
 H 0.748 0.8813 0.4149   0.107387
 H 0.7047 0.006 0.3551   0.077812
 H 0.8756 0.584 0.4672   0.098581
 H 0.4644 0.6497 0.5423   0.070658
 H 0.4046 0.7523 0.4661   0.106668
 H 0.405 0.3828 0.149   0.081341
 H 0.3873 0.5367 0.1454   0.126968
 H 0.4963 0.6196 0.2279   0.105367
 H 0.6269 0.5479 0.3102   0.125981
 H 0.7848 0.4716 0.3766   0.118351
 H 0.9138 0.3842 0.4503   0.104516
 H 0.8936 0.2325 0.4421   0.125682
 H 0.7391 0.1704 0.3613   0.070797
 H 0.1457 0.3766 0.2461   0.105079
 H 0.752 0.3813 0.0851   0.107386
 H 0.7953 0.506 0.1449   0.077812
 H 0.6244 0.084 0.0328   0.098581
 H 0.0356 0.1497 0.9577   0.070658
 H 0.0954 0.2523 0.0339   0.106668
 H 0.095 0.8828 0.351   0.08134
 H 0.1127 0.0367 0.3546   0.126969
 H 0.0037 0.1196 0.2721   0.105367
 H 0.8731 0.0479 0.1898   0.125981
 H 0.7152 0.9716 0.1234   0.118351
 H 0.5862 0.8842 0.0497   0.104516
 H 0.6064 0.7325 0.0579   0.125683
 H 0.7609 0.6704 0.1387   0.070796
 H 0.6457 0.1234 0.7461   0.105079
 H 0.252 0.1187 0.5851   0.107386
 H 0.2953 0.994 0.6449   0.077812
 H 0.1244 0.416 0.5328   0.098581
 H 0.5356 0.3503 0.4577   0.070658
 H 0.5954 0.2477 0.5339   0.106668
 H 0.595 0.6172 0.851   0.081341
 H 0.6127 0.4633 0.8546   0.126968
 H 0.5037 0.3804 0.7721   0.105367
 H 0.3731 0.4521 0.6898   0.125981
 H 0.2152 0.5284 0.6234   0.118351
 H 0.0862 0.6158 0.5497   0.104515
 H 0.1064 0.7675 0.5579   0.125682
 H 0.2609 0.8296 0.6387   0.070796
 H 0.8543 0.6234 0.7539   0.105079
 H 0.248 0.6187 0.9149   0.107385
 H 0.2047 0.494 0.8551   0.077812
 H 0.3756 0.916 0.9672   0.098581
 H 0.9644 0.8503 0.0423   0.070658
 H 0.9046 0.7477 0.9661   0.106668
 H 0.905 0.1172 0.649   0.08134
 H 0.8873 0.9633 0.6454   0.126968
 H 0.9963 0.8804 0.7279   0.105367
 H 0.1269 0.9521 0.8102   0.125981
 H 0.2848 0.0284 0.8766   0.118351
 H 0.4138 0.1158 0.9503   0.104515
 H 0.3936 0.2675 0.9421   0.125682
 H 0.2391 0.3296 0.8613   0.070796
 C 0.497 0.0342 0.25715   0.703281
 C 0.526 0.9539 0.29765   -0.18026
 C 0.4313 0.8782 0.28738   0.014284
 C 0.4478 0.8044 0.32558   -0.195288
 C 0.5694 0.8047 0.37443   0.109346
 C 0.6654 0.8807 0.38328   -0.167518
 C 0.6421 0.9551 0.34668   -0.002798
 C 0.3285 0.7288 0.31457   0.695458
 C 0.603 0.7309 0.41945   0.09934
 C 0.7457 0.6802 0.42058   -0.197245
 C 0.8643 0.6884 0.37252   0.690231
 C 0.7806 0.6179 0.46689   -0.002448
 C 0.676 0.6057 0.5124   -0.148928
 C 0.5352 0.6569 0.51168   0.003097
 C 0.4995 0.7184 0.46595   -0.148647
 C 0.7159 0.5396 0.56292   0.647889
 C 0.4516 0.4163 0.1815   0.163123
 C 0.4392 0.5085 0.1793   -0.173587
 C 0.505 0.5577 0.2282   0.025857
 C 0.5826 0.5154 0.2768   -0.115864
 C 0.5954 0.4225 0.2762   0.190048
 C 0.6824 0.3713 0.3254   0.19515
 C 0.7756 0.4098 0.374   -0.124373
 C 0.8525 0.3584 0.4174   0.045247
 C 0.8399 0.269 0.4127   -0.173816
 C 0.7469 0.2322 0.3641   0.167365
 C 0.003 0.5342 0.24285   0.703281
 C 0.974 0.4539 0.20235   -0.18026
 C 0.0687 0.3782 0.21262   0.014284
 C 0.0522 0.3044 0.17442   -0.195288
 C 0.9306 0.3047 0.12557   0.109346
 C 0.8346 0.3807 0.11672   -0.167518
 C 0.8579 0.4551 0.15332   -0.002798
 C 0.1715 0.2288 0.18543   0.695458
 C 0.897 0.2309 0.08055   0.09934
 C 0.7543 0.1802 0.07942   -0.197245
 C 0.6357 0.1884 0.12748   0.690231
 C 0.7194 0.1179 0.03311   -0.002448
 C 0.824 0.1057 0.9876   -0.148928
 C 0.9648 0.1569 0.98832   0.003097
 C 0.000500000000002 0.2184 0.03405   -0.148647
 C 0.7841 0.0396 0.93708   0.647889
 C 0.0484 0.9163 0.3185   0.163123
 C 0.0608 0.0085 0.3207   -0.173588
 C 0.995 0.0577 0.2718   0.025857
 C 0.9174 0.0154 0.2232   -0.115864
 C 0.9046 0.9225 0.2238   0.190048
 C 0.8176 0.8713 0.1746   0.19515
 C 0.7244 0.9098 0.126   -0.124373
 C 0.6475 0.8584 0.0826   0.045247
 C 0.6601 0.769 0.0873   -0.173816
 C 0.7531 0.7322 0.1359   0.167365
 C 0.503 0.9658 0.74285   0.703281
 C 0.474 0.0461 0.70235   -0.18026
 C 0.5687 0.1218 0.71262   0.014284
 C 0.5522 0.1956 0.67442   -0.195288
 C 0.4306 0.1953 0.62557   0.109346
 C 0.3346 0.1193 0.61672   -0.167519
 C 0.3579 0.0449 0.65332   -0.002798
 C 0.6715 0.2712 0.68543   0.695458
 C 0.397 0.2691 0.58055   0.09934
 C 0.2543 0.3198 0.57942   -0.197245
 C 0.1357 0.3116 0.62748   0.690231
 C 0.2194 0.3821 0.53311   -0.002448
 C 0.324 0.3943 0.4876   -0.148927
 C 0.4648 0.3431 0.48832   0.003097
 C 0.5005 0.2816 0.53405   -0.148647
 C 0.2841 0.4604 0.43708   0.647889
 C 0.5484 0.5837 0.8185   0.163123
 C 0.5608 0.4915 0.8207   -0.173587
 C 0.495 0.4423 0.7718   0.025857
 C 0.4174 0.4846 0.7232   -0.115864
 C 0.4046 0.5775 0.7238   0.190048
 C 0.3176 0.6287 0.6746   0.19515
 C 0.2244 0.5902 0.626   -0.124373
 C 0.1475 0.6416 0.5826   0.045247
 C 0.1601 0.731 0.5873   -0.173815
 C 0.2531 0.7678 0.6359   0.167365
 C 0.997 0.4658 0.75715   0.703281
 C 0.026 0.5461 0.79765   -0.18026
 C 0.9313 0.6218 0.78738   0.014284
 C 0.9478 0.6956 0.82558   -0.195288
 C 0.0694 0.6953 0.87443   0.109346
 C 0.1654 0.6193 0.88328   -0.167519
 C 0.1421 0.5449 0.84668   -0.002798
 C 0.8285 0.7712 0.81457   0.695458
 C 0.103 0.7691 0.91945   0.09934
 C 0.2457 0.8198 0.92058   -0.197245
 C 0.3643 0.8116 0.87252   0.690231
 C 0.2806 0.8821 0.96689   -0.002448
 C 0.176 0.8943 0.0124   -0.148927
 C 0.0352 0.8431 0.01168   0.003097
 C 0.9995 0.7816 0.96595   -0.148646
 C 0.2159 0.9604 0.06292   0.647889
 C 0.9516 0.0837 0.6815   0.163123
 C 0.9392 0.9915 0.6793   -0.173588
 C 0.005 0.9423 0.7282   0.025857
 C 0.0826 0.9846 0.7768   -0.115864
 C 0.0954 0.0775 0.7762   0.190048
 C 0.1824 0.1287 0.8254   0.19515
 C 0.2756 0.0902 0.874   -0.124373
 C 0.3525 0.1416 0.9174   0.045247
 C 0.3399 0.231 0.9127   -0.173815
 C 0.2469 0.2678 0.8641   0.167366
 N 0.5282 0.3745 0.22897   -0.339075
 N 0.6679 0.282 0.32104   -0.330795
 N 0.9718 0.8745 0.27103   -0.339075
 N 0.8321 0.782 0.17896   -0.330795
 N 0.4718 0.6255 0.77103   -0.339075
 N 0.3321 0.718 0.67896   -0.330795
 N 0.0282 0.1255 0.72897   -0.339075
 N 0.1679 0.218 0.82104   -0.330795
 O 0.5374 0.10807 0.27925   -0.594618
 O 0.4341 0.01846 0.20407   -0.627065
 O 0.3501 0.66086 0.34715   -0.581397
 O 0.2147 0.73878 0.27325   -0.623183
 O 0.8081 0.70783 0.31916   -0.572125
 O 0.0136 0.67571 0.38796   -0.645854
 O 0.8318 0.48522 0.55737   -0.607044
 O 0.6397 0.5404 0.60909   -0.587233
 O 0.9626 0.60807 0.22075   -0.594618
 O 0.0659 0.51846 0.29593   -0.627065
 O 0.1499 0.16086 0.15285   -0.581397
 O 0.2853 0.23878 0.22675   -0.623183
 O 0.6919 0.20783 0.18084   -0.572125
 O 0.4864 0.17571 0.11204   -0.645854
 O 0.6682 0.98522 0.94263   -0.607044
 O 0.8603 0.0404 0.89091   -0.587233
 O 0.4626 0.89193 0.72075   -0.594618
 O 0.5659 0.98154 0.79593   -0.627065
 O 0.6499 0.33914 0.65285   -0.581397
 O 0.7853 0.26122 0.72675   -0.623183
 O 0.1919 0.29217 0.68084   -0.572125
 O 0.9864 0.32429 0.61204   -0.645854
 O 0.1682 0.51478 0.44263   -0.607044
 O 0.3603 0.4596 0.39091   -0.587233
 O 0.0374 0.39193 0.77925   -0.594618
 O 0.9341 0.48154 0.70407   -0.627065
 O 0.8501 0.83914 0.84715   -0.581397
 O 0.7147 0.76122 0.77325   -0.623183
 O 0.3081 0.79217 0.81916   -0.572125
 O 0.5136 0.82429 0.88796   -0.645854
 O 0.3318 0.01478 0.05737   -0.607044
 O 0.1397 0.9596 0.10909   -0.587233
