{'_ref': 'TBD', '_srcid': 'CAKYAQ_clean', 'submitters': [{'name': 'Dalar Nazarian Jeff Camp and David Sholl', 'email': 'dalar@gatech.edu jcamp6@gatech.edu'}], '_method': 'VASP DFT with PBE;DDEC'}
data_Er2CoH32C56(N2O5)4
_symmetry_space_group_name_H-M   'P 1'
_cell_length_a   10.08159984
_cell_length_b   10.78439977
_cell_length_c   13.73160000
_cell_angle_alpha   79.17399957
_cell_angle_beta   78.77100190
_cell_angle_gamma   86.35499848
_symmetry_Int_Tables_number   1
_chemical_formula_structural   Er2CoH32C56(N2O5)4
_chemical_formula_sum   'Er2 Co1 H32 C56 N8 O20'
_cell_volume   1437.74680472
_cell_formula_units_Z   1
loop_
 _symmetry_equiv_pos_site_id
 _symmetry_equiv_pos_as_xyz
  1  'x, y, z'
loop_
 _atom_site_label
 _atom_site_fract_x
 _atom_site_fract_y
 _atom_site_fract_z
 _atom_site_charge
 Er 0.18176 0.07776 0.20374   1.437419
 Er 0.81824 0.92224 0.79626   1.437417
 Co 0.5 0.5 0.0   0.798936
 H 0.1712 0.3293 0.3472   0.13122
 H 0.1543 0.6734 0.4238   0.120486
 H 0.2197 0.6406 0.1318   0.106512
 H 0.1416 0.5474 0.7594   0.128408
 H 0.1338 0.4302 0.9157   0.080989
 H 0.1442 0.1184 0.8112   0.074236
 H 0.1543 0.227 0.6509   0.122987
 H 0.8054 0.1473 0.4625   0.134867
 H 0.4104 0.158 0.4587   0.118563
 H 0.6763 0.0853 0.2165   0.108595
 H 0.4923 0.5217 0.6291   0.128846
 H 0.485 0.5932 0.7775   0.084504
 H 0.4646 0.2503 0.9297   0.097695
 H 0.4833 0.167 0.7849   0.138473
 H 0.1199 0.3537 0.5181   0.322849
 H 0.6169 0.154 0.6194   0.297318
 H 0.8288 0.6707 0.6528   0.13122
 H 0.8457 0.3266 0.5762   0.120485
 H 0.7803 0.3594 0.8682   0.106512
 H 0.8584 0.4526 0.2406   0.128408
 H 0.8662 0.5698 0.0843   0.080989
 H 0.8558 0.8816 0.1888   0.074236
 H 0.8457 0.773 0.3491   0.122987
 H 0.1946 0.8527 0.5375   0.134867
 H 0.5896 0.842 0.5413   0.118563
 H 0.3237 0.9147 0.7835   0.108595
 H 0.5077 0.4783 0.3709   0.128846
 H 0.515 0.4068 0.2225   0.084504
 H 0.5354 0.7497 0.0703   0.097695
 H 0.5167 0.833 0.2151   0.138473
 H 0.8801 0.6463 0.4819   0.322849
 H 0.3831 0.846 0.3806   0.297318
 C 0.201 0.4726 0.2277   -0.158618
 C 0.1777 0.4165 0.3291   -0.111444
 C 0.164 0.4909 0.4041   0.212555
 C 0.1655 0.6223 0.3751   -0.151133
 C 0.1833 0.6757 0.275   -0.111853
 C 0.2041 0.6028 0.1996   -0.022823
 C 0.1869 0.8163 0.2482   0.61656
 C 0.2318 0.3926 0.1474   0.733097
 C 0.1651 0.4831 0.583   0.49582
 C 0.1506 0.4 0.6858   -0.037325
 C 0.1432 0.4597 0.7682   -0.158508
 C 0.1385 0.3884 0.8617   0.178222
 C 0.1448 0.2061 0.8004   0.195141
 C 0.1505 0.2706 0.7037   -0.180705
 C 0.764 0.1129 0.331   -0.121637
 C 0.7351 0.1414 0.4289   -0.08051
 C 0.6057 0.1603 0.4743   0.198028
 C 0.4994 0.1479 0.4262   -0.114388
 C 0.5262 0.1204 0.3302   -0.132244
 C 0.6586 0.1032 0.2815   -0.026984
 C 0.9092 0.0981 0.283   0.619476
 C 0.4073 0.1084 0.2823   0.621706
 C 0.4942 0.2935 0.5902   0.512484
 C 0.4906 0.3364 0.69   0.002254
 C 0.4896 0.4645 0.6892   -0.115005
 C 0.4845 0.5067 0.7789   0.154795
 C 0.4742 0.3051 0.8679   0.176321
 C 0.4828 0.254 0.7816   -0.154185
 C 0.799 0.5274 0.7723   -0.158618
 C 0.8223 0.5835 0.6709   -0.111444
 C 0.836 0.5091 0.5959   0.212555
 C 0.8345 0.3777 0.6249   -0.151132
 C 0.8167 0.3243 0.725   -0.111852
 C 0.7959 0.3972 0.8004   -0.022822
 C 0.8131 0.1837 0.7518   0.61656
 C 0.7682 0.6074 0.8526   0.733096
 C 0.8349 0.5169 0.417   0.49582
 C 0.8494 0.6 0.3142   -0.037325
 C 0.8568 0.5403 0.2318   -0.158508
 C 0.8615 0.6116 0.1383   0.178222
 C 0.8552 0.7939 0.1996   0.195141
 C 0.8495 0.7294 0.2963   -0.180705
 C 0.236 0.8871 0.669   -0.121637
 C 0.2649 0.8586 0.5711   -0.08051
 C 0.3943 0.8397 0.5257   0.198028
 C 0.5006 0.8521 0.5738   -0.114388
 C 0.4738 0.8796 0.6698   -0.132244
 C 0.3414 0.8968 0.7185   -0.026983
 C 0.0908 0.9019 0.717   0.619476
 C 0.5927 0.8916 0.7177   0.621706
 C 0.5058 0.7065 0.4098   0.512484
 C 0.5094 0.6636 0.31   0.002254
 C 0.5104 0.5355 0.3108   -0.115004
 C 0.5155 0.4933 0.2211   0.154795
 C 0.5258 0.6949 0.1321   0.176321
 C 0.5172 0.746 0.2184   -0.154185
 N 0.1457 0.4306 0.5046   -0.385818
 N 0.14 0.2624 0.8809   -0.37474
 N 0.5787 0.1957 0.572   -0.394229
 N 0.4788 0.429 0.8677   -0.338445
 N 0.8543 0.5694 0.4954   -0.385818
 N 0.86 0.7376 0.1191   -0.37474
 N 0.4213 0.8043 0.428   -0.394229
 N 0.5212 0.571 0.1323   -0.338445
 O 0.3059 0.4344 0.0654   -0.568717
 O 0.1793 0.2853 0.1665   -0.63616
 O 0.1703 0.8729 0.1621   -0.594232
 O 0.2075 0.88 0.3102   -0.577802
 O 0.1926 0.593 0.5749   -0.447195
 O 0.9439 0.0985 0.1892   -0.553798
 O 0.9984 0.0841 0.3356   -0.537319
 O 0.4242 0.0921 0.191   -0.633509
 O 0.2905 0.1156 0.3314   -0.561015
 O 0.4248 0.3503 0.5332   -0.469557
 O 0.6941 0.5656 0.9346   -0.568717
 O 0.8207 0.7147 0.8335   -0.63616
 O 0.8297 0.1271 0.8379   -0.594232
 O 0.7925 0.12 0.6898   -0.577802
 O 0.8074 0.407 0.4251   -0.447195
 O 0.0561 0.9015 0.8108   -0.553798
 O 0.0016 0.9159 0.6644   -0.537319
 O 0.5758 0.9079 0.809   -0.633508
 O 0.7095 0.8844 0.6686   -0.561015
 O 0.5752 0.6497 0.4668   -0.469557
