{'_ref': 'TBD', '_srcid': 'CAKYAQ_clean', 'submitters': [{'name': 'Dalar Nazarian Jeff Camp and David Sholl', 'email': 'dalar@gatech.edu jcamp6@gatech.edu'}], '_method': 'VASP DFT with PBE;DDEC'}
data_CoH2(CO2)2
_symmetry_space_group_name_H-M   'P 1'
_cell_length_a   9.92920000
_cell_length_b   11.38339995
_cell_length_c   14.43240000
_cell_angle_alpha   91.25000221
_cell_angle_beta   90.00000000
_cell_angle_gamma   90.00000000
_symmetry_Int_Tables_number   1
_chemical_formula_structural   CoH2(CO2)2
_chemical_formula_sum   'Co12 H24 C24 O48'
_cell_volume   1630.8778994
_cell_formula_units_Z   12
loop_
 _symmetry_equiv_pos_site_id
 _symmetry_equiv_pos_as_xyz
  1  'x, y, z'
loop_
 _atom_site_label
 _atom_site_fract_x
 _atom_site_fract_y
 _atom_site_fract_z
 _atom_site_charge
 Co 0.92079 0.75477 0.63339   1.12516
 Co 0.61236 0.76069 0.68972   1.104805
 Co 0.42079 0.74523 0.86661   1.12516
 Co 0.11236 0.73931 0.81028   1.104805
 Co 0.07921 0.24523 0.36661   1.12516
 Co 0.38764 0.23931 0.31028   1.104805
 Co 0.57921 0.25477 0.13339   1.12516
 Co 0.88764 0.26069 0.18972   1.104805
 Co 0.0 0.5 0.5   1.121884
 Co 0.5 0.0 0.0   1.121884
 Co 0.0 0.0 0.5   1.148427
 Co 0.5 0.5 0.0   1.148427
 H 0.6184 0.5614 0.5375   0.015964
 H 0.2121 0.9667 0.7257   0.011915
 H 0.7556 0.8419 0.8745   0.009037
 H 0.961 0.5243 0.2326   0.023815
 H 0.7135 0.005 0.5206   0.017704
 H 0.1567 0.696 0.4267   0.014152
 H 0.1184 0.9386 0.9625   0.015964
 H 0.7121 0.5333 0.7743   0.011915
 H 0.2556 0.6581 0.6255   0.009037
 H 0.461 0.9757 0.2674   0.023805
 H 0.2135 0.495 0.9794   0.017703
 H 0.6567 0.804 0.0733   0.014145
 H 0.3816 0.4386 0.4625   0.01594
 H 0.7879 0.0333 0.2743   0.011905
 H 0.2444 0.1581 0.1255   0.009038
 H 0.039 0.4757 0.7674   0.023806
 H 0.2865 0.995 0.4794   0.017698
 H 0.8433 0.304 0.5733   0.014143
 H 0.8816 0.0614 0.0375   0.015939
 H 0.2879 0.4667 0.2257   0.011905
 H 0.7444 0.3419 0.3745   0.009038
 H 0.539 0.0243 0.7326   0.023796
 H 0.7865 0.505 0.0206   0.017696
 H 0.3433 0.196 0.9267   0.014136
 C 0.71315 0.57787 0.54659   0.673693
 C 0.14127 0.94519 0.68199   0.667504
 C 0.82832 0.81731 0.83439   0.671109
 C 0.98465 0.48263 0.28882   0.662337
 C 0.727 0.93782 0.55971   0.67617
 C 0.10027 0.74107 0.46598   0.692267
 C 0.21315 0.92213 0.95341   0.673692
 C 0.64127 0.55481 0.81801   0.667504
 C 0.32832 0.68269 0.66561   0.67111
 C 0.48465 0.01737 0.21118   0.662339
 C 0.227 0.56218 0.94029   0.676171
 C 0.60027 0.75893 0.03402   0.692268
 C 0.28685 0.42213 0.45341   0.673694
 C 0.85873 0.05481 0.31801   0.667503
 C 0.17168 0.18269 0.16561   0.671101
 C 0.01535 0.51737 0.71118   0.662335
 C 0.273 0.06218 0.44029   0.676171
 C 0.89973 0.25893 0.53402   0.692268
 C 0.78685 0.07787 0.04659   0.673693
 C 0.35873 0.44519 0.18199   0.667503
 C 0.67168 0.31731 0.33439   0.671102
 C 0.51535 0.98263 0.78882   0.662337
 C 0.773 0.43782 0.05971   0.676172
 C 0.39973 0.24107 0.96598   0.692269
 O 0.74361 0.65726 0.60745   -0.682615
 O 0.79361 0.52141 0.49767   -0.576321
 O 0.08101 0.84815 0.69652   -0.67506
 O 0.12041 0.01103 0.61665   -0.575607
 O 0.93986 0.80293 0.87131   -0.577318
 O 0.80146 0.80416 0.74808   -0.655967
 O 0.99363 0.37098 0.28183   -0.669688
 O 0.00174 0.54271 0.35996   -0.581044
 O 0.62675 0.89506 0.5979   -0.575466
 O 0.84835 0.90135 0.5657   -0.660191
 O 0.10352 0.84909 0.45843   -0.59216
 O 0.02564 0.68478 0.52269   -0.679308
 O 0.24361 0.84274 0.89255   -0.682615
 O 0.29361 0.97859 0.00233   -0.576321
 O 0.58101 0.65185 0.80348   -0.67506
 O 0.62041 0.48897 0.88335   -0.575607
 O 0.43986 0.69707 0.62869   -0.577319
 O 0.30146 0.69584 0.75192   -0.655967
 O 0.49363 0.12902 0.21817   -0.669689
 O 0.50174 0.95729 0.14004   -0.581045
 O 0.12675 0.60494 0.9021   -0.575468
 O 0.34835 0.59865 0.9343   -0.660192
 O 0.60352 0.65091 0.04157   -0.59216
 O 0.52564 0.81522 0.97731   -0.679309
 O 0.25639 0.34274 0.39255   -0.682616
 O 0.20639 0.47859 0.50233   -0.576322
 O 0.91899 0.15185 0.30348   -0.67506
 O 0.87959 0.98897 0.38335   -0.575606
 O 0.06014 0.19707 0.12869   -0.577317
 O 0.19854 0.19584 0.25192   -0.655966
 O 0.00637 0.62902 0.71817   -0.669687
 O 0.99826 0.45729 0.64004   -0.581044
 O 0.37325 0.10494 0.4021   -0.575467
 O 0.15165 0.09865 0.4343   -0.660191
 O 0.89648 0.15091 0.54157   -0.59216
 O 0.97436 0.31522 0.47731   -0.679308
 O 0.75639 0.15726 0.10745   -0.682616
 O 0.70639 0.02141 0.99767   -0.576322
 O 0.41899 0.34815 0.19652   -0.67506
 O 0.37959 0.51103 0.11665   -0.575606
 O 0.56014 0.30293 0.37131   -0.577318
 O 0.69854 0.30416 0.24808   -0.655966
 O 0.50637 0.87098 0.78183   -0.669688
 O 0.49826 0.04271 0.85996   -0.581044
 O 0.87325 0.39506 0.0979   -0.575469
 O 0.65165 0.40135 0.0657   -0.660192
 O 0.39648 0.34909 0.95843   -0.59216
 O 0.47436 0.18478 0.02269   -0.679309
