{'_ref': 'TBD', '_srcid': 'CAKYAQ_clean', 'submitters': [{'name': 'Dalar Nazarian Jeff Camp and David Sholl', 'email': 'dalar@gatech.edu jcamp6@gatech.edu'}], '_method': 'VASP DFT with PBE;DDEC'}
data_CdH16(C4O)8
_symmetry_space_group_name_H-M   'P 1'
_cell_length_a   16.78240033
_cell_length_b   17.13130031
_cell_length_c   17.13130000
_cell_angle_alpha   76.11810053
_cell_angle_beta   60.67139872
_cell_angle_gamma   60.67140093
_symmetry_Int_Tables_number   1
_chemical_formula_structural   CdH16(C4O)8
_chemical_formula_sum   'Cd4 H64 C128 O32'
_cell_volume   3743.6327928
_cell_formula_units_Z   4
loop_
 _symmetry_equiv_pos_site_id
 _symmetry_equiv_pos_as_xyz
  1  'x, y, z'
loop_
 _atom_site_label
 _atom_site_fract_x
 _atom_site_fract_y
 _atom_site_fract_z
 _atom_site_charge
 Cd 0.625 0.25 0.25   1.064116
 Cd 0.375 0.75 0.75   1.064117
 Cd 0.875 0.75 0.75   1.064116
 Cd 0.125 0.25 0.25   1.064115
 H 0.6381 0.9949 0.2737   0.119376
 H 0.6714 0.8628 0.2292   0.090745
 H 0.6263 0.7595 0.3317   0.101857
 H 0.5342 0.7916 0.48   0.11497
 H 0.4067 0.5051 0.2263   0.118722
 H 0.2634 0.6372 0.2708   0.091409
 H 0.2175 0.7405 0.1683   0.101141
 H 0.3058 0.7084 0.02   0.11462
 H 0.4118 0.7263 0.4949   0.118588
 H 0.4006 0.7708 0.3628   0.090247
 H 0.458 0.6683 0.2595   0.101162
 H 0.5142 0.52 0.2916   0.114704
 H 0.133 0.7737 0.0051   0.11964
 H 0.0342 0.7292 0.1372   0.091921
 H 0.8858 0.8317 0.2405   0.101371
 H 0.8258 0.98 0.2084   0.113982
 H 0.3619 0.0051 0.7263   0.119376
 H 0.3286 0.1372 0.7708   0.090745
 H 0.3737 0.2405 0.6683   0.101858
 H 0.4658 0.2084 0.52   0.11497
 H 0.5933 0.4949 0.7737   0.118722
 H 0.7366 0.3628 0.7292   0.091409
 H 0.7825 0.2595 0.8317   0.101141
 H 0.6942 0.2916 0.98   0.11462
 H 0.5882 0.2737 0.5051   0.118589
 H 0.5994 0.2292 0.6372   0.090247
 H 0.542 0.3317 0.7405   0.101162
 H 0.4858 0.48 0.7084   0.114704
 H 0.867 0.2263 0.9949   0.11964
 H 0.9658 0.2708 0.8628   0.091921
 H 0.1142 0.1683 0.7595   0.101371
 H 0.1742 0.02 0.7916   0.113982
 H 0.0933 0.7737 0.4949   0.118721
 H 0.2366 0.7292 0.3628   0.091409
 H 0.2825 0.8317 0.2595   0.101141
 H 0.1942 0.98 0.2916   0.114619
 H 0.8619 0.7263 0.0051   0.119376
 H 0.8286 0.7708 0.1372   0.090745
 H 0.8737 0.6683 0.2405   0.101857
 H 0.9658 0.52 0.2084   0.11497
 H 0.367 0.9949 0.2263   0.11964
 H 0.4658 0.8628 0.2708   0.091921
 H 0.6142 0.7595 0.1683   0.101371
 H 0.6742 0.7916 0.02   0.113982
 H 0.0882 0.5051 0.2737   0.118588
 H 0.0994 0.6372 0.2292   0.090247
 H 0.042 0.7405 0.3317   0.101161
 H 0.9858 0.7084 0.48   0.114704
 H 0.9067 0.2263 0.5051   0.118721
 H 0.7634 0.2708 0.6372   0.091409
 H 0.7175 0.1683 0.7405   0.101141
 H 0.8058 0.02 0.7084   0.114619
 H 0.1381 0.2737 0.9949   0.119376
 H 0.1714 0.2292 0.8628   0.090745
 H 0.1263 0.3317 0.7595   0.101857
 H 0.0342 0.48 0.7916   0.11497
 H 0.633 0.0051 0.7737   0.11964
 H 0.5342 0.1372 0.7292   0.091921
 H 0.3858 0.2405 0.8317   0.101371
 H 0.3258 0.2084 0.98   0.113982
 H 0.9118 0.4949 0.7263   0.118588
 H 0.9006 0.3628 0.7708   0.090247
 H 0.958 0.2595 0.6683   0.101161
 H 0.0142 0.2916 0.52   0.114704
 C 0.56845 0.12642 0.37028   0.577854
 C 0.53212 0.06151 0.43825   -0.020305
 C 0.55782 0.98036 0.4082   0.025688
 C 0.61514 0.95613 0.31619   -0.06519
 C 0.6366 0.8763 0.2899   -0.073106
 C 0.60775 0.81445 0.35165   -0.081689
 C 0.55366 0.83329 0.43959   -0.063166
 C 0.47399 0.08339 0.52903   0.027003
 C 0.56515 0.37358 0.12972   0.579566
 C 0.53188 0.43849 0.06175   -0.021009
 C 0.44638 0.51964 0.0918   0.025051
 C 0.38746 0.54387 0.18381   -0.064305
 C 0.3028 0.6237 0.2101   -0.073562
 C 0.27385 0.68555 0.14835   -0.081824
 C 0.32654 0.66671 0.06041   -0.063624
 C 0.58641 0.41661 0.97097   0.029187
 C 0.43873 0.62972 0.62642   0.582699
 C 0.47037 0.56175 0.56151   -0.021105
 C 0.46602 0.5918 0.48036   0.025496
 C 0.43133 0.68381 0.45613   -0.066038
 C 0.4265 0.7101 0.3763   -0.07015
 C 0.4594 0.64835 0.31445   -0.082907
 C 0.49325 0.56041 0.33329   -0.061999
 C 0.50302 0.47097 0.58339   0.027079
 C 0.19487 0.87028 0.87358   0.58159
 C 0.09363 0.93825 0.93849   -0.020902
 C 0.03818 0.9082 0.01964   0.025336
 C 0.07127 0.81619 0.04387   -0.065139
 C 0.0129 0.7899 0.1237   -0.074251
 C 0.9222 0.85165 0.18555   -0.081429
 C 0.88695 0.93959 0.16671   -0.062408
 C 0.05738 0.02903 0.91661   0.027426
 C 0.43155 0.87358 0.62972   0.577854
 C 0.46788 0.93849 0.56175   -0.020305
 C 0.44218 0.01964 0.5918   0.025688
 C 0.38486 0.04387 0.68381   -0.065191
 C 0.3634 0.1237 0.7101   -0.073106
 C 0.39225 0.18555 0.64835   -0.081689
 C 0.44634 0.16671 0.56041   -0.063166
 C 0.52601 0.91661 0.47097   0.027003
 C 0.43485 0.62642 0.87028   0.579566
 C 0.46812 0.56151 0.93825   -0.021009
 C 0.55362 0.48036 0.9082   0.025051
 C 0.61254 0.45613 0.81619   -0.064305
 C 0.6972 0.3763 0.7899   -0.073562
 C 0.72615 0.31445 0.85165   -0.081825
 C 0.67346 0.33329 0.93959   -0.063623
 C 0.41359 0.58339 0.02903   0.029188
 C 0.56127 0.37028 0.37358   0.582698
 C 0.52963 0.43825 0.43849   -0.021106
 C 0.53398 0.4082 0.51964   0.025496
 C 0.56867 0.31619 0.54387   -0.066038
 C 0.5735 0.2899 0.6237   -0.07015
 C 0.5406 0.35165 0.68555   -0.082907
 C 0.50675 0.43959 0.66671   -0.061999
 C 0.49698 0.52903 0.41661   0.02708
 C 0.80513 0.12972 0.12642   0.58159
 C 0.90637 0.06175 0.06151   -0.020902
 C 0.96182 0.0918 0.98036   0.025336
 C 0.92873 0.18381 0.95613   -0.065139
 C 0.9871 0.2101 0.8763   -0.074251
 C 0.0778 0.14835 0.81445   -0.081429
 C 0.11305 0.06041 0.83329   -0.062407
 C 0.94262 0.97097 0.08339   0.027426
 C 0.93485 0.87028 0.62642   0.579566
 C 0.96812 0.93825 0.56151   -0.021007
 C 0.05362 0.9082 0.48036   0.02505
 C 0.11254 0.81619 0.45613   -0.064302
 C 0.1972 0.7899 0.3763   -0.073562
 C 0.22615 0.85165 0.31445   -0.081824
 C 0.17346 0.93959 0.33329   -0.063623
 C 0.91359 0.02903 0.58339   0.029186
 C 0.93155 0.62972 0.87358   0.577838
 C 0.96788 0.56175 0.93849   -0.020303
 C 0.94218 0.5918 0.01964   0.025687
 C 0.88486 0.68381 0.04387   -0.065188
 C 0.8634 0.7101 0.1237   -0.073106
 C 0.89225 0.64835 0.18555   -0.081689
 C 0.94634 0.56041 0.16671   -0.063166
 C 0.02601 0.47097 0.91661   0.027003
 C 0.30513 0.12642 0.12972   0.58159
 C 0.40637 0.06151 0.06175   -0.020903
 C 0.46182 0.98036 0.0918   0.025336
 C 0.42873 0.95613 0.18381   -0.065136
 C 0.4871 0.8763 0.2101   -0.074252
 C 0.5778 0.81445 0.14835   -0.08143
 C 0.61305 0.83329 0.06041   -0.062406
 C 0.44262 0.08339 0.97097   0.027426
 C 0.06127 0.37358 0.37028   0.582698
 C 0.02963 0.43849 0.43825   -0.021105
 C 0.03398 0.51964 0.4082   0.025496
 C 0.06867 0.54387 0.31619   -0.066036
 C 0.0735 0.6237 0.2899   -0.07015
 C 0.0406 0.68555 0.35165   -0.082907
 C 0.00675 0.66671 0.43959   -0.061999
 C 0.99698 0.41661 0.52903   0.027079
 C 0.06515 0.12972 0.37358   0.579566
 C 0.03188 0.06175 0.43849   -0.021007
 C 0.94638 0.0918 0.51964   0.02505
 C 0.88746 0.18381 0.54387   -0.064302
 C 0.8028 0.2101 0.6237   -0.073562
 C 0.77385 0.14835 0.68555   -0.081825
 C 0.82654 0.06041 0.66671   -0.063622
 C 0.08641 0.97097 0.41661   0.029187
 C 0.06845 0.37028 0.12642   0.577838
 C 0.03212 0.43825 0.06151   -0.020303
 C 0.05782 0.4082 0.98036   0.025687
 C 0.11514 0.31619 0.95613   -0.065188
 C 0.1366 0.2899 0.8763   -0.073106
 C 0.10775 0.35165 0.81445   -0.081689
 C 0.05366 0.43959 0.83329   -0.063165
 C 0.97399 0.52903 0.08339   0.027003
 C 0.69487 0.87358 0.87028   0.58159
 C 0.59363 0.93849 0.93825   -0.020904
 C 0.53818 0.01964 0.9082   0.025335
 C 0.57127 0.04387 0.81619   -0.065136
 C 0.5129 0.1237 0.7899   -0.074251
 C 0.4222 0.18555 0.85165   -0.08143
 C 0.38695 0.16671 0.93959   -0.062405
 C 0.55738 0.91661 0.02903   0.027426
 C 0.93873 0.62642 0.62972   0.582698
 C 0.97037 0.56151 0.56175   -0.021105
 C 0.96602 0.48036 0.5918   0.025496
 C 0.93133 0.45613 0.68381   -0.066036
 C 0.9265 0.3763 0.7101   -0.07015
 C 0.9594 0.31445 0.64835   -0.082907
 C 0.99325 0.33329 0.56041   -0.061998
 C 0.00302 0.58339 0.47097   0.02708
 O 0.64398 0.13017 0.36117   -0.529506
 O 0.51822 0.17526 0.3276   -0.490548
 O 0.63532 0.36983 0.13883   -0.530792
 O 0.52108 0.32474 0.1724   -0.490641
 O 0.50515 0.63883 0.63017   -0.53092
 O 0.34582 0.6724 0.67526   -0.493036
 O 0.27415 0.86117 0.86983   -0.530642
 O 0.19348 0.8276 0.82474   -0.492367
 O 0.35602 0.86983 0.63883   -0.529506
 O 0.48178 0.82474 0.6724   -0.490548
 O 0.36468 0.63017 0.86117   -0.530792
 O 0.47892 0.67526 0.8276   -0.490641
 O 0.49485 0.36117 0.36983   -0.53092
 O 0.65418 0.3276 0.32474   -0.493036
 O 0.72585 0.13883 0.13017   -0.530641
 O 0.80652 0.1724 0.17526   -0.492366
 O 0.86468 0.86117 0.63017   -0.530792
 O 0.97892 0.8276 0.67526   -0.490639
 O 0.85602 0.63883 0.86983   -0.529494
 O 0.98178 0.6724 0.82474   -0.49054
 O 0.22585 0.13017 0.13883   -0.530642
 O 0.30652 0.17526 0.1724   -0.492364
 O 0.99485 0.36983 0.36117   -0.53092
 O 0.15418 0.32474 0.3276   -0.49303
 O 0.13532 0.13883 0.36983   -0.530791
 O 0.02108 0.1724 0.32474   -0.490639
 O 0.14398 0.36117 0.13017   -0.529493
 O 0.01822 0.3276 0.17526   -0.490539
 O 0.77415 0.86983 0.86117   -0.530641
 O 0.69348 0.82474 0.8276   -0.492365
 O 0.00515 0.63017 0.63883   -0.53092
 O 0.84582 0.67526 0.6724   -0.493029
