{'_ref': 'TBD', '_srcid': 'CAKYAQ_clean', 'submitters': [{'name': 'Dalar Nazarian Jeff Camp and David Sholl', 'email': 'dalar@gatech.edu jcamp6@gatech.edu'}], '_method': 'VASP DFT with PBE;DDEC'}
data_Zn3H24C48O13
_symmetry_space_group_name_H-M   'P 1'
_cell_length_a   15.57800000
_cell_length_b   15.57800023
_cell_length_c   16.52100000
_cell_angle_alpha   90.00000000
_cell_angle_beta   90.00000000
_cell_angle_gamma   119.99999952
_symmetry_Int_Tables_number   1
_chemical_formula_structural   Zn3H24C48O13
_chemical_formula_sum   'Zn6 H48 C96 O26'
_cell_volume   3472.08517337
_cell_formula_units_Z   2
loop_
 _symmetry_equiv_pos_site_id
 _symmetry_equiv_pos_as_xyz
  1  'x, y, z'
loop_
 _atom_site_label
 _atom_site_fract_x
 _atom_site_fract_y
 _atom_site_fract_z
 _atom_site_charge
 Zn 0.25908 0.51816 0.75   1.18111
 Zn 0.25908 0.74092 0.75   1.181165
 Zn 0.48184 0.74092 0.75   1.181165
 Zn 0.74092 0.48184 0.25   1.18111
 Zn 0.74092 0.25908 0.25   1.181165
 Zn 0.51816 0.25908 0.25   1.181165
 H 0.692 0.4539 0.478   0.109536
 H 0.7664 0.4816 0.6024   0.0952
 H 0.7106 0.5411 0.7115   0.102629
 H 0.5776 0.5643 0.695   0.111499
 H 0.7619 0.308 0.478   0.109536
 H 0.7152 0.2336 0.6024   0.095201
 H 0.8305 0.2894 0.7115   0.10263
 H 0.9867 0.4224 0.695   0.111499
 H 0.5461 0.2381 0.478   0.109535
 H 0.5184 0.2848 0.6024   0.0952
 H 0.4589 0.1695 0.7115   0.102629
 H 0.4357 0.0133 0.695   0.111498
 H 0.7619 0.4539 0.022   0.109536
 H 0.7152 0.4816 0.8976   0.0952
 H 0.8305 0.5411 0.7885   0.102631
 H 0.9867 0.5643 0.805   0.111499
 H 0.5461 0.308 0.022   0.109536
 H 0.5184 0.2336 0.8976   0.0952
 H 0.4589 0.2894 0.7885   0.102631
 H 0.4357 0.4224 0.805   0.111499
 H 0.692 0.2381 0.022   0.109535
 H 0.7664 0.2848 0.8976   0.0952
 H 0.7106 0.1695 0.7885   0.102631
 H 0.5776 0.0133 0.805   0.111498
 H 0.308 0.5461 0.522   0.109536
 H 0.2336 0.5184 0.3976   0.0952
 H 0.2894 0.4589 0.2885   0.102629
 H 0.4224 0.4357 0.305   0.111499
 H 0.2381 0.692 0.522   0.109536
 H 0.2848 0.7664 0.3976   0.095201
 H 0.1695 0.7106 0.2885   0.10263
 H 0.0133 0.5776 0.305   0.111499
 H 0.4539 0.7619 0.522   0.109535
 H 0.4816 0.7152 0.3976   0.0952
 H 0.5411 0.8305 0.2885   0.102629
 H 0.5643 0.9867 0.305   0.111498
 H 0.2381 0.5461 0.978   0.109536
 H 0.2848 0.5184 0.1024   0.0952
 H 0.1695 0.4589 0.2115   0.102631
 H 0.0133 0.4357 0.195   0.111499
 H 0.4539 0.692 0.978   0.109536
 H 0.4816 0.7664 0.1024   0.0952
 H 0.5411 0.7106 0.2115   0.102631
 H 0.5643 0.5776 0.195   0.111499
 H 0.308 0.7619 0.978   0.109535
 H 0.2336 0.7152 0.1024   0.0952
 H 0.2894 0.8305 0.2115   0.102631
 H 0.4224 0.9867 0.195   0.111498
 C 0.4335 0.5727 0.63462   0.711139
 C 0.4669 0.5348 0.56469   -0.107806
 C 0.5491 0.5217 0.57547   0.043247
 C 0.5824 0.4859 0.50944   0.041573
 C 0.667 0.4745 0.52183   -0.08702
 C 0.712 0.4923 0.5948   -0.078538
 C 0.6779 0.5274 0.6607   -0.081531
 C 0.5995 0.5412 0.6507   -0.101789
 C 0.1392 0.5665 0.63462   0.711137
 C 0.0679 0.5331 0.56469   -0.107805
 C 0.9726 0.4509 0.57547   0.043246
 C 0.9035 0.4176 0.50944   0.041572
 C 0.8075 0.333 0.52183   -0.08702
 C 0.7803 0.288 0.5948   -0.078538
 C 0.8495 0.3221 0.6607   -0.081531
 C 0.9417 0.4005 0.6507   -0.101788
 C 0.4273 0.8608 0.63462   0.71114
 C 0.4652 0.9321 0.56469   -0.107801
 C 0.4783 0.0274 0.57547   0.043244
 C 0.5141 0.0965 0.50944   0.041571
 C 0.5255 0.1925 0.52183   -0.087019
 C 0.5077 0.2197 0.5948   -0.078537
 C 0.4726 0.1505 0.6607   -0.081534
 C 0.4588 0.0583 0.6507   -0.101785
 C 0.1392 0.5727 0.86538   0.711139
 C 0.0679 0.5348 0.93531   -0.107806
 C 0.9726 0.5217 0.92453   0.043247
 C 0.9035 0.4859 0.99056   0.041573
 C 0.8075 0.4745 0.97817   -0.08702
 C 0.7803 0.4923 0.9052   -0.078537
 C 0.8495 0.5274 0.8393   -0.081532
 C 0.9417 0.5412 0.8493   -0.101788
 C 0.4273 0.5665 0.86538   0.711138
 C 0.4652 0.5331 0.93531   -0.107804
 C 0.4783 0.4509 0.92453   0.043246
 C 0.5141 0.4176 0.99056   0.041572
 C 0.5255 0.333 0.97817   -0.08702
 C 0.5077 0.288 0.9052   -0.078537
 C 0.4726 0.3221 0.8393   -0.081532
 C 0.4588 0.4005 0.8493   -0.101787
 C 0.4335 0.8608 0.86538   0.71114
 C 0.4669 0.9321 0.93531   -0.107801
 C 0.5491 0.0274 0.92453   0.043244
 C 0.5824 0.0965 0.99056   0.041571
 C 0.667 0.1925 0.97817   -0.087019
 C 0.712 0.2197 0.9052   -0.078537
 C 0.6779 0.1505 0.8393   -0.081535
 C 0.5995 0.0583 0.8493   -0.101785
 C 0.5665 0.4273 0.36538   0.711139
 C 0.5331 0.4652 0.43531   -0.107805
 C 0.4509 0.4783 0.42453   0.043247
 C 0.4176 0.5141 0.49056   0.041574
 C 0.333 0.5255 0.47817   -0.08702
 C 0.288 0.5077 0.4052   -0.078537
 C 0.3221 0.4726 0.3393   -0.081531
 C 0.4005 0.4588 0.3493   -0.101788
 C 0.8608 0.4335 0.36538   0.711137
 C 0.9321 0.4669 0.43531   -0.107803
 C 0.0274 0.5491 0.42453   0.043246
 C 0.0965 0.5824 0.49056   0.041574
 C 0.1925 0.667 0.47817   -0.08702
 C 0.2197 0.712 0.4052   -0.078537
 C 0.1505 0.6779 0.3393   -0.081531
 C 0.0583 0.5995 0.3493   -0.101788
 C 0.5727 0.1392 0.36538   0.711139
 C 0.5348 0.0679 0.43531   -0.107799
 C 0.5217 0.9726 0.42453   0.043244
 C 0.4859 0.9035 0.49056   0.041572
 C 0.4745 0.8075 0.47817   -0.087019
 C 0.4923 0.7803 0.4052   -0.078536
 C 0.5274 0.8495 0.3393   -0.081534
 C 0.5412 0.9417 0.3493   -0.101785
 C 0.8608 0.4273 0.13462   0.711139
 C 0.9321 0.4652 0.06469   -0.107805
 C 0.0274 0.4783 0.07547   0.043247
 C 0.0965 0.5141 0.00944   0.041574
 C 0.1925 0.5255 0.02183   -0.08702
 C 0.2197 0.5077 0.0948   -0.078537
 C 0.1505 0.4726 0.1607   -0.081532
 C 0.0583 0.4588 0.1507   -0.101788
 C 0.5727 0.4335 0.13462   0.711137
 C 0.5348 0.4669 0.06469   -0.107803
 C 0.5217 0.5491 0.07547   0.043246
 C 0.4859 0.5824 0.00944   0.041574
 C 0.4745 0.667 0.02183   -0.08702
 C 0.4923 0.712 0.0948   -0.078536
 C 0.5274 0.6779 0.1607   -0.081532
 C 0.5412 0.5995 0.1507   -0.101787
 C 0.5665 0.1392 0.13462   0.711139
 C 0.5331 0.0679 0.06469   -0.107799
 C 0.4509 0.9726 0.07547   0.043244
 C 0.4176 0.9035 0.00944   0.041572
 C 0.333 0.8075 0.02183   -0.087019
 C 0.288 0.7803 0.0948   -0.078536
 C 0.3221 0.8495 0.1607   -0.081535
 C 0.4005 0.9417 0.1507   -0.101785
 O 0.36017 0.50769 0.67465   -0.618075
 O 0.48135 0.66442 0.64734   -0.595747
 O 0.14752 0.63983 0.67465   -0.618087
 O 0.18307 0.51865 0.64734   -0.595737
 O 0.49231 0.85248 0.67465   -0.618094
 O 0.33558 0.81693 0.64734   -0.595751
 O 0.14752 0.50769 0.82535   -0.618075
 O 0.18307 0.66442 0.85266   -0.595747
 O 0.49231 0.63983 0.82535   -0.618087
 O 0.33558 0.51865 0.85266   -0.595736
 O 0.36017 0.85248 0.82535   -0.618094
 O 0.48135 0.81693 0.85266   -0.595751
 O 0.63983 0.49231 0.32535   -0.618075
 O 0.51865 0.33558 0.35266   -0.595747
 O 0.85248 0.36017 0.32535   -0.618087
 O 0.81693 0.48135 0.35266   -0.595737
 O 0.50769 0.14752 0.32535   -0.618094
 O 0.66442 0.18307 0.35266   -0.595751
 O 0.85248 0.49231 0.17465   -0.618075
 O 0.81693 0.33558 0.14734   -0.595747
 O 0.50769 0.36017 0.17465   -0.618087
 O 0.66442 0.48135 0.14734   -0.595736
 O 0.63983 0.14752 0.17465   -0.618094
 O 0.51865 0.18307 0.14734   -0.595751
 O 0.33333 0.66666 0.75   -0.809316
 O 0.66667 0.33334 0.25   -0.809316
