{'_ref': 'TBD', '_srcid': 'CAKYAQ_clean', 'submitters': [{'name': 'Dalar Nazarian Jeff Camp and David Sholl', 'email': 'dalar@gatech.edu jcamp6@gatech.edu'}], '_method': 'VASP DFT with PBE;DDEC'}
data_Zn2H24C34(NO3)3
_symmetry_space_group_name_H-M   'P 1'
_cell_length_a   13.86060036
_cell_length_b   16.91419986
_cell_length_c   18.15880000
_cell_angle_alpha   112.89500173
_cell_angle_beta   96.83999942
_cell_angle_gamma   101.84000076
_symmetry_Int_Tables_number   1
_chemical_formula_structural   Zn2H24C34(NO3)3
_chemical_formula_sum   'Zn8 H96 C136 N12 O36'
_cell_volume   3743.76308182
_cell_formula_units_Z   4
loop_
 _symmetry_equiv_pos_site_id
 _symmetry_equiv_pos_as_xyz
  1  'x, y, z'
loop_
 _atom_site_label
 _atom_site_fract_x
 _atom_site_fract_y
 _atom_site_fract_z
 _atom_site_charge
 Zn 0.16113 0.34662 0.85179   0.860339
 Zn 0.82146 0.14901 0.15318   0.870941
 Zn 0.14119 0.92769 0.5985   1.01964
 Zn 0.14996 0.41367 0.60365   1.035021
 Zn 0.83887 0.65338 0.14821   0.860339
 Zn 0.17854 0.85099 0.84682   0.870941
 Zn 0.85881 0.07231 0.4015   1.01964
 Zn 0.85004 0.58633 0.39635   1.035021
 H 0.8191 0.3855 0.8449   0.135499
 H 0.6375 0.3279 0.6322   0.141535
 H 0.7745 0.3315 0.5715   0.109443
 H 0.4632 0.3743 0.7951   0.140313
 H 0.6109 0.1924 0.6985   0.119252
 H 0.4616 0.0813 0.6545   0.097986
 H 0.5145 0.1443 0.2064   0.141157
 H 0.3712 0.3348 0.2553   0.123436
 H 0.5243 0.4416 0.3   0.101904
 H 0.1521 0.1219 0.1472   0.135507
 H 0.3637 0.1979 0.35   0.1411
 H 0.2386 0.1778 0.4198   0.104428
 H 0.2085 0.2425 0.9483   0.083899
 H 0.1977 0.2397 0.0715   0.133898
 H 0.0403 0.4178 0.1116   0.127499
 H 0.0552 0.4183 0.9874   0.081427
 H 0.2674 0.4178 0.4838   0.070046
 H 0.257 0.4165 0.3559   0.123051
 H 0.9706 0.3976 0.3379   0.151694
 H 0.9853 0.3996 0.4655   0.079677
 H 0.1612 0.3062 0.2053   0.082426
 H 0.044 0.2863 0.1801   0.105659
 H 0.1725 0.4572 0.2572   0.08491
 H 0.0541 0.4322 0.239   0.109004
 H 0.2142 0.5014 0.8124   0.089436
 H 0.3236 0.6401 0.8611   0.127514
 H 0.4251 0.6116 0.0605   0.124681
 H 0.321 0.4701 0.0018   0.071821
 H 0.7757 0.9967 0.1965   0.085452
 H 0.6707 0.8558 0.1495   0.131924
 H 0.5558 0.8852 0.9518   0.125771
 H 0.6539 0.0283 0.0111   0.071817
 H 0.4397 0.7727 0.0683   0.104825
 H 0.4154 0.782 0.985   0.10146
 H 0.571 0.7151 0.0274   0.105985
 H 0.5467 0.7244 0.9442   0.102915
 H 0.7841 0.2553 0.0599   0.075156
 H 0.7969 0.261 0.9384   0.135639
 H 0.9463 0.0752 0.8939   0.131183
 H 0.9226 0.0701 0.0157   0.084358
 H 0.7215 0.0571 0.5056   0.079267
 H 0.7189 0.0595 0.6323   0.128686
 H 0.0183 0.111 0.6798   0.150949
 H 0.0155 0.109 0.5534   0.091941
 H 0.8296 0.1929 0.8029   0.085604
 H 0.9461 0.2055 0.8247   0.105733
 H 0.8052 0.0401 0.7498   0.08624
 H 0.9228 0.0567 0.7658   0.110669
 H 0.1809 0.6145 0.1551   0.1355
 H 0.3625 0.6721 0.3678   0.141533
 H 0.2255 0.6685 0.4285   0.109443
 H 0.5368 0.6257 0.2049   0.140313
 H 0.3891 0.8076 0.3015   0.119253
 H 0.5384 0.9187 0.3455   0.097982
 H 0.4855 0.8557 0.7936   0.141155
 H 0.6288 0.6652 0.7447   0.123436
 H 0.4757 0.5584 0.7   0.101902
 H 0.8479 0.8781 0.8528   0.135508
 H 0.6363 0.8021 0.65   0.141098
 H 0.7614 0.8222 0.5802   0.104428
 H 0.7915 0.7575 0.0517   0.083899
 H 0.8023 0.7603 0.9285   0.133898
 H 0.9597 0.5822 0.8884   0.127499
 H 0.9448 0.5817 0.0126   0.081428
 H 0.7326 0.5822 0.5162   0.070044
 H 0.743 0.5835 0.6441   0.123051
 H 0.0294 0.6024 0.6621   0.151694
 H 0.0147 0.6004 0.5345   0.079677
 H 0.8388 0.6938 0.7947   0.082426
 H 0.956 0.7137 0.8199   0.105659
 H 0.8275 0.5428 0.7428   0.08491
 H 0.9459 0.5678 0.761   0.109005
 H 0.7858 0.4986 0.1876   0.089437
 H 0.6764 0.3599 0.1389   0.127514
 H 0.5749 0.3884 0.9395   0.12468
 H 0.679 0.5299 0.9982   0.071821
 H 0.2243 0.0033 0.8035   0.085452
 H 0.3293 0.1442 0.8505   0.131924
 H 0.4442 0.1148 0.0482   0.125771
 H 0.3461 0.9717 0.9889   0.071817
 H 0.5603 0.2273 0.9317   0.104825
 H 0.5846 0.218 0.015   0.101459
 H 0.429 0.2849 0.9726   0.105985
 H 0.4533 0.2756 0.0558   0.102915
 H 0.2159 0.7447 0.9401   0.075155
 H 0.2031 0.739 0.0616   0.135639
 H 0.0537 0.9248 0.1061   0.131183
 H 0.0774 0.9299 0.9843   0.084359
 H 0.2785 0.9429 0.4944   0.079265
 H 0.2811 0.9405 0.3677   0.128685
 H 0.9817 0.889 0.3202   0.150949
 H 0.9845 0.891 0.4466   0.091941
 H 0.1704 0.8071 0.1971   0.085604
 H 0.0539 0.7945 0.1753   0.105733
 H 0.1948 0.9599 0.2502   0.08624
 H 0.0772 0.9433 0.2342   0.110669
 C 0.8818 0.3571 0.6703   -0.148441
 C 0.8943 0.3732 0.7528   -0.002725
 C 0.8108 0.3739 0.7897   -0.250388
 C 0.7172 0.3574 0.7437   0.288142
 C 0.7021 0.3402 0.6625   -0.253983
 C 0.7841 0.3414 0.6263   -0.003984
 C 0.9676 0.3647 0.6293   0.669664
 C 0.9937 0.3862 0.8056   0.644264
 C 0.3709 0.1605 0.7002   -0.179594
 C 0.3733 0.2481 0.7414   0.030677
 C 0.4629 0.3151 0.7671   -0.253018
 C 0.5512 0.2944 0.7516   0.295819
 C 0.5512 0.2066 0.7093   -0.275713
 C 0.462 0.1404 0.6835   0.005302
 C 0.2736 0.0876 0.6685   0.659774
 C 0.2817 0.2777 0.7652   0.647687
 C 0.6136 0.3575 0.2811   -0.182242
 C 0.6094 0.2692 0.2531   0.035785
 C 0.5165 0.2043 0.2256   -0.249186
 C 0.4288 0.229 0.227   0.292985
 C 0.4311 0.318 0.2547   -0.271023
 C 0.5227 0.3817 0.2814   0.007863
 C 0.7113 0.4283 0.3191   0.663727
 C 0.7013 0.234 0.2431   0.664777
 C 0.1175 0.1417 0.3275   -0.16557
 C 0.0929 0.1262 0.2452   0.007585
 C 0.1691 0.1343 0.2024   -0.259892
 C 0.2693 0.1605 0.2419   0.29632
 C 0.2959 0.1786 0.3233   -0.273933
 C 0.2205 0.1676 0.3652   0.006026
 C 0.0396 0.1247 0.3734   0.669349
 C 0.9882 0.1074 0.1982   0.651618
 C 0.1747 0.2789 0.9818   0.168544
 C 0.168 0.2768 0.0556   -0.233709
 C 0.1174 0.3291 0.1066   0.165575
 C 0.0755 0.3817 0.0794   -0.216239
 C 0.0847 0.3818 0.0044   0.188749
 C 0.2053 0.4148 0.4554   0.185555
 C 0.1994 0.4139 0.3774   -0.235877
 C 0.1143 0.4094 0.3346   0.186344
 C 0.0334 0.4029 0.367   -0.192298
 C 0.0432 0.4042 0.4445   0.215241
 C 0.1078 0.3283 0.1878   -0.161186
 C 0.1123 0.4131 0.2528   -0.171264
 C 0.2596 0.5232 0.8623   0.215198
 C 0.3248 0.6076 0.8922   -0.214712
 C 0.3888 0.6434 0.964   0.14042
 C 0.3846 0.5895 0.0083   -0.234982
 C 0.3207 0.5054 0.9732   0.165628
 C 0.7272 0.9746 0.1481   0.229418
 C 0.6656 0.8888 0.1192   -0.211352
 C 0.5988 0.8531 0.048   0.138111
 C 0.5974 0.9079 0.0036   -0.231442
 C 0.6574 0.9924 0.0387   0.159393
 C 0.4434 0.7488 0.011   -0.169899
 C 0.5432 0.7484 0.0015   -0.169253
 C 0.8157 0.2173 0.0254   0.176834
 C 0.8237 0.2215 0.9528   -0.235394
 C 0.8718 0.1666 0.9002   0.166617
 C 0.911 0.1113 0.9258   -0.216626
 C 0.8977 0.1095 0.000100000000003   0.178516
 C 0.7817 0.0667 0.5406   0.179548
 C 0.7802 0.0683 0.6166   -0.229763
 C 0.8676 0.0827 0.6698   0.169928
 C 0.9569 0.0989 0.645   -0.186468
 C 0.9546 0.097 0.5689   0.227098
 C 0.8803 0.1671 0.8186   -0.156198
 C 0.8682 0.0803 0.753   -0.175465
 C 0.1182 0.6429 0.3297   -0.148441
 C 0.1057 0.6268 0.2472   -0.002725
 C 0.1892 0.6261 0.2103   -0.250388
 C 0.2828 0.6426 0.2563   0.288142
 C 0.2979 0.6598 0.3375   -0.253982
 C 0.2159 0.6586 0.3737   -0.003984
 C 0.0324 0.6353 0.3707   0.669663
 C 0.0063 0.6138 0.1944   0.644264
 C 0.6291 0.8395 0.2998   -0.179595
 C 0.6267 0.7519 0.2586   0.030677
 C 0.5371 0.6849 0.2329   -0.253018
 C 0.4488 0.7056 0.2484   0.295819
 C 0.4488 0.7934 0.2907   -0.275713
 C 0.538 0.8596 0.3165   0.005303
 C 0.7264 0.9124 0.3315   0.659775
 C 0.7183 0.7223 0.2348   0.647687
 C 0.3864 0.6425 0.7189   -0.182243
 C 0.3906 0.7308 0.7469   0.035784
 C 0.4835 0.7957 0.7744   -0.249185
 C 0.5712 0.771 0.773   0.292984
 C 0.5689 0.682 0.7453   -0.271023
 C 0.4773 0.6183 0.7186   0.007863
 C 0.2887 0.5717 0.6809   0.663727
 C 0.2987 0.766 0.7569   0.664777
 C 0.8825 0.8583 0.6725   -0.16557
 C 0.9071 0.8738 0.7548   0.007585
 C 0.8309 0.8657 0.7976   -0.259893
 C 0.7307 0.8395 0.7581   0.29632
 C 0.7041 0.8214 0.6767   -0.273932
 C 0.7795 0.8324 0.6348   0.006025
 C 0.9604 0.8753 0.6266   0.669349
 C 0.0118 0.8926 0.8018   0.651618
 C 0.8253 0.7211 0.0182   0.168544
 C 0.832 0.7232 0.9444   -0.23371
 C 0.8826 0.6709 0.8934   0.165575
 C 0.9245 0.6183 0.9206   -0.216239
 C 0.9153 0.6182 0.9956   0.188748
 C 0.7947 0.5852 0.5446   0.185555
 C 0.8006 0.5861 0.6226   -0.235877
 C 0.8857 0.5906 0.6654   0.186344
 C 0.9666 0.5971 0.633   -0.192298
 C 0.9568 0.5958 0.5555   0.215241
 C 0.8922 0.6717 0.8122   -0.161186
 C 0.8877 0.5869 0.7472   -0.171264
 C 0.7404 0.4768 0.1377   0.215197
 C 0.6752 0.3924 0.1078   -0.214712
 C 0.6112 0.3566 0.036   0.14042
 C 0.6154 0.4105 0.9917   -0.234982
 C 0.6793 0.4946 0.0268   0.165628
 C 0.2728 0.0254 0.8519   0.229418
 C 0.3344 0.1112 0.8808   -0.211353
 C 0.4012 0.1469 0.952   0.138111
 C 0.4026 0.0921 0.9964   -0.231442
 C 0.3426 0.0076 0.9613   0.159393
 C 0.5566 0.2512 0.989   -0.169899
 C 0.4568 0.2516 0.9985   -0.169253
 C 0.1843 0.7827 0.9746   0.176834
 C 0.1763 0.7785 0.0472   -0.235394
 C 0.1282 0.8334 0.0998   0.166617
 C 0.089 0.8887 0.0742   -0.216626
 C 0.1023 0.8905 0.9999   0.178516
 C 0.2183 0.9333 0.4594   0.179549
 C 0.2198 0.9317 0.3834   -0.229763
 C 0.1324 0.9173 0.3302   0.169928
 C 0.0431 0.9011 0.355   -0.186468
 C 0.0454 0.903 0.4311   0.227098
 C 0.1197 0.8329 0.1814   -0.156198
 C 0.1318 0.9197 0.247   -0.175465
 N 0.1337 0.3322 0.956   -0.369241
 N 0.1286 0.4115 0.4904   -0.386185
 N 0.2589 0.4718 0.9016   -0.339305
 N 0.7211 0.0265 0.1109   -0.350438
 N 0.8508 0.1617 0.0494   -0.361508
 N 0.8695 0.0788 0.5161   -0.405461
 N 0.8663 0.6678 0.044   -0.369241
 N 0.8714 0.5885 0.5096   -0.386185
 N 0.7411 0.5282 0.0984   -0.339305
 N 0.2789 0.9735 0.8891   -0.350438
 N 0.1492 0.8383 0.9506   -0.361508
 N 0.1305 0.9212 0.4839   -0.405462
 O 0.0516 0.4199 0.6734   -0.614047
 O 0.9553 0.3213 0.5551   -0.595009
 O 0.0347 0.3235 0.7795   -0.579749
 O 0.0261 0.4526 0.871   -0.583201
 O 0.2787 0.0084 0.6562   -0.648218
 O 0.1932 0.1041 0.6553   -0.563751
 O 0.242 0.3178 0.7311   -0.58518
 O 0.2553 0.2691 0.8266   -0.617154
 O 0.6382 0.364 0.7842   -0.279144
 O 0.7108 0.509 0.341   -0.645921
 O 0.7909 0.4082 0.3302   -0.57524
 O 0.7364 0.2313 0.1819   -0.63
 O 0.728 0.1986 0.2871   -0.601024
 O 0.954 0.0712 0.3306   -0.617408
 O 0.0586 0.16 0.4482   -0.59036
 O 0.9449 0.1692 0.2265   -0.591598
 O 0.9537 0.0396 0.1344   -0.588233
 O 0.3381 0.1628 0.1933   -0.284594
 O 0.9484 0.5801 0.3266   -0.614047
 O 0.0447 0.6787 0.4449   -0.595009
 O 0.9653 0.6765 0.2205   -0.579749
 O 0.9739 0.5474 0.129   -0.583201
 O 0.7213 0.9916 0.3438   -0.648218
 O 0.8068 0.8959 0.3447   -0.563751
 O 0.758 0.6822 0.2689   -0.58518
 O 0.7447 0.7309 0.1734   -0.617154
 O 0.3618 0.636 0.2158   -0.279144
 O 0.2892 0.491 0.659   -0.645921
 O 0.2091 0.5918 0.6698   -0.57524
 O 0.2636 0.7687 0.8181   -0.63
 O 0.272 0.8014 0.7129   -0.601024
 O 0.046 0.9288 0.6694   -0.617408
 O 0.9414 0.84 0.5518   -0.59036
 O 0.0551 0.8308 0.7735   -0.591598
 O 0.0463 0.9604 0.8656   -0.588233
 O 0.6619 0.8372 0.8067   -0.284594
