{'_ref': 'TBD', '_srcid': 'CAKYAQ_clean', 'submitters': [{'name': 'Dalar Nazarian Jeff Camp and David Sholl', 'email': 'dalar@gatech.edu jcamp6@gatech.edu'}], '_method': 'VASP DFT with PBE;DDEC'}
data_ZnH11C18(NO2)2
_symmetry_space_group_name_H-M   'P 1'
_cell_length_a   10.30200000
_cell_length_b   11.87600000
_cell_length_c   32.26600000
_cell_angle_alpha   90.00000000
_cell_angle_beta   90.00000000
_cell_angle_gamma   90.00000000
_symmetry_Int_Tables_number   1
_chemical_formula_structural   ZnH11C18(NO2)2
_chemical_formula_sum   'Zn8 H88 C144 N16 O32'
_cell_volume   3947.63384683
_cell_formula_units_Z   8
loop_
 _symmetry_equiv_pos_site_id
 _symmetry_equiv_pos_as_xyz
  1  'x, y, z'
loop_
 _atom_site_label
 _atom_site_fract_x
 _atom_site_fract_y
 _atom_site_fract_z
 _atom_site_charge
 Zn 0.61475 0.83243 0.04371   0.959089
 Zn 0.87636 0.04493 0.64748   0.945881
 Zn 0.88525 0.16757 0.54371   0.959089
 Zn 0.62364 0.95507 0.14748   0.945882
 Zn 0.38525 0.33243 0.45629   0.959089
 Zn 0.12364 0.54493 0.85252   0.945881
 Zn 0.11475 0.66757 0.95629   0.959089
 Zn 0.37636 0.45507 0.35252   0.945882
 H 0.2357 0.9186 0.043   0.108338
 H 0.0128 0.9192 0.0388   0.106142
 H 0.8782 0.8047 0.1709   0.093794
 H 0.9811 0.7444 0.2294   0.096239
 H 0.2055 0.7265 0.2305   0.092877
 H 0.3253 0.7805 0.1747   0.093059
 H 0.5208 0.234 0.0635   0.116832
 H 0.4982 0.4109 0.0341   0.112337
 H 0.6636 0.6552 0.1348   0.110397
 H 0.7423 0.6315 0.2003   0.088713
 H 0.7633 0.4532 0.2291   0.09509
 H 0.7048 0.298 0.1917   0.097388
 H 0.5442 0.0645 0.7928   0.111719
 H 0.4585 0.9988 0.8547   0.10294
 H 0.8162 0.9569 0.9   0.106258
 H 0.9027 0.022 0.8386   0.104125
 H 0.7102 0.9852 0.728   0.108125
 H 0.9859 0.2109 0.7163   0.11614
 H 0.921 0.2115 0.7891   0.146214
 H 0.7352 0.9162 0.9587   0.104025
 H 0.3718 0.8412 0.9832   0.110935
 H 0.3791 0.9095 0.912   0.130404
 H 0.2643 0.0814 0.543   0.108338
 H 0.4872 0.0808 0.5388   0.106142
 H 0.6218 0.1953 0.6709   0.093794
 H 0.5189 0.2556 0.7294   0.09624
 H 0.2945 0.2735 0.7305   0.092876
 H 0.1747 0.2195 0.6747   0.093059
 H 0.9792 0.766 0.5635   0.116832
 H 0.0018 0.5891 0.5341   0.112337
 H 0.8364 0.3448 0.6348   0.110397
 H 0.7577 0.3685 0.7003   0.088713
 H 0.7367 0.5468 0.7291   0.09509
 H 0.7952 0.702 0.6917   0.097388
 H 0.9558 0.9355 0.2928   0.111719
 H 0.0415 0.0012 0.3547   0.10294
 H 0.6838 0.0431 0.4   0.106258
 H 0.5973 0.978 0.3386   0.104125
 H 0.7898 0.0148 0.228   0.108125
 H 0.5141 0.7891 0.2163   0.116139
 H 0.579 0.7885 0.2891   0.146214
 H 0.7648 0.0838 0.4587   0.104025
 H 0.1282 0.1588 0.4832   0.110935
 H 0.1209 0.0905 0.412   0.130404
 H 0.7643 0.4186 0.457   0.108338
 H 0.9872 0.4192 0.4612   0.106141
 H 0.1218 0.3047 0.3291   0.093794
 H 0.0189 0.2444 0.2706   0.09624
 H 0.7945 0.2265 0.2695   0.092876
 H 0.6747 0.2805 0.3253   0.093059
 H 0.4792 0.734 0.4365   0.116832
 H 0.5018 0.9109 0.4659   0.112336
 H 0.3364 0.1552 0.3652   0.110397
 H 0.2577 0.1315 0.2997   0.088713
 H 0.2367 0.9532 0.2709   0.09509
 H 0.2952 0.798 0.3083   0.097388
 H 0.4558 0.5645 0.7072   0.111719
 H 0.5415 0.4988 0.6453   0.10294
 H 0.1838 0.4569 0.6   0.106258
 H 0.0973 0.522 0.6614   0.104125
 H 0.2898 0.4852 0.772   0.108125
 H 0.0141 0.7109 0.7837   0.11614
 H 0.079 0.7115 0.7109   0.146214
 H 0.2648 0.4162 0.5413   0.104024
 H 0.6282 0.3412 0.5168   0.110935
 H 0.6209 0.4095 0.588   0.130404
 H 0.7357 0.5814 0.957   0.108338
 H 0.5128 0.5808 0.9612   0.106141
 H 0.3782 0.6953 0.8291   0.093794
 H 0.4811 0.7556 0.7706   0.09624
 H 0.7055 0.7735 0.7695   0.092876
 H 0.8253 0.7195 0.8253   0.093059
 H 0.0208 0.266 0.9365   0.116832
 H 0.9982 0.0891 0.9659   0.112336
 H 0.1636 0.8448 0.8652   0.110397
 H 0.2423 0.8685 0.7997   0.088713
 H 0.2633 0.0468 0.7709   0.09509
 H 0.2048 0.202 0.8083   0.097388
 H 0.0442 0.4355 0.2072   0.111719
 H 0.9585 0.5012 0.1453   0.10294
 H 0.3162 0.5431 0.1   0.106258
 H 0.4027 0.478 0.1614   0.104125
 H 0.2102 0.5148 0.272   0.108125
 H 0.4859 0.2891 0.2837   0.116139
 H 0.421 0.2885 0.2109   0.146214
 H 0.2352 0.5838 0.0413   0.104024
 H 0.8718 0.6588 0.0168   0.110935
 H 0.8791 0.5905 0.088   0.130404
 C 0.2515 0.8683 0.10187   -0.150125
 C 0.1874 0.8983 0.06615   -0.045623
 C 0.0525 0.8992 0.06363   -0.022773
 C 0.9765 0.8709 0.09726   -0.17509
 C 0.0379 0.8357 0.13542   0.060816
 C 0.9684 0.8015 0.17119   -0.125033
 C 0.0296 0.7639 0.20612   -0.100264
 C 0.1643 0.7547 0.20704   -0.092433
 C 0.2355 0.7872 0.1736   -0.104863
 C 0.1772 0.831 0.13709   0.050259
 C 0.3974 0.8812 0.10259   0.703431
 C 0.8328 0.8757 0.09076   0.695409
 C 0.597 0.284 0.11733   -0.113441
 C 0.5471 0.2971 0.07829   -0.07995
 C 0.5349 0.4039 0.06032   -0.063879
 C 0.5766 0.4988 0.08097   -0.151502
 C 0.6311 0.4883 0.12165   0.047196
 C 0.6704 0.5831 0.14579   -0.12015
 C 0.7178 0.5687 0.18492   -0.086356
 C 0.7303 0.4614 0.20245   -0.088415
 C 0.6939 0.3692 0.18024   -0.12371
 C 0.6402 0.3793 0.14024   0.034547
 C 0.5966 0.1684 0.13646   0.663175
 C 0.5561 0.6103 0.05977   0.65486
 C 0.7318 0.0496 0.80989   0.089823
 C 0.5989 0.0429 0.81433   -0.139491
 C 0.548 0.0034 0.85135   -0.110215
 C 0.6283 0.9711 0.88321   0.118873
 C 0.7616 0.9784 0.87843   -0.115194
 C 0.8132 0.0174 0.84182   -0.103641
 C 0.7704 0.0413 0.73392   0.138061
 C 0.9219 0.1655 0.72795   0.040969
 C 0.8869 0.1667 0.76816   -0.117411
 C 0.646 0.9061 0.95607   0.182502
 C 0.4457 0.8652 0.96927   0.058018
 C 0.4493 0.9025 0.92992   -0.124524
 C 0.2485 0.1317 0.60187   -0.150125
 C 0.3126 0.1017 0.56615   -0.045623
 C 0.4475 0.1008 0.56363   -0.022773
 C 0.5235 0.1291 0.59726   -0.17509
 C 0.4621 0.1643 0.63542   0.060816
 C 0.5316 0.1985 0.67119   -0.125033
 C 0.4704 0.2361 0.70612   -0.100264
 C 0.3357 0.2453 0.70704   -0.092433
 C 0.2645 0.2128 0.6736   -0.104863
 C 0.3228 0.169 0.63709   0.050259
 C 0.1026 0.1188 0.60259   0.703431
 C 0.6672 0.1243 0.59076   0.695409
 C 0.903 0.716 0.61733   -0.113441
 C 0.9529 0.7029 0.57829   -0.07995
 C 0.9651 0.5961 0.56032   -0.063879
 C 0.9234 0.5012 0.58097   -0.151502
 C 0.8689 0.5117 0.62165   0.047196
 C 0.8296 0.4169 0.64579   -0.12015
 C 0.7822 0.4313 0.68492   -0.086357
 C 0.7697 0.5386 0.70245   -0.088415
 C 0.8061 0.6308 0.68024   -0.12371
 C 0.8598 0.6207 0.64024   0.034547
 C 0.9034 0.8316 0.63646   0.663175
 C 0.9439 0.3897 0.55977   0.65486
 C 0.7682 0.9504 0.30989   0.089823
 C 0.9011 0.9571 0.31433   -0.139491
 C 0.952 0.9966 0.35135   -0.110215
 C 0.8717 0.0289 0.38321   0.118873
 C 0.7384 0.0216 0.37843   -0.115194
 C 0.6868 0.9826 0.34182   -0.103641
 C 0.7296 0.9587 0.23392   0.138061
 C 0.5781 0.8345 0.22795   0.040969
 C 0.6131 0.8333 0.26816   -0.117412
 C 0.854 0.0939 0.45607   0.182502
 C 0.0543 0.1348 0.46927   0.058018
 C 0.0507 0.0975 0.42992   -0.124524
 C 0.7485 0.3683 0.39813   -0.150125
 C 0.8126 0.3983 0.43385   -0.045623
 C 0.9475 0.3992 0.43637   -0.022773
 C 0.0235 0.3709 0.40274   -0.17509
 C 0.9621 0.3357 0.36458   0.060816
 C 0.0316 0.3015 0.32881   -0.125033
 C 0.9704 0.2639 0.29388   -0.100264
 C 0.8357 0.2547 0.29296   -0.092433
 C 0.7645 0.2872 0.3264   -0.104863
 C 0.8228 0.331 0.36291   0.050259
 C 0.6026 0.3812 0.39741   0.703431
 C 0.1672 0.3757 0.40924   0.695409
 C 0.403 0.784 0.38267   -0.113441
 C 0.4529 0.7971 0.42171   -0.07995
 C 0.4651 0.9039 0.43968   -0.063879
 C 0.4234 0.9988 0.41903   -0.151502
 C 0.3689 0.9883 0.37835   0.047196
 C 0.3296 0.0831 0.35421   -0.12015
 C 0.2822 0.0687 0.31508   -0.086356
 C 0.2697 0.9614 0.29755   -0.088416
 C 0.3061 0.8692 0.31976   -0.123709
 C 0.3598 0.8793 0.35976   0.034546
 C 0.4034 0.6684 0.36354   0.663175
 C 0.4439 0.1103 0.44023   0.65486
 C 0.2682 0.5496 0.69011   0.089823
 C 0.4011 0.5429 0.68567   -0.13949
 C 0.452 0.5034 0.64865   -0.110216
 C 0.3717 0.4711 0.61679   0.118874
 C 0.2384 0.4784 0.62157   -0.115195
 C 0.1868 0.5174 0.65818   -0.103641
 C 0.2296 0.5413 0.76608   0.138061
 C 0.0781 0.6655 0.77205   0.040969
 C 0.1131 0.6667 0.73184   -0.117411
 C 0.354 0.4061 0.54393   0.182502
 C 0.5543 0.3652 0.53073   0.058018
 C 0.5507 0.4025 0.57008   -0.124525
 C 0.7515 0.6317 0.89813   -0.150125
 C 0.6874 0.6017 0.93385   -0.045623
 C 0.5525 0.6008 0.93637   -0.022773
 C 0.4765 0.6291 0.90274   -0.17509
 C 0.5379 0.6643 0.86458   0.060816
 C 0.4684 0.6985 0.82881   -0.125033
 C 0.5296 0.7361 0.79388   -0.100264
 C 0.6643 0.7453 0.79296   -0.092433
 C 0.7355 0.7128 0.8264   -0.104863
 C 0.6772 0.669 0.86291   0.050259
 C 0.8974 0.6188 0.89741   0.703431
 C 0.3328 0.6243 0.90924   0.695409
 C 0.097 0.216 0.88267   -0.113441
 C 0.0471 0.2029 0.92171   -0.07995
 C 0.0349 0.0961 0.93968   -0.063879
 C 0.0766 0.0012 0.91903   -0.151502
 C 0.1311 0.0117 0.87835   0.047196
 C 0.1704 0.9169 0.85421   -0.12015
 C 0.2178 0.9313 0.81508   -0.086357
 C 0.2303 0.0386 0.79755   -0.088416
 C 0.1939 0.1308 0.81976   -0.123709
 C 0.1402 0.1207 0.85976   0.034546
 C 0.0966 0.3316 0.86354   0.663175
 C 0.0561 0.8897 0.94023   0.65486
 C 0.2318 0.4504 0.19011   0.089823
 C 0.0989 0.4571 0.18567   -0.139491
 C 0.048 0.4966 0.14865   -0.110216
 C 0.1283 0.5289 0.11679   0.118874
 C 0.2616 0.5216 0.12157   -0.115195
 C 0.3132 0.4826 0.15818   -0.103641
 C 0.2704 0.4587 0.26608   0.138061
 C 0.4219 0.3345 0.27205   0.040969
 C 0.3869 0.3333 0.23184   -0.117412
 C 0.146 0.5939 0.04393   0.182502
 C 0.9457 0.6348 0.03073   0.058018
 C 0.9493 0.5975 0.07008   -0.124525
 N 0.7895 0.08711 0.77165   0.041693
 N 0.8497 0.08753 0.70653   -0.370209
 N 0.577 0.9283 0.92128   0.033663
 N 0.5699 0.8684 0.98562   -0.392137
 N 0.7105 0.91289 0.27165   0.041693
 N 0.6503 0.91247 0.20653   -0.370209
 N 0.923 0.0717 0.42128   0.033663
 N 0.9301 0.1316 0.48562   -0.392137
 N 0.2105 0.58711 0.72835   0.041693
 N 0.1503 0.58753 0.79347   -0.370209
 N 0.423 0.4283 0.57872   0.033663
 N 0.4301 0.3684 0.51438   -0.392138
 N 0.2895 0.41289 0.22835   0.041693
 N 0.3497 0.41247 0.29347   -0.370209
 N 0.077 0.5717 0.07872   0.033663
 N 0.0699 0.6316 0.01438   -0.392138
 O 0.454 0.88681 0.13693   -0.579093
 O 0.45298 0.89297 0.06812   -0.613727
 O 0.75669 0.85784 0.12105   -0.621053
 O 0.79053 0.895 0.05464   -0.565442
 O 0.6583 0.09236 0.11694   -0.604646
 O 0.5343 0.14994 0.16821   -0.596381
 O 0.4527 0.62965 0.04218   -0.568217
 O 0.65146 0.67966 0.06174   -0.605362
 O 0.046 0.11319 0.63693   -0.579093
 O 0.04702 0.10703 0.56812   -0.613727
 O 0.74331 0.14216 0.62105   -0.621053
 O 0.70947 0.105 0.55464   -0.565442
 O 0.8417 0.90764 0.61694   -0.604646
 O 0.9657 0.85006 0.66821   -0.596381
 O 0.0473 0.37035 0.54218   -0.568217
 O 0.84854 0.32034 0.56174   -0.605363
 O 0.546 0.38681 0.36307   -0.579093
 O 0.54702 0.39297 0.43188   -0.613727
 O 0.24331 0.35784 0.37895   -0.621053
 O 0.20947 0.395 0.44536   -0.565442
 O 0.3417 0.59236 0.38306   -0.604646
 O 0.4657 0.64994 0.33179   -0.596381
 O 0.5473 0.12965 0.45782   -0.568217
 O 0.34854 0.17966 0.43826   -0.605362
 O 0.954 0.61319 0.86307   -0.579093
 O 0.95298 0.60703 0.93188   -0.613727
 O 0.25669 0.64216 0.87895   -0.621053
 O 0.29053 0.605 0.94536   -0.565442
 O 0.1583 0.40764 0.88306   -0.604646
 O 0.0343 0.35006 0.83179   -0.596381
 O 0.9527 0.87035 0.95782   -0.568217
 O 0.15146 0.82034 0.93826   -0.605363
