{'_ref': 'TBD', '_srcid': 'CAKYAQ_clean', 'submitters': [{'name': 'Dalar Nazarian Jeff Camp and David Sholl', 'email': 'dalar@gatech.edu jcamp6@gatech.edu'}], '_method': 'VASP DFT with PBE;DDEC'}
data_CdH3C2N3
_symmetry_space_group_name_H-M   'P 1'
_cell_length_a   8.56919999
_cell_length_b   8.56919990
_cell_length_c   14.62100000
_cell_angle_alpha   90.68700150
_cell_angle_beta   90.68700150
_cell_angle_gamma   90.52479962
_symmetry_Int_Tables_number   1
_chemical_formula_structural   CdH3C2N3
_chemical_formula_sum   'Cd4 H12 C8 N12'
_cell_volume   1073.43657769
_cell_formula_units_Z   4
loop_
 _symmetry_equiv_pos_site_id
 _symmetry_equiv_pos_as_xyz
  1  'x, y, z'
loop_
 _atom_site_label
 _atom_site_fract_x
 _atom_site_fract_y
 _atom_site_fract_z
 _atom_site_charge
 Cd 0.49348 0.50652 0.75   0.448446
 Cd 0.50652 0.49348 0.25   0.448445
 Cd 0.0 0.5 0.0   0.987003
 Cd 0.5 0.0 0.5   0.987002
 H 0.09964 0.1867 0.95058   0.33776
 H 0.89203 0.18879 0.94639   0.33958
 H 0.9915 0.174 0.05344   0.332516
 H 0.8133 0.90036 0.54942   0.33776
 H 0.81121 0.10797 0.55361   0.339579
 H 0.826 0.0085 0.44656   0.332515
 H 0.90036 0.8133 0.04942   0.337761
 H 0.10797 0.81121 0.05361   0.339582
 H 0.0085 0.826 0.94656   0.332521
 H 0.1867 0.09964 0.45058   0.337761
 H 0.18879 0.89203 0.44639   0.339581
 H 0.174 0.9915 0.55344   0.332521
 C 0.2859 0.5071 0.8364   -0.049305
 C 0.4916 0.301 0.6586   -0.052704
 C 0.4929 0.7141 0.6636   -0.049309
 C 0.699 0.5084 0.8414   -0.052708
 C 0.7141 0.4929 0.1636   -0.049307
 C 0.5084 0.699 0.3414   -0.052706
 C 0.5071 0.2859 0.3364   -0.049311
 C 0.301 0.4916 0.1586   -0.05271
 N 0.1835 0.5115 0.8839   -0.377445
 N 0.1996 0.4902 0.1085   -0.37344
 N 0.9951 0.2255 0.9857   -0.874684
 N 0.4885 0.8165 0.6161   -0.377444
 N 0.5098 0.8004 0.3915   -0.37344
 N 0.7745 0.0049 0.5143   -0.874684
 N 0.8165 0.4885 0.1161   -0.377444
 N 0.8004 0.5098 0.8915   -0.373439
 N 0.0049 0.7745 0.0143   -0.874686
 N 0.5115 0.1835 0.3839   -0.377443
 N 0.4902 0.1996 0.6085   -0.37344
 N 0.2255 0.9951 0.4857   -0.874686
