{'_ref': 'TBD', '_srcid': 'CAKYAQ_clean', 'submitters': [{'name': 'Dalar Nazarian Jeff Camp and David Sholl', 'email': 'dalar@gatech.edu jcamp6@gatech.edu'}], '_method': 'VASP DFT with PBE;DDEC'}
data_CoH20C30S(NO3)2
_symmetry_space_group_name_H-M   'P 1'
_cell_length_a   15.61670012
_cell_length_b   15.61669944
_cell_length_c   16.71780000
_cell_angle_alpha   100.83500057
_cell_angle_beta   100.83500009
_cell_angle_gamma   119.90499933
_symmetry_Int_Tables_number   1
_chemical_formula_structural   CoH20C30S(NO3)2
_chemical_formula_sum   'Co4 H80 C120 S4 N8 O24'
_cell_volume   3275.77625671
_cell_formula_units_Z   4
loop_
 _symmetry_equiv_pos_site_id
 _symmetry_equiv_pos_as_xyz
  1  'x, y, z'
loop_
 _atom_site_label
 _atom_site_fract_x
 _atom_site_fract_y
 _atom_site_fract_z
 _atom_site_charge
 Co 0.50495 0.06877 0.62081   0.711825
 Co 0.93123 0.49505 0.87919   0.711826
 Co 0.49505 0.93123 0.37919   0.711834
 Co 0.06877 0.50495 0.12081   0.711834
 H 0.6628 0.3044 0.6539   0.085849
 H 0.6683 0.4527 0.6576   0.119765
 H 0.3572 0.2854 0.5798   0.137421
 H 0.3593 0.1393 0.5752   0.085606
 H 0.6499 0.5663 0.6011   0.089375
 H 0.6473 0.7119 0.6035   0.101471
 H 0.3743 0.5791 0.6461   0.102813
 H 0.3786 0.434 0.6468   0.101477
 H 0.6632 0.8636 0.6778   0.130569
 H 0.6553 0.0053 0.6795   0.081416
 H 0.3533 0.8305 0.5805   0.079574
 H 0.3524 0.6838 0.5755   0.119963
 H 0.7756 0.0458 0.4631   0.109293
 H 0.9494 0.1356 0.4741   0.105197
 H 0.0083 0.3769 0.6621   0.097501
 H 0.8352 0.2838 0.6564   0.111396
 H 0.1064 0.2498 0.4025   0.105724
 H 0.0866 0.2954 0.2807   0.111135
 H 0.1276 0.5582 0.4196   0.098778
 H 0.1424 0.5118 0.5406   0.107358
 H 0.6956 0.3372 0.8461   0.085828
 H 0.5473 0.3317 0.8424   0.119766
 H 0.7146 0.6428 0.9202   0.137424
 H 0.8607 0.6407 0.9248   0.085605
 H 0.4337 0.3501 0.8989   0.089378
 H 0.2881 0.3527 0.8965   0.10147
 H 0.4209 0.6257 0.8539   0.102801
 H 0.566 0.6214 0.8532   0.101476
 H 0.1364 0.3368 0.8222   0.130582
 H 0.9947 0.3447 0.8205   0.081401
 H 0.1695 0.6467 0.9195   0.079574
 H 0.3162 0.6476 0.9245   0.119963
 H 0.9542 0.2244 0.0369   0.10928
 H 0.8644 0.0506 0.0259   0.105219
 H 0.6231 0.9917 0.8379   0.097501
 H 0.7162 0.1648 0.8436   0.11137
 H 0.7502 0.8936 0.0975   0.105762
 H 0.7046 0.9134 0.2193   0.111155
 H 0.4418 0.8724 0.0804   0.098778
 H 0.4882 0.8576 0.9594   0.107358
 H 0.3372 0.6956 0.3461   0.085842
 H 0.3317 0.5473 0.3424   0.119765
 H 0.6428 0.7146 0.4202   0.137402
 H 0.6407 0.8607 0.4248   0.085552
 H 0.3501 0.4337 0.3989   0.089374
 H 0.3527 0.2881 0.3965   0.101452
 H 0.6257 0.4209 0.3539   0.102813
 H 0.6214 0.566 0.3532   0.101477
 H 0.3368 0.1364 0.3222   0.13062
 H 0.3447 0.9947 0.3205   0.081415
 H 0.6467 0.1695 0.4195   0.079576
 H 0.6476 0.3162 0.4245   0.119967
 H 0.2244 0.9542 0.5369   0.109248
 H 0.0506 0.8644 0.5259   0.105207
 H 0.9917 0.6231 0.3379   0.097495
 H 0.1648 0.7162 0.3436   0.111391
 H 0.8936 0.7502 0.5975   0.105764
 H 0.9134 0.7046 0.7193   0.111128
 H 0.8724 0.4418 0.5804   0.098756
 H 0.8576 0.4882 0.4594   0.107358
 H 0.3044 0.6628 0.1539   0.085821
 H 0.4527 0.6683 0.1576   0.119767
 H 0.2854 0.3572 0.0798   0.137405
 H 0.1393 0.3593 0.0752   0.085551
 H 0.5663 0.6499 0.1011   0.089376
 H 0.7119 0.6473 0.1035   0.101452
 H 0.5791 0.3743 0.1461   0.102801
 H 0.434 0.3786 0.1468   0.101476
 H 0.8636 0.6632 0.1778   0.130632
 H 0.0053 0.6553 0.1795   0.0814
 H 0.8305 0.3533 0.0805   0.079575
 H 0.6838 0.3524 0.0755   0.119967
 H 0.0458 0.7756 0.9631   0.109235
 H 0.1356 0.9494 0.9741   0.105229
 H 0.3769 0.0083 0.1621   0.097495
 H 0.2838 0.8352 0.1564   0.111365
 H 0.2498 0.1064 0.9025   0.105802
 H 0.2954 0.0866 0.7807   0.111148
 H 0.5582 0.1276 0.9196   0.098756
 H 0.5118 0.1424 0.0406   0.107358
 C 0.59995 0.30005 0.6386   0.156486
 C 0.60389 0.38971 0.6411   -0.203999
 C 0.51282 0.38778 0.6195   0.116903
 C 0.42089 0.29151 0.595   -0.210231
 C 0.4229 0.2037 0.593   0.15777
 C 0.51319 0.48301 0.6225   0.012436
 C 0.59401 0.56839 0.6103   -0.091415
 C 0.59235 0.65565 0.6117   -0.110647
 C 0.51042 0.66138 0.6251   0.021143
 C 0.43047 0.57713 0.6374   -0.088879
 C 0.43268 0.48952 0.637   -0.09736
 C 0.5086 0.7552 0.6261   0.128913
 C 0.59851 0.85429 0.6571   -0.201411
 C 0.59318 0.93942 0.6576   0.165123
 C 0.41699 0.83741 0.5998   0.170048
 C 0.41573 0.74867 0.597   -0.202688
 C 0.67445 0.09615 0.5526   0.620546
 C 0.78822 0.15518 0.55959   -0.113781
 C 0.82276 0.11184 0.5043   -0.038693
 C 0.92555 0.16545 0.51   -0.052951
 C 0.9938 0.2648 0.5697   -0.208943
 C 0.9613 0.3095 0.6231   -0.045557
 C 0.85792 0.25428 0.6191   -0.047442
 C 0.12364 0.37596 0.4835   -0.219012
 C 0.10892 0.31108 0.4055   -0.036468
 C 0.09798 0.33902 0.3333   -0.066087
 C 0.10363 0.43037 0.3372   -0.074282
 C 0.12171 0.49529 0.416   -0.063886
 C 0.13104 0.46796 0.4881   -0.037049
 C 0.08851 0.45829 0.2566   0.599509
 C 0.69995 0.40005 0.8614   0.156477
 C 0.61029 0.39611 0.8589   -0.204018
 C 0.61222 0.48718 0.8805   0.116902
 C 0.70849 0.57911 0.905   -0.210259
 C 0.7963 0.5771 0.907   0.157774
 C 0.51699 0.48681 0.8775   0.012433
 C 0.43161 0.40599 0.8897   -0.091439
 C 0.34435 0.40765 0.8883   -0.110643
 C 0.33862 0.48958 0.8749   0.021141
 C 0.42287 0.56953 0.8626   -0.088872
 C 0.51048 0.56732 0.863   -0.097348
 C 0.2448 0.4914 0.8739   0.128915
 C 0.14571 0.40149 0.8429   -0.201417
 C 0.06058 0.40682 0.8424   0.165129
 C 0.16259 0.58301 0.9002   0.170049
 C 0.25133 0.58427 0.903   -0.202689
 C 0.90385 0.32555 0.9474   0.620547
 C 0.84482 0.21178 0.94041   -0.113786
 C 0.88816 0.17724 0.9957   -0.038684
 C 0.83455 0.07445 0.99   -0.052962
 C 0.7352 0.0062 0.9303   -0.208938
 C 0.6905 0.0387 0.8769   -0.045559
 C 0.74572 0.14208 0.8809   -0.047435
 C 0.62404 0.87636 0.0165   -0.219007
 C 0.68892 0.89108 0.0945   -0.03648
 C 0.66098 0.90202 0.1667   -0.066092
 C 0.56963 0.89637 0.1628   -0.07428
 C 0.50471 0.87829 0.084   -0.063886
 C 0.53204 0.86896 0.0119   -0.037051
 C 0.54171 0.91149 0.2434   0.599508
 C 0.40005 0.69995 0.3614   0.156437
 C 0.39611 0.61029 0.3589   -0.204029
 C 0.48718 0.61222 0.3805   0.1169
 C 0.57911 0.70849 0.405   -0.210235
 C 0.5771 0.7963 0.407   0.157725
 C 0.48681 0.51699 0.3775   0.012446
 C 0.40599 0.43161 0.3897   -0.091402
 C 0.40765 0.34435 0.3883   -0.110632
 C 0.48958 0.33862 0.3749   0.021131
 C 0.56953 0.42287 0.3626   -0.088878
 C 0.56732 0.51048 0.363   -0.097362
 C 0.4914 0.2448 0.3739   0.128899
 C 0.40149 0.14571 0.3429   -0.201469
 C 0.40682 0.06058 0.3424   0.165129
 C 0.58301 0.16259 0.4002   0.170016
 C 0.58427 0.25133 0.403   -0.202738
 C 0.32555 0.90385 0.4474   0.62054
 C 0.21178 0.84482 0.44041   -0.113786
 C 0.17724 0.88816 0.4957   -0.038675
 C 0.07445 0.83455 0.49   -0.05296
 C 0.0062 0.7352 0.4303   -0.208941
 C 0.0387 0.6905 0.3769   -0.045557
 C 0.14208 0.74572 0.3809   -0.04744
 C 0.87636 0.62404 0.5165   -0.219005
 C 0.89108 0.68892 0.5945   -0.036484
 C 0.90202 0.66098 0.6667   -0.066081
 C 0.89637 0.56963 0.6628   -0.07428
 C 0.87829 0.50471 0.584   -0.06389
 C 0.86896 0.53204 0.5119   -0.037056
 C 0.91149 0.54171 0.7434   0.599475
 C 0.30005 0.59995 0.1386   0.156428
 C 0.38971 0.60389 0.1411   -0.204049
 C 0.38778 0.51282 0.1195   0.1169
 C 0.29151 0.42089 0.095   -0.210264
 C 0.2037 0.4229 0.093   0.157729
 C 0.48301 0.51319 0.1225   0.012443
 C 0.56839 0.59401 0.1103   -0.091426
 C 0.65565 0.59235 0.1117   -0.110627
 C 0.66138 0.51042 0.1251   0.021128
 C 0.57713 0.43047 0.1374   -0.08887
 C 0.48952 0.43268 0.137   -0.09735
 C 0.7552 0.5086 0.1261   0.128901
 C 0.85429 0.59851 0.1571   -0.201474
 C 0.93942 0.59318 0.1576   0.165136
 C 0.83741 0.41699 0.0998   0.170018
 C 0.74867 0.41573 0.097   -0.202738
 C 0.09615 0.67445 0.0526   0.620541
 C 0.15518 0.78822 0.05959   -0.113791
 C 0.11184 0.82276 0.0043   -0.038666
 C 0.16545 0.92555 0.01   -0.052971
 C 0.2648 0.9938 0.0697   -0.208936
 C 0.3095 0.9613 0.1231   -0.045559
 C 0.25428 0.85792 0.1191   -0.047434
 C 0.37596 0.12364 0.9835   -0.219
 C 0.31108 0.10892 0.9055   -0.036495
 C 0.33902 0.09798 0.8333   -0.066087
 C 0.43037 0.10363 0.8372   -0.074278
 C 0.49529 0.12171 0.916   -0.06389
 C 0.46796 0.13104 0.9881   -0.037057
 C 0.45829 0.08851 0.7566   0.599474
 S 0.12752 0.33602 0.57537   1.127014
 S 0.66398 0.87248 0.92463   1.127011
 S 0.87248 0.66398 0.42463   1.127012
 S 0.33602 0.12752 0.07537   1.127009
 N 0.51081 0.20631 0.61525   -0.262139
 N 0.50363 0.93287 0.6284   -0.273969
 N 0.79369 0.48919 0.88475   -0.26214
 N 0.06713 0.49637 0.8716   -0.273971
 N 0.48919 0.79369 0.38475   -0.262133
 N 0.49637 0.06713 0.3716   -0.273968
 N 0.20631 0.51081 0.11525   -0.262134
 N 0.93287 0.50363 0.1284   -0.273971
 O 0.61386 0.01164 0.49248   -0.584561
 O 0.64949 0.13577 0.60859   -0.528222
 O 0.16057 0.26623 0.565   -0.574014
 O 0.1849 0.4271 0.6502   -0.558344
 O 0.03546 0.38708 0.18633   -0.551189
 O 0.12919 0.55259 0.26163   -0.525973
 O 0.98836 0.38614 0.00752   -0.584561
 O 0.86423 0.35051 0.89141   -0.528221
 O 0.73377 0.83943 0.935   -0.574014
 O 0.5729 0.8151 0.8498   -0.558343
 O 0.61292 0.96454 0.31367   -0.551189
 O 0.44741 0.87081 0.23837   -0.525972
 O 0.38614 0.98836 0.50752   -0.58456
 O 0.35051 0.86423 0.39141   -0.528222
 O 0.83943 0.73377 0.435   -0.574014
 O 0.8151 0.5729 0.3498   -0.558342
 O 0.96454 0.61292 0.81367   -0.551185
 O 0.87081 0.44741 0.73837   -0.52597
 O 0.01164 0.61386 0.99248   -0.58456
 O 0.13577 0.64949 0.10859   -0.528221
 O 0.26623 0.16057 0.065   -0.574014
 O 0.4271 0.1849 0.1502   -0.558342
 O 0.38708 0.03546 0.68633   -0.551185
 O 0.55259 0.12919 0.76163   -0.525968
