{'_ref': 'TBD', '_srcid': 'CAKYAQ_clean', 'submitters': [{'name': 'Dalar Nazarian Jeff Camp and David Sholl', 'email': 'dalar@gatech.edu jcamp6@gatech.edu'}], '_method': 'VASP DFT with PBE;DDEC'}
data_Ba3U4P4H4C2(O7F3)2
_symmetry_space_group_name_H-M   'P 1'
_cell_length_a   11.92340023
_cell_length_b   11.92340032
_cell_length_c   12.67480000
_cell_angle_alpha   69.66369876
_cell_angle_beta   69.66369860
_cell_angle_gamma   88.94219771
_symmetry_Int_Tables_number   1
_chemical_formula_structural   Ba3U4P4H4C2(O7F3)2
_chemical_formula_sum   'Ba6 U8 P8 H8 C4 O28 F12'
_cell_volume   1573.54687019
_cell_formula_units_Z   2
loop_
 _symmetry_equiv_pos_site_id
 _symmetry_equiv_pos_as_xyz
  1  'x, y, z'
loop_
 _atom_site_label
 _atom_site_fract_x
 _atom_site_fract_y
 _atom_site_fract_z
 _atom_site_charge
 Ba 0.91363 0.52175 0.17176   1.510217
 Ba 0.47825 0.08637 0.32824   1.510217
 Ba 0.08637 0.47825 0.82824   1.510221
 Ba 0.52175 0.91363 0.67176   1.510221
 Ba 0.86269 0.13731 0.25   1.721457
 Ba 0.13731 0.86269 0.75   1.721457
 U 0.71343 0.39397 0.02756   1.428781
 U 0.86168 0.86887 0.601   1.9889
 U 0.60603 0.28657 0.47244   1.428785
 U 0.13113 0.13832 0.899   1.988902
 U 0.28657 0.60603 0.97244   1.428782
 U 0.13832 0.13113 0.399   1.988903
 U 0.39397 0.71343 0.52756   1.428787
 U 0.86887 0.86168 0.101   1.988905
 P 0.38299 0.33495 0.13488   1.681466
 P 0.15897 0.29781 0.09309   1.702295
 P 0.66505 0.61701 0.36512   1.681467
 P 0.70219 0.84103 0.40691   1.702295
 P 0.61701 0.66505 0.86512   1.681466
 P 0.84103 0.70219 0.90691   1.702294
 P 0.33495 0.38299 0.63488   1.681467
 P 0.29781 0.15897 0.59309   1.702295
 H 0.325 0.1942 0.0699   0.237305
 H 0.3567 0.3217 0.9666   0.233696
 H 0.8058 0.675 0.4301   0.237305
 H 0.6783 0.6433 0.5334   0.233696
 H 0.675 0.8058 0.9301   0.237305
 H 0.6433 0.6783 0.0334   0.233696
 H 0.1942 0.325 0.5699   0.237305
 H 0.3217 0.3567 0.4666   0.233696
 C 0.31554 0.27892 0.05259   -1.022883
 C 0.72108 0.68446 0.44741   -1.022883
 C 0.68446 0.72108 0.94741   -1.022883
 C 0.27892 0.31554 0.55259   -1.022883
 O 0.14055 0.42763 0.08118   -0.997372
 O 0.37166 0.46906 0.09934   -0.843316
 O 0.77979 0.97633 0.65532   -0.888703
 O 0.09281 0.21185 0.22399   -0.98381
 O 0.30951 0.26431 0.26953   -0.961354
 O 0.51219 0.30509 0.10708   -0.920274
 O 0.11197 0.26373 0.009   -0.965849
 O 0.57237 0.85945 0.41882   -0.997373
 O 0.53094 0.62834 0.40066   -0.843316
 O 0.02367 0.22021 0.84468   -0.888703
 O 0.78815 0.90719 0.27601   -0.98381
 O 0.73569 0.69049 0.23047   -0.961354
 O 0.69491 0.48781 0.39292   -0.920275
 O 0.73627 0.88803 0.491   -0.965849
 O 0.85945 0.57237 0.91882   -0.997372
 O 0.62834 0.53094 0.90066   -0.843316
 O 0.22021 0.02367 0.34468   -0.888703
 O 0.90719 0.78815 0.77601   -0.983809
 O 0.69049 0.73569 0.73047   -0.961354
 O 0.48781 0.69491 0.89292   -0.920274
 O 0.88803 0.73627 0.991   -0.965849
 O 0.42763 0.14055 0.58118   -0.997373
 O 0.46906 0.37166 0.59934   -0.843316
 O 0.97633 0.77979 0.15532   -0.888703
 O 0.21185 0.09281 0.72399   -0.98381
 O 0.26431 0.30951 0.76953   -0.961354
 O 0.30509 0.51219 0.60708   -0.920275
 O 0.26373 0.11197 0.509   -0.965849
 F 0.89185 0.36465 0.06631   -0.667847
 F 0.79647 0.30933 0.32771   -0.731178
 F 0.95801 0.02885 0.41673   -0.660808
 F 0.63535 0.10815 0.43369   -0.667847
 F 0.69067 0.20353 0.17229   -0.731178
 F 0.97115 0.04199 0.08327   -0.660808
 F 0.10815 0.63535 0.93369   -0.667847
 F 0.20353 0.69067 0.67229   -0.731179
 F 0.04199 0.97115 0.58327   -0.660808
 F 0.36465 0.89185 0.56631   -0.667847
 F 0.30933 0.79647 0.82771   -0.731178
 F 0.02885 0.95801 0.91673   -0.660808
