{'_ref': 'TBD', '_srcid': 'CAKYAQ_clean', 'submitters': [{'name': 'Dalar Nazarian Jeff Camp and David Sholl', 'email': 'dalar@gatech.edu jcamp6@gatech.edu'}], '_method': 'VASP DFT with PBE;DDEC'}
data_CuH13C7N2ClO3
_symmetry_space_group_name_H-M   'P 1'
_cell_length_a   8.67770000
_cell_length_b   15.91499974
_cell_length_c   15.91500000
_cell_angle_alpha   120.00000054
_cell_angle_beta   90.00000000
_cell_angle_gamma   90.00000000
_symmetry_Int_Tables_number   1
_chemical_formula_structural   CuH13C7N2ClO3
_chemical_formula_sum   'Cu6 H78 C42 N12 Cl6 O18'
_cell_volume   1903.48097302
_cell_formula_units_Z   6
loop_
 _symmetry_equiv_pos_site_id
 _symmetry_equiv_pos_as_xyz
  1  'x, y, z'
loop_
 _atom_site_label
 _atom_site_fract_x
 _atom_site_fract_y
 _atom_site_fract_z
 _atom_site_charge
 Cu 0.89 0.38141 0.59095   0.815226
 Cu 0.22333 0.20954 0.61859   0.816178
 Cu 0.55667 0.40905 0.79046   0.815626
 Cu 0.89 0.61859 0.40905   0.815226
 Cu 0.22333 0.79046 0.38141   0.816178
 Cu 0.55667 0.59095 0.20954   0.815626
 H 0.5884 0.8742 0.0955   0.093676
 H 0.5803 0.8528 0.1815   0.139456
 H 0.4303 0.848 0.1243   0.107244
 H 0.1653 0.5186 0.769   0.138202
 H 0.1833 0.6052 0.8754   0.110344
 H 0.2421 0.5016 0.8484   0.14305
 H 0.3148 0.615 0.7048   0.166507
 H 0.4824 0.6504 0.7427   0.122987
 H 0.3406 0.7022 0.81   0.090578
 H 0.418 0.733 0.931   0.283469
 H 0.67 0.719 0.04   0.070133
 H 0.4014 0.4433 0.6781   0.362391
 H 0.559 0.5069 0.7306   0.315245
 H 0.92173 0.2213 0.1258   0.093574
 H 0.91363 0.3287 0.1472   0.139011
 H 0.76363 0.2763 0.152   0.106986
 H 0.49863 0.2504 0.4814   0.138182
 H 0.51663 0.2702 0.3948   0.110312
 H 0.57543 0.3468 0.4984   0.142912
 H 0.64813 0.0898 0.385   0.1669
 H 0.81573 0.0923 0.3496   0.123138
 H 0.67393 0.1078 0.2978   0.090676
 H 0.75133 0.198 0.267   0.283418
 H 0.00333 0.321 0.281   0.070871
 H 0.73473 0.2348 0.5567   0.361724
 H 0.89233 0.2237 0.4931   0.314449
 H 0.25507 0.9045 0.7787   0.093596
 H 0.24697 0.8185 0.6713   0.13937
 H 0.09697 0.8757 0.7237   0.107176
 H 0.83197 0.231 0.7496   0.137975
 H 0.84997 0.1246 0.7298   0.110712
 H 0.90877 0.1516 0.6532   0.142502
 H 0.98147 0.2952 0.9102   0.166415
 H 0.14907 0.2573 0.9077   0.122912
 H 0.00727 0.19 0.8922   0.090447
 H 0.08467 0.069 0.802   0.282861
 H 0.33667 0.96 0.679   0.070516
 H 0.06807 0.3219 0.7652   0.361961
 H 0.22567 0.2694 0.7763   0.315163
 H 0.5884 0.1258 0.9045   0.093683
 H 0.5803 0.1472 0.8185   0.139458
 H 0.4303 0.152 0.8757   0.107246
 H 0.1653 0.4814 0.231   0.138202
 H 0.1833 0.3948 0.1246   0.110346
 H 0.2421 0.4984 0.1516   0.143051
 H 0.3148 0.385 0.2952   0.16651
 H 0.4824 0.3496 0.2573   0.122988
 H 0.3406 0.2978 0.19   0.090579
 H 0.418 0.267 0.069   0.283471
 H 0.67 0.281 0.96   0.070135
 H 0.4014 0.5567 0.3219   0.362391
 H 0.559 0.4931 0.2694   0.315245
 H 0.92173 0.7787 0.8742   0.093582
 H 0.91363 0.6713 0.8528   0.139014
 H 0.76363 0.7237 0.848   0.106988
 H 0.49863 0.7496 0.5186   0.138182
 H 0.51663 0.7298 0.6052   0.110314
 H 0.57543 0.6532 0.5016   0.142913
 H 0.64813 0.9102 0.615   0.166902
 H 0.81573 0.9077 0.6504   0.123139
 H 0.67393 0.8922 0.7022   0.090678
 H 0.75133 0.802 0.733   0.28342
 H 0.00333 0.679 0.719   0.070873
 H 0.73473 0.7652 0.4433   0.361724
 H 0.89233 0.7763 0.5069   0.314449
 H 0.25507 0.0955 0.2213   0.093604
 H 0.24697 0.1815 0.3287   0.139372
 H 0.09697 0.1243 0.2763   0.107178
 H 0.83197 0.769 0.2504   0.137975
 H 0.84997 0.8754 0.2702   0.110715
 H 0.90877 0.8484 0.3468   0.142503
 H 0.98147 0.7048 0.0898   0.166417
 H 0.14907 0.7427 0.0923   0.122913
 H 0.00727 0.81 0.1078   0.090449
 H 0.08467 0.931 0.198   0.282863
 H 0.33667 0.04 0.321   0.070517
 H 0.06807 0.6781 0.2348   0.361961
 H 0.22567 0.7306 0.2237   0.315162
 C 0.5177 0.3313 0.9066   0.58848
 C 0.569 0.2717 0.9519   0.128685
 C 0.5392 0.8358 0.1189   -0.354157
 C 0.4886 0.3945 0.1114   0.448991
 C 0.3886 0.5704 0.7996   0.225801
 C 0.2299 0.5467 0.8255   -0.393544
 C 0.3809 0.6411 0.7606   -0.390823
 C 0.85103 0.5753 0.6687   0.58879
 C 0.90233 0.6802 0.7283   0.127614
 C 0.87253 0.2831 0.1642   -0.353186
 C 0.82193 0.7169 0.6055   0.450611
 C 0.72193 0.2292 0.4296   0.224415
 C 0.56323 0.2788 0.4533   -0.393212
 C 0.71423 0.1195 0.3589   -0.391222
 C 0.18437 0.0934 0.4247   0.588849
 C 0.23567 0.0481 0.3198   0.127908
 C 0.20587 0.8811 0.7169   -0.353821
 C 0.15527 0.8886 0.2831   0.449718
 C 0.05527 0.2004 0.7708   0.225414
 C 0.89657 0.1745 0.7212   -0.393035
 C 0.04757 0.2394 0.8805   -0.390238
 C 0.5177 0.6687 0.0934   0.58848
 C 0.569 0.7283 0.0481   0.128684
 C 0.5392 0.1642 0.8811   -0.354161
 C 0.4886 0.6055 0.8886   0.44899
 C 0.3886 0.4296 0.2004   0.225801
 C 0.2299 0.4533 0.1745   -0.393545
 C 0.3809 0.3589 0.2394   -0.390825
 C 0.85103 0.4247 0.3313   0.58879
 C 0.90233 0.3198 0.2717   0.127613
 C 0.87253 0.7169 0.8358   -0.353191
 C 0.82193 0.2831 0.3945   0.450609
 C 0.72193 0.7708 0.5704   0.224415
 C 0.56323 0.7212 0.5467   -0.393213
 C 0.71423 0.8805 0.6411   -0.391224
 C 0.18437 0.9066 0.5753   0.588848
 C 0.23567 0.9519 0.6802   0.127907
 C 0.20587 0.1189 0.2831   -0.353826
 C 0.15527 0.1114 0.7169   0.449717
 C 0.05527 0.7996 0.2292   0.225413
 C 0.89657 0.8255 0.2788   -0.393036
 C 0.04757 0.7606 0.1195   -0.39024
 N 0.4621 0.4763 0.7269   -0.697327
 N 0.4843 0.3026 0.0432   -0.428482
 N 0.79543 0.2506 0.5237   -0.695606
 N 0.81763 0.7406 0.6974   -0.429263
 N 0.12877 0.2731 0.7494   -0.6975
 N 0.15097 0.9568 0.2594   -0.427974
 N 0.4621 0.5237 0.2731   -0.697326
 N 0.4843 0.6974 0.9568   -0.428481
 N 0.79543 0.7494 0.4763   -0.695606
 N 0.81763 0.2594 0.3026   -0.429262
 N 0.12877 0.7269 0.2506   -0.697499
 N 0.15097 0.0432 0.7406   -0.427973
 Cl 0.8446 0.41507 0.74663   -0.512332
 Cl 0.17793 0.33156 0.58493   -0.512475
 Cl 0.51127 0.25337 0.66844   -0.512383
 Cl 0.8446 0.58493 0.25337   -0.512332
 Cl 0.17793 0.66844 0.41507   -0.512475
 Cl 0.51127 0.74663 0.33156   -0.512383
 O 0.629 0.3589 0.8722   -0.551439
 O 0.5666 0.4536 0.0999   -0.432996
 O 0.3798 0.3459 0.9004   -0.589704
 O 0.96233 0.5133 0.6411   -0.551431
 O 0.89993 0.6463 0.5464   -0.432923
 O 0.71313 0.5545 0.6541   -0.589709
 O 0.29567 0.1278 0.4867   -0.551505
 O 0.23327 0.9001 0.3537   -0.433255
 O 0.04647 0.0996 0.4455   -0.589827
 O 0.629 0.6411 0.1278   -0.551438
 O 0.5666 0.5464 0.9001   -0.432996
 O 0.3798 0.6541 0.0996   -0.589703
 O 0.96233 0.4867 0.3589   -0.55143
 O 0.89993 0.3537 0.4536   -0.432923
 O 0.71313 0.4455 0.3459   -0.589709
 O 0.29567 0.8722 0.5133   -0.551504
 O 0.23327 0.0999 0.6463   -0.433255
 O 0.04647 0.9004 0.5545   -0.589827
