{'_ref': 'TBD', '_srcid': 'CAKYAQ_clean', 'submitters': [{'name': 'Dalar Nazarian Jeff Camp and David Sholl', 'email': 'dalar@gatech.edu jcamp6@gatech.edu'}], '_method': 'VASP DFT with PBE;DDEC'}
data_LaH6(C4O3)3
_symmetry_space_group_name_H-M   'P 1'
_cell_length_a   6.81049970
_cell_length_b   13.19000002
_cell_length_c   16.38080000
_cell_angle_alpha   113.74099826
_cell_angle_beta   100.53200167
_cell_angle_gamma   89.99999971
_symmetry_Int_Tables_number   1
_chemical_formula_structural   LaH6(C4O3)3
_chemical_formula_sum   'La4 H24 C48 O36'
_cell_volume   1319.84244461
_cell_formula_units_Z   4
loop_
 _symmetry_equiv_pos_site_id
 _symmetry_equiv_pos_as_xyz
  1  'x, y, z'
loop_
 _atom_site_label
 _atom_site_fract_x
 _atom_site_fract_y
 _atom_site_fract_z
 _atom_site_charge
 La 0.27209 0.30203 0.1976   2.208794
 La 0.22791 0.10443 0.8024   2.208719
 La 0.72791 0.69797 0.8024   2.208775
 La 0.77209 0.89557 0.1976   2.208701
 H 0.1907 0.4337 0.3914   0.403334
 H 0.5053 0.2194 0.6544   0.394053
 H 0.2467 0.5197 0.1868   0.386452
 H 0.3639 0.4629 0.5322   0.130735
 H 0.2829 0.0825 0.4396   0.134703
 H 0.8579 0.3545 0.865   0.143491
 H 0.3093 0.0423 0.6086   0.402174
 H 0.9947 0.565 0.3456   0.395062
 H 0.2533 0.3329 0.8132   0.387633
 H 0.1361 0.9307 0.4678   0.130539
 H 0.2171 0.6429 0.5604   0.134758
 H 0.6421 0.4895 0.135   0.143609
 H 0.8093 0.5663 0.6086   0.403334
 H 0.4947 0.7806 0.3456   0.394053
 H 0.7533 0.4803 0.8132   0.386453
 H 0.6361 0.5371 0.4678   0.130736
 H 0.7171 0.9175 0.5604   0.134703
 H 0.1421 0.6455 0.135   0.143491
 H 0.6907 0.9577 0.3914   0.402175
 H 0.0053 0.435 0.6544   0.395062
 H 0.7467 0.6671 0.1868   0.387633
 H 0.8639 0.0693 0.5322   0.13054
 H 0.7829 0.3571 0.4396   0.134759
 H 0.3579 0.5105 0.865   0.143608
 C 0.2333 0.20418 0.39536   -0.236571
 C 0.259 0.32035 0.4249   0.323147
 C 0.3488 0.38624 0.51348   -0.163811
 C 0.4179 0.34044 0.57608   -0.232834
 C 0.3899 0.22561 0.54742   0.296353
 C 0.2995 0.15897 0.45794   -0.136424
 C 0.1359 0.12672 0.30004   0.790088
 C 0.525 0.41462 0.67024   0.707172
 C 0.0032 0.3896 0.9926   -0.249026
 C 0.0898 0.47922 0.07524   0.346674
 C 0.9154 0.41293 0.91946   -0.14816
 C 0.0121 0.27108 0.97816   0.789011
 C 0.2667 0.80882 0.60464   -0.237306
 C 0.241 0.89545 0.5751   0.323329
 C 0.1512 0.87276 0.48652   -0.164318
 C 0.0821 0.76436 0.42392   -0.231524
 C 0.1101 0.67819 0.45258   0.295636
 C 0.2005 0.70103 0.54206   -0.135957
 C 0.3641 0.82668 0.69996   0.791223
 C 0.975 0.74438 0.32976   0.707245
 C 0.4968 0.397 0.0074   -0.249657
 C 0.4102 0.40398 0.92476   0.346693
 C 0.5846 0.49347 0.08054   -0.14762
 C 0.4879 0.29292 0.02184   0.789097
 C 0.7667 0.79582 0.60464   -0.236571
 C 0.741 0.67965 0.5751   0.323147
 C 0.6512 0.61376 0.48652   -0.163811
 C 0.5821 0.65956 0.42392   -0.232835
 C 0.6101 0.77439 0.45258   0.296353
 C 0.7005 0.84103 0.54206   -0.136424
 C 0.8641 0.87328 0.69996   0.790088
 C 0.475 0.58538 0.32976   0.707173
 C 0.9968 0.6104 0.0074   -0.249028
 C 0.9102 0.52078 0.92476   0.346679
 C 0.0846 0.58707 0.08054   -0.148153
 C 0.9879 0.72892 0.02184   0.789011
 C 0.7333 0.19118 0.39536   -0.237306
 C 0.759 0.10455 0.4249   0.323329
 C 0.8488 0.12724 0.51348   -0.164318
 C 0.9179 0.23564 0.57608   -0.231524
 C 0.8899 0.32181 0.54742   0.295636
 C 0.7995 0.29897 0.45794   -0.135957
 C 0.6359 0.17332 0.30004   0.791223
 C 0.025 0.25562 0.67024   0.707245
 C 0.5032 0.603 0.9926   -0.249659
 C 0.5898 0.59602 0.07524   0.346699
 C 0.4154 0.50653 0.91946   -0.147612
 C 0.5121 0.70708 0.97816   0.789096
 O 0.1201 0.15989 0.2371   -0.745182
 O 0.0733 0.03055 0.2874   -0.692744
 O 0.5999 0.36836 0.72212   -0.586315
 O 0.5383 0.51759 0.69276   -0.705872
 O 0.1895 0.36608 0.36402   -0.596214
 O 0.4475 0.17354 0.6045   -0.501353
 O 0.0593 0.24499 0.04488   -0.730456
 O 0.9721 0.19866 0.89626   -0.706817
 O 0.1842 0.4619 0.14876   -0.622247
 O 0.3799 0.92279 0.7629   -0.745336
 O 0.4267 0.74315 0.7126   -0.693331
 O 0.9001 0.64624 0.27788   -0.586455
 O 0.9617 0.82483 0.30724   -0.706319
 O 0.3105 0.00206 0.63598   -0.59485
 O 0.0525 0.56904 0.3955   -0.50216
 O 0.4407 0.20011 0.95512   -0.730727
 O 0.5279 0.3024 0.10374   -0.706567
 O 0.3158 0.31314 0.85124   -0.623567
 O 0.8799 0.84011 0.7629   -0.745182
 O 0.9267 0.96945 0.7126   -0.692745
 O 0.4001 0.63164 0.27788   -0.586315
 O 0.4617 0.48241 0.30724   -0.705873
 O 0.8105 0.63392 0.63598   -0.596213
 O 0.5525 0.82646 0.3955   -0.501353
 O 0.9407 0.75501 0.95512   -0.730456
 O 0.0279 0.80134 0.10374   -0.706816
 O 0.8158 0.5381 0.85124   -0.622246
 O 0.6201 0.07721 0.2371   -0.745335
 O 0.5733 0.25685 0.2874   -0.693332
 O 0.0999 0.35376 0.72212   -0.586455
 O 0.0383 0.17517 0.69276   -0.70632
 O 0.6895 0.99794 0.36402   -0.59485
 O 0.9475 0.43096 0.6045   -0.50216
 O 0.5593 0.79989 0.04488   -0.730726
 O 0.4721 0.6976 0.89626   -0.706566
 O 0.6842 0.68686 0.14876   -0.623567
