{'_ref': 'TBD', '_srcid': 'CAKYAQ_clean', 'submitters': [{'name': 'Dalar Nazarian Jeff Camp and David Sholl', 'email': 'dalar@gatech.edu jcamp6@gatech.edu'}], '_method': 'VASP DFT with PBE;DDEC'}
data_H6PdC8(N2O)2
_symmetry_space_group_name_H-M   'P 1'
_cell_length_a   16.27920000
_cell_length_b   16.27920000
_cell_length_c   16.27920000
_cell_angle_alpha   90.00000000
_cell_angle_beta   90.00000000
_cell_angle_gamma   90.00000000
_symmetry_Int_Tables_number   1
_chemical_formula_structural   H6PdC8(N2O)2
_chemical_formula_sum   'H72 Pd12 C96 N48 O24'
_cell_volume   4314.1890911
_cell_formula_units_Z   12
loop_
 _symmetry_equiv_pos_site_id
 _symmetry_equiv_pos_as_xyz
  1  'x, y, z'
loop_
 _atom_site_label
 _atom_site_fract_x
 _atom_site_fract_y
 _atom_site_fract_z
 _atom_site_charge
 H 0.4194 0.2457 0.5928   0.105895
 H 0.0806 0.2543 0.5928   0.105895
 H 0.0806 0.2457 0.9072   0.105895
 H 0.4194 0.2543 0.9072   0.105895
 H 0.5928 0.4194 0.2457   0.105896
 H 0.5928 0.0806 0.2543   0.105896
 H 0.9072 0.0806 0.2457   0.105896
 H 0.9072 0.4194 0.2543   0.105896
 H 0.2457 0.5928 0.4194   0.105896
 H 0.2543 0.5928 0.0806   0.105896
 H 0.2457 0.9072 0.0806   0.105896
 H 0.2543 0.9072 0.4194   0.105896
 H 0.7457 0.9194 0.4072   0.105895
 H 0.7543 0.5806 0.4072   0.105895
 H 0.7457 0.5806 0.0928   0.105895
 H 0.7543 0.9194 0.0928   0.105895
 H 0.9194 0.0928 0.7543   0.105896
 H 0.5806 0.0928 0.7457   0.105896
 H 0.5806 0.4072 0.7543   0.105896
 H 0.9194 0.4072 0.7457   0.105896
 H 0.0928 0.7457 0.5806   0.105896
 H 0.0928 0.7543 0.9194   0.105896
 H 0.4072 0.7457 0.9194   0.105896
 H 0.4072 0.7543 0.5806   0.105896
 H 0.5806 0.7543 0.4072   0.105897
 H 0.9194 0.7457 0.4072   0.105897
 H 0.9194 0.7543 0.0928   0.105897
 H 0.5806 0.7457 0.0928   0.105897
 H 0.4072 0.5806 0.7543   0.105897
 H 0.4072 0.9194 0.7457   0.105897
 H 0.0928 0.9194 0.7543   0.105897
 H 0.0928 0.5806 0.7457   0.105897
 H 0.7543 0.4072 0.5806   0.105897
 H 0.7457 0.4072 0.9194   0.105897
 H 0.7543 0.0928 0.9194   0.105897
 H 0.7457 0.0928 0.5806   0.105897
 H 0.2543 0.0806 0.5928   0.105897
 H 0.2457 0.4194 0.5928   0.105897
 H 0.2543 0.4194 0.9072   0.105897
 H 0.2457 0.0806 0.9072   0.105897
 H 0.0806 0.9072 0.2457   0.105897
 H 0.4194 0.9072 0.2543   0.105897
 H 0.4194 0.5928 0.2457   0.105897
 H 0.0806 0.5928 0.2543   0.105897
 H 0.9072 0.2543 0.4194   0.105897
 H 0.9072 0.2457 0.0806   0.105897
 H 0.5928 0.2543 0.0806   0.105897
 H 0.5928 0.2457 0.4194   0.105897
 H 0.31116 0.31116 0.52856   0.142716
 H 0.18884 0.18884 0.52856   0.142718
 H 0.18884 0.31116 0.97144   0.142716
 H 0.31116 0.18884 0.97144   0.142718
 H 0.52856 0.31116 0.31116   0.142717
 H 0.52856 0.18884 0.18884   0.142719
 H 0.97144 0.18884 0.31116   0.142717
 H 0.97144 0.31116 0.18884   0.142719
 H 0.31116 0.52856 0.31116   0.142719
 H 0.18884 0.52856 0.18884   0.14272
 H 0.31116 0.97144 0.18884   0.142719
 H 0.18884 0.97144 0.31116   0.14272
 H 0.81116 0.81116 0.47144   0.142716
 H 0.68884 0.68884 0.47144   0.142718
 H 0.81116 0.68884 0.02856   0.142716
 H 0.68884 0.81116 0.02856   0.142718
 H 0.81116 0.02856 0.68884   0.142717
 H 0.68884 0.02856 0.81116   0.142719
 H 0.68884 0.47144 0.68884   0.142717
 H 0.81116 0.47144 0.81116   0.142719
 H 0.02856 0.81116 0.68884   0.142719
 H 0.02856 0.68884 0.81116   0.14272
 H 0.47144 0.81116 0.81116   0.142719
 H 0.47144 0.68884 0.68884   0.14272
 Pd 0.5 0.25 0.75   0.506294
 Pd 0.0 0.25 0.75   0.506294
 Pd 0.75 0.5 0.25   0.506294
 Pd 0.75 0.0 0.25   0.506294
 Pd 0.25 0.75 0.5   0.506294
 Pd 0.25 0.75 0.0   0.506294
 Pd 0.5 0.75 0.25   0.506294
 Pd 0.0 0.75 0.25   0.506294
 Pd 0.25 0.5 0.75   0.506294
 Pd 0.25 0.0 0.75   0.506294
 Pd 0.75 0.25 0.5   0.506294
 Pd 0.75 0.25 0.0   0.506294
 C 0.39253 0.29033 0.61911   0.206529
 C 0.10747 0.20967 0.61911   0.206529
 C 0.10747 0.29033 0.88089   0.206529
 C 0.39253 0.20967 0.88089   0.206529
 C 0.61911 0.39253 0.29033   0.206529
 C 0.61911 0.10747 0.20967   0.206529
 C 0.88089 0.10747 0.29033   0.206529
 C 0.88089 0.39253 0.20967   0.206529
 C 0.29033 0.61911 0.39253   0.206529
 C 0.20967 0.61911 0.10747   0.206529
 C 0.29033 0.88089 0.10747   0.206529
 C 0.20967 0.88089 0.39253   0.206529
 C 0.79033 0.89253 0.38089   0.206529
 C 0.70967 0.60747 0.38089   0.206529
 C 0.79033 0.60747 0.11911   0.206529
 C 0.70967 0.89253 0.11911   0.206529
 C 0.89253 0.11911 0.70967   0.206529
 C 0.60747 0.11911 0.79033   0.206529
 C 0.60747 0.38089 0.70967   0.206529
 C 0.89253 0.38089 0.79033   0.206529
 C 0.11911 0.79033 0.60747   0.206529
 C 0.11911 0.70967 0.89253   0.206529
 C 0.38089 0.79033 0.89253   0.206529
 C 0.38089 0.70967 0.60747   0.206529
 C 0.60747 0.70967 0.38089   0.206528
 C 0.89253 0.79033 0.38089   0.206528
 C 0.89253 0.70967 0.11911   0.206528
 C 0.60747 0.79033 0.11911   0.206528
 C 0.38089 0.60747 0.70967   0.206528
 C 0.38089 0.89253 0.79033   0.206528
 C 0.11911 0.89253 0.70967   0.206528
 C 0.11911 0.60747 0.79033   0.206528
 C 0.70967 0.38089 0.60747   0.206528
 C 0.79033 0.38089 0.89253   0.206528
 C 0.70967 0.11911 0.89253   0.206528
 C 0.79033 0.11911 0.60747   0.206528
 C 0.20967 0.10747 0.61911   0.206528
 C 0.29033 0.39253 0.61911   0.206528
 C 0.20967 0.39253 0.88089   0.206528
 C 0.29033 0.10747 0.88089   0.206528
 C 0.10747 0.88089 0.29033   0.206529
 C 0.39253 0.88089 0.20967   0.206528
 C 0.39253 0.61911 0.29033   0.206528
 C 0.10747 0.61911 0.20967   0.206529
 C 0.88089 0.20967 0.39253   0.206528
 C 0.88089 0.29033 0.10747   0.206529
 C 0.61911 0.20967 0.10747   0.206529
 C 0.61911 0.29033 0.39253   0.206528
 C 0.37944 0.37944 0.73227   0.645529
 C 0.32884 0.32884 0.58129   -0.337156
 C 0.12056 0.12056 0.73227   0.645529
 C 0.17116 0.17116 0.58129   -0.337157
 C 0.12056 0.37944 0.76773   0.645529
 C 0.17116 0.32884 0.91871   -0.337156
 C 0.37944 0.12056 0.76773   0.645529
 C 0.32884 0.17116 0.91871   -0.337157
 C 0.73227 0.37944 0.37944   0.645529
 C 0.58129 0.32884 0.32884   -0.337156
 C 0.73227 0.12056 0.12056   0.645529
 C 0.58129 0.17116 0.17116   -0.337157
 C 0.76773 0.12056 0.37944   0.645529
 C 0.91871 0.17116 0.32884   -0.337156
 C 0.76773 0.37944 0.12056   0.645529
 C 0.91871 0.32884 0.17116   -0.337157
 C 0.37944 0.73227 0.37944   0.645529
 C 0.32884 0.58129 0.32884   -0.337156
 C 0.12056 0.73227 0.12056   0.645529
 C 0.17116 0.58129 0.17116   -0.337157
 C 0.37944 0.76773 0.12056   0.645529
 C 0.32884 0.91871 0.17116   -0.337156
 C 0.12056 0.76773 0.37944   0.645529
 C 0.17116 0.91871 0.32884   -0.337157
 C 0.87944 0.87944 0.26773   0.645529
 C 0.82884 0.82884 0.41871   -0.337156
 C 0.62056 0.62056 0.26773   0.645529
 C 0.67116 0.67116 0.41871   -0.337157
 C 0.87944 0.62056 0.23227   0.645529
 C 0.82884 0.67116 0.08129   -0.337156
 C 0.62056 0.87944 0.23227   0.645529
 C 0.67116 0.82884 0.08129   -0.337157
 C 0.87944 0.23227 0.62056   0.645529
 C 0.82884 0.08129 0.67116   -0.337156
 C 0.62056 0.23227 0.87944   0.645529
 C 0.67116 0.08129 0.82884   -0.337157
 C 0.62056 0.26773 0.62056   0.645529
 C 0.67116 0.41871 0.67116   -0.337156
 C 0.87944 0.26773 0.87944   0.645529
 C 0.82884 0.41871 0.82884   -0.337157
 C 0.23227 0.87944 0.62056   0.645529
 C 0.08129 0.82884 0.67116   -0.337156
 C 0.23227 0.62056 0.87944   0.645529
 C 0.08129 0.67116 0.82884   -0.337157
 C 0.26773 0.87944 0.87944   0.645529
 C 0.41871 0.82884 0.82884   -0.337156
 C 0.26773 0.62056 0.62056   0.645529
 C 0.41871 0.67116 0.67116   -0.337157
 N 0.41809 0.31561 0.69445   -0.367907
 N 0.08191 0.18439 0.69445   -0.367907
 N 0.08191 0.31561 0.80555   -0.367907
 N 0.41809 0.18439 0.80555   -0.367907
 N 0.69445 0.41809 0.31561   -0.367907
 N 0.69445 0.08191 0.18439   -0.367907
 N 0.80555 0.08191 0.31561   -0.367907
 N 0.80555 0.41809 0.18439   -0.367907
 N 0.31561 0.69445 0.41809   -0.367907
 N 0.18439 0.69445 0.08191   -0.367907
 N 0.31561 0.80555 0.08191   -0.367907
 N 0.18439 0.80555 0.41809   -0.367907
 N 0.81561 0.91809 0.30555   -0.367907
 N 0.68439 0.58191 0.30555   -0.367907
 N 0.81561 0.58191 0.19445   -0.367907
 N 0.68439 0.91809 0.19445   -0.367907
 N 0.91809 0.19445 0.68439   -0.367907
 N 0.58191 0.19445 0.81561   -0.367907
 N 0.58191 0.30555 0.68439   -0.367907
 N 0.91809 0.30555 0.81561   -0.367907
 N 0.19445 0.81561 0.58191   -0.367907
 N 0.19445 0.68439 0.91809   -0.367907
 N 0.30555 0.81561 0.91809   -0.367907
 N 0.30555 0.68439 0.58191   -0.367907
 N 0.58191 0.68439 0.30555   -0.367907
 N 0.91809 0.81561 0.30555   -0.367907
 N 0.91809 0.68439 0.19445   -0.367907
 N 0.58191 0.81561 0.19445   -0.367907
 N 0.30555 0.58191 0.68439   -0.367907
 N 0.30555 0.91809 0.81561   -0.367907
 N 0.19445 0.91809 0.68439   -0.367907
 N 0.19445 0.58191 0.81561   -0.367907
 N 0.68439 0.30555 0.58191   -0.367907
 N 0.81561 0.30555 0.91809   -0.367907
 N 0.68439 0.19445 0.91809   -0.367907
 N 0.81561 0.19445 0.58191   -0.367907
 N 0.18439 0.08191 0.69445   -0.367907
 N 0.31561 0.41809 0.69445   -0.367907
 N 0.18439 0.41809 0.80555   -0.367907
 N 0.31561 0.08191 0.80555   -0.367907
 N 0.08191 0.80555 0.31561   -0.367907
 N 0.41809 0.80555 0.18439   -0.367907
 N 0.41809 0.69445 0.31561   -0.367907
 N 0.08191 0.69445 0.18439   -0.367907
 N 0.80555 0.18439 0.41809   -0.367907
 N 0.80555 0.31561 0.08191   -0.367907
 N 0.69445 0.18439 0.08191   -0.367907
 N 0.69445 0.31561 0.41809   -0.367907
 O 0.4027 0.4027 0.80165   -0.593274
 O 0.0973 0.0973 0.80165   -0.593274
 O 0.0973 0.4027 0.69835   -0.593274
 O 0.4027 0.0973 0.69835   -0.593274
 O 0.80165 0.4027 0.4027   -0.593274
 O 0.80165 0.0973 0.0973   -0.593274
 O 0.69835 0.0973 0.4027   -0.593274
 O 0.69835 0.4027 0.0973   -0.593274
 O 0.4027 0.80165 0.4027   -0.593274
 O 0.0973 0.80165 0.0973   -0.593274
 O 0.4027 0.69835 0.0973   -0.593274
 O 0.0973 0.69835 0.4027   -0.593274
 O 0.9027 0.9027 0.19835   -0.593273
 O 0.5973 0.5973 0.19835   -0.593273
 O 0.9027 0.5973 0.30165   -0.593273
 O 0.5973 0.9027 0.30165   -0.593273
 O 0.9027 0.30165 0.5973   -0.593273
 O 0.5973 0.30165 0.9027   -0.593273
 O 0.5973 0.19835 0.5973   -0.593273
 O 0.9027 0.19835 0.9027   -0.593273
 O 0.30165 0.9027 0.5973   -0.593273
 O 0.30165 0.5973 0.9027   -0.593273
 O 0.19835 0.9027 0.9027   -0.593273
 O 0.19835 0.5973 0.5973   -0.593273
