{'_ref': 'TBD', '_srcid': 'CAKYAQ_clean', 'submitters': [{'name': 'Dalar Nazarian Jeff Camp and David Sholl', 'email': 'dalar@gatech.edu jcamp6@gatech.edu'}], '_method': 'VASP DFT with PBE;DDEC'}
data_Mn3H61C64(N2O3)4
_symmetry_space_group_name_H-M   'P 1'
_cell_length_a   9.77700000
_cell_length_b   9.77700016
_cell_length_c   33.61100000
_cell_angle_alpha   90.00000000
_cell_angle_beta   90.00000000
_cell_angle_gamma   90.34099892
_symmetry_Int_Tables_number   1
_chemical_formula_structural   Mn3H61C64(N2O3)4
_chemical_formula_sum   'Mn6 H122 C128 N16 O24'
_cell_volume   3212.80953107
_cell_formula_units_Z   2
loop_
 _symmetry_equiv_pos_site_id
 _symmetry_equiv_pos_as_xyz
  1  'x, y, z'
loop_
 _atom_site_label
 _atom_site_fract_x
 _atom_site_fract_y
 _atom_site_fract_z
 _atom_site_charge
 Mn 0.95265 0.02741 0.39258   1.018387
 Mn 0.02741 0.95265 0.60742   1.018387
 Mn 0.02741 0.95265 0.89258   1.018387
 Mn 0.95265 0.02741 0.10742   1.018387
 Mn 0.97269 0.97269 0.5   1.028919
 Mn 0.97269 0.97269 0.0   1.028919
 H 0.2734 0.9598 0.3829   0.086408
 H 0.6801 0.9253 0.3897   0.073461
 H 0.4604 0.976 0.4889   0.085709
 H 0.2318 0.3012 0.3092   0.093627
 H 0.4875 0.3297 0.289   0.128194
 H 0.5283 0.4835 0.2826   0.122026
 H 0.4006 0.4456 0.3087   0.119527
 H 0.7994 0.28 0.3401   0.103605
 H 0.6763 0.4737 0.3672   0.13907
 H 0.7936 0.2368 0.4555   0.091766
 H 0.656 0.4398 0.4778   0.10288
 H 0.6781 0.5665 0.4497   0.105271
 H 0.4533 0.2783 0.4492   0.087714
 H 0.2315 0.2759 0.4295   0.114953
 H 0.2492 0.6764 0.4164   0.082466
 H 0.4776 0.6736 0.4319   0.079719
 H 0.0107 0.4665 0.4348   0.103713
 H 0.046 0.393 0.3947   0.104898
 H 0.9668 0.7262 0.432   0.092698
 H 0.9865 0.7877 0.3174   0.107801
 H 0.0486 0.551 0.3292   0.13343
 H 0.2817 0.9197 0.3216   0.116917
 H 0.3633 0.8365 0.2897   0.106835
 H 0.3334 0.772 0.3315   0.098267
 H 0.5853 0.1017 0.3259   0.107328
 H 0.5084 0.0542 0.2873   0.11157
 H 0.4258 0.1142 0.3232   0.112279
 H 0.6034 0.7432 0.3329   0.101968
 H 0.5993 0.8163 0.2914   0.116279
 H 0.6899 0.8765 0.3258   0.124197
 H 0.9598 0.2734 0.6171   0.086408
 H 0.9253 0.6801 0.6103   0.073461
 H 0.976 0.4604 0.5111   0.085709
 H 0.3012 0.2318 0.6908   0.093627
 H 0.3297 0.4875 0.711   0.128194
 H 0.4835 0.5283 0.7174   0.122026
 H 0.4456 0.4006 0.6913   0.119527
 H 0.28 0.7994 0.6599   0.103605
 H 0.4737 0.6763 0.6328   0.13907
 H 0.2368 0.7936 0.5445   0.091766
 H 0.4398 0.656 0.5222   0.10288
 H 0.5665 0.6781 0.5503   0.105272
 H 0.2783 0.4533 0.5508   0.087714
 H 0.2759 0.2315 0.5705   0.114953
 H 0.6764 0.2492 0.5836   0.082466
 H 0.6736 0.4776 0.5681   0.079719
 H 0.4665 0.0107 0.5652   0.103713
 H 0.393 0.046 0.6053   0.104898
 H 0.7262 0.9668 0.568   0.092698
 H 0.7877 0.9865 0.6826   0.107801
 H 0.551 0.0486 0.6708   0.13343
 H 0.9197 0.2817 0.6784   0.116917
 H 0.8365 0.3633 0.7103   0.106835
 H 0.772 0.3334 0.6685   0.098267
 H 0.1017 0.5853 0.6741   0.107328
 H 0.0542 0.5084 0.7127   0.11157
 H 0.1142 0.4258 0.6768   0.112279
 H 0.7432 0.6034 0.6671   0.101968
 H 0.8163 0.5993 0.7086   0.116279
 H 0.8765 0.6899 0.6742   0.124197
 H 0.9598 0.2734 0.8829   0.086408
 H 0.9253 0.6801 0.8897   0.073461
 H 0.976 0.4604 0.9889   0.085709
 H 0.3012 0.2318 0.8092   0.093627
 H 0.3297 0.4875 0.789   0.128193
 H 0.4835 0.5283 0.7826   0.122015
 H 0.4456 0.4006 0.8087   0.119527
 H 0.28 0.7994 0.8401   0.103605
 H 0.4737 0.6763 0.8672   0.13907
 H 0.2368 0.7936 0.9555   0.091766
 H 0.4398 0.656 0.9778   0.10288
 H 0.5665 0.6781 0.9497   0.105271
 H 0.2783 0.4533 0.9492   0.087714
 H 0.2759 0.2315 0.9295   0.114953
 H 0.6764 0.2492 0.9164   0.082466
 H 0.6736 0.4776 0.9319   0.079719
 H 0.4665 0.0107 0.9348   0.103713
 H 0.393 0.046 0.8947   0.104898
 H 0.7262 0.9668 0.932   0.092698
 H 0.7877 0.9865 0.8174   0.107789
 H 0.551 0.0486 0.8292   0.133427
 H 0.9197 0.2817 0.8216   0.116915
 H 0.8365 0.3633 0.7897   0.106808
 H 0.772 0.3334 0.8315   0.098265
 H 0.1017 0.5853 0.8259   0.107329
 H 0.0542 0.5084 0.7873   0.111575
 H 0.1142 0.4258 0.8232   0.11228
 H 0.7432 0.6034 0.8329   0.101968
 H 0.8163 0.5993 0.7914   0.11627
 H 0.8765 0.6899 0.8258   0.124196
 H 0.2734 0.9598 0.1171   0.086408
 H 0.6801 0.9253 0.1103   0.073461
 H 0.4604 0.976 0.0111   0.085709
 H 0.2318 0.3012 0.1908   0.093627
 H 0.4875 0.3297 0.211   0.128193
 H 0.5283 0.4835 0.2174   0.122015
 H 0.4006 0.4456 0.1913   0.119527
 H 0.7994 0.28 0.1599   0.103605
 H 0.6763 0.4737 0.1328   0.13907
 H 0.7936 0.2368 0.0445   0.091766
 H 0.656 0.4398 0.0222   0.10288
 H 0.6781 0.5665 0.0503   0.105272
 H 0.4533 0.2783 0.0508   0.087714
 H 0.2315 0.2759 0.0705   0.114953
 H 0.2492 0.6764 0.0836   0.082466
 H 0.4776 0.6736 0.0681   0.079719
 H 0.0107 0.4665 0.0652   0.103713
 H 0.046 0.393 0.1053   0.104898
 H 0.9668 0.7262 0.068   0.092698
 H 0.9865 0.7877 0.1826   0.107789
 H 0.0486 0.551 0.1708   0.133427
 H 0.2817 0.9197 0.1784   0.116915
 H 0.3633 0.8365 0.2103   0.106808
 H 0.3334 0.772 0.1685   0.098265
 H 0.5853 0.1017 0.1741   0.107329
 H 0.5084 0.0542 0.2127   0.111575
 H 0.4258 0.1142 0.1768   0.11228
 H 0.6034 0.7432 0.1671   0.101968
 H 0.5993 0.8163 0.2086   0.11627
 H 0.6899 0.8765 0.1742   0.124196
 H 0.9617 0.0681 0.25   0.100571
 H 0.0681 0.9617 0.75   0.100571
 C 0.2099 0.9809 0.45831   0.677682
 C 0.3459 0.9697 0.43866   -0.151054
 C 0.3534 0.9554 0.39776   -0.036821
 C 0.4778 0.9346 0.37814   -0.00494
 C 0.5954 0.9364 0.40186   -0.053613
 C 0.5905 0.9541 0.44265   -0.170431
 C 0.465 0.968 0.46137   -0.014831
 C 0.7206 0.9584 0.46629   0.662775
 C 0.4876 0.915 0.33336   0.237029
 C 0.0351 0.1219 0.3244   0.629863
 C 0.0893 0.1755 0.28584   -0.142623
 C 0.1964 0.27 0.28522   -0.063879
 C 0.4531 0.4207 0.2857   -0.38324
 C 0.7827 0.2955 0.36697   0.050188
 C 0.7151 0.4027 0.38166   -0.169858
 C 0.7801 0.2715 0.43003   0.16332
 C 0.6418 0.474 0.45101   -0.054346
 C 0.4906 0.4754 0.44174   0.016933
 C 0.4131 0.3601 0.4415   -0.107908
 C 0.2794 0.3582 0.4307   -0.099335
 C 0.2157 0.4775 0.42145   0.047315
 C 0.2908 0.5936 0.4224   -0.121492
 C 0.428 0.5922 0.4321   -0.116747
 C 0.0643 0.4739 0.41056   -0.071252
 C 0.9805 0.7129 0.40487   0.152502
 C 0.9909 0.7459 0.34216   0.051041
 C 0.0256 0.6148 0.34851   -0.178904
 C 0.3542 0.8552 0.3176   -0.395934
 C 0.5033 0.0599 0.3158   -0.383288
 C 0.6057 0.8301 0.3196   -0.385567
 C 0.9809 0.2099 0.54169   0.677682
 C 0.9697 0.3459 0.56134   -0.151054
 C 0.9554 0.3534 0.60224   -0.036821
 C 0.9346 0.4778 0.62186   -0.00494
 C 0.9364 0.5954 0.59814   -0.053613
 C 0.9541 0.5905 0.55735   -0.17043
 C 0.968 0.465 0.53863   -0.014832
 C 0.9584 0.7206 0.53371   0.662774
 C 0.915 0.4876 0.66664   0.237029
 C 0.1219 0.0351 0.6756   0.629863
 C 0.1755 0.0893 0.71416   -0.142623
 C 0.27 0.1964 0.71478   -0.063879
 C 0.4207 0.4531 0.7143   -0.38324
 C 0.2955 0.7827 0.63303   0.050188
 C 0.4027 0.7151 0.61834   -0.169858
 C 0.2715 0.7801 0.56997   0.16332
 C 0.474 0.6418 0.54899   -0.054346
 C 0.4754 0.4906 0.55826   0.016933
 C 0.3601 0.4131 0.5585   -0.107909
 C 0.3582 0.2794 0.5693   -0.099335
 C 0.4775 0.2157 0.57855   0.047315
 C 0.5936 0.2908 0.5776   -0.121492
 C 0.5922 0.428 0.5679   -0.116747
 C 0.4739 0.0643 0.58944   -0.071252
 C 0.7129 0.9805 0.59513   0.152502
 C 0.7459 0.9909 0.65784   0.051041
 C 0.6148 0.0256 0.65149   -0.178904
 C 0.8552 0.3542 0.6824   -0.395934
 C 0.0599 0.5033 0.6842   -0.383288
 C 0.8301 0.6057 0.6804   -0.385567
 C 0.9809 0.2099 0.95831   0.677682
 C 0.9697 0.3459 0.93866   -0.151054
 C 0.9554 0.3534 0.89776   -0.036821
 C 0.9346 0.4778 0.87814   -0.00494
 C 0.9364 0.5954 0.90186   -0.053613
 C 0.9541 0.5905 0.94265   -0.17043
 C 0.968 0.465 0.96137   -0.014832
 C 0.9584 0.7206 0.96629   0.662774
 C 0.915 0.4876 0.83336   0.237026
 C 0.1219 0.0351 0.8244   0.629863
 C 0.1755 0.0893 0.78584   -0.142623
 C 0.27 0.1964 0.78522   -0.063879
 C 0.4207 0.4531 0.7857   -0.38324
 C 0.2955 0.7827 0.86697   0.050188
 C 0.4027 0.7151 0.88166   -0.169858
 C 0.2715 0.7801 0.93003   0.16332
 C 0.474 0.6418 0.95101   -0.054346
 C 0.4754 0.4906 0.94174   0.016933
 C 0.3601 0.4131 0.9415   -0.107908
 C 0.3582 0.2794 0.9307   -0.099335
 C 0.4775 0.2157 0.92145   0.047315
 C 0.5936 0.2908 0.9224   -0.121492
 C 0.5922 0.428 0.9321   -0.116747
 C 0.4739 0.0643 0.91056   -0.071252
 C 0.7129 0.9805 0.90487   0.152502
 C 0.7459 0.9909 0.84216   0.051044
 C 0.6148 0.0256 0.84851   -0.178904
 C 0.8552 0.3542 0.8176   -0.395923
 C 0.0599 0.5033 0.8158   -0.383289
 C 0.8301 0.6057 0.8196   -0.385563
 C 0.2099 0.9809 0.04169   0.677682
 C 0.3459 0.9697 0.06134   -0.151054
 C 0.3534 0.9554 0.10224   -0.036821
 C 0.4778 0.9346 0.12186   -0.00494
 C 0.5954 0.9364 0.09814   -0.053613
 C 0.5905 0.9541 0.05735   -0.170431
 C 0.465 0.968 0.03863   -0.014831
 C 0.7206 0.9584 0.03371   0.662775
 C 0.4876 0.915 0.16664   0.237026
 C 0.0351 0.1219 0.1756   0.629863
 C 0.0893 0.1755 0.21416   -0.142623
 C 0.1964 0.27 0.21478   -0.063879
 C 0.4531 0.4207 0.2143   -0.38324
 C 0.7827 0.2955 0.13303   0.050188
 C 0.7151 0.4027 0.11834   -0.169858
 C 0.7801 0.2715 0.06997   0.16332
 C 0.6418 0.474 0.04899   -0.054346
 C 0.4906 0.4754 0.05826   0.016933
 C 0.4131 0.3601 0.0585   -0.107909
 C 0.2794 0.3582 0.0693   -0.099335
 C 0.2157 0.4775 0.07855   0.047315
 C 0.2908 0.5936 0.0776   -0.121492
 C 0.428 0.5922 0.0679   -0.116747
 C 0.0643 0.4739 0.08944   -0.071252
 C 0.9805 0.7129 0.09513   0.152502
 C 0.9909 0.7459 0.15784   0.051044
 C 0.0256 0.6148 0.15149   -0.178904
 C 0.3542 0.8552 0.1824   -0.395923
 C 0.5033 0.0599 0.1842   -0.383289
 C 0.6057 0.8301 0.1804   -0.385563
 C 0.0347 0.1295 0.25   -0.007706
 C 0.2518 0.3192 0.25   -0.019727
 C 0.3652 0.4262 0.25   0.226699
 C 0.2996 0.5646 0.25   -0.132783
 C 0.1295 0.0347 0.75   -0.007706
 C 0.3192 0.2518 0.75   -0.019727
 C 0.4262 0.3652 0.75   0.226699
 C 0.5646 0.2996 0.75   -0.132783
 N 0.824 0.2118 0.3975   -0.424066
 N 0.7144 0.387 0.42245   0.041857
 N 0.9627 0.8089 0.37777   -0.415286
 N 0.021 0.593 0.38876   0.051189
 N 0.2118 0.824 0.6025   -0.424066
 N 0.387 0.7144 0.57755   0.041857
 N 0.8089 0.9627 0.62223   -0.415286
 N 0.593 0.021 0.61124   0.051189
 N 0.2118 0.824 0.8975   -0.424066
 N 0.387 0.7144 0.92245   0.041857
 N 0.8089 0.9627 0.87777   -0.415287
 N 0.593 0.021 0.88876   0.051189
 N 0.824 0.2118 0.1025   -0.424066
 N 0.7144 0.387 0.07755   0.041857
 N 0.9627 0.8089 0.12223   -0.415287
 N 0.021 0.593 0.11124   0.051189
 O 0.10657 0.00903 0.43769   -0.618753
 O 0.1985 0.9621 0.49499   -0.587927
 O 0.7171 0.9649 0.5029   -0.582113
 O 0.83481 0.95899 0.44798   -0.628807
 O 0.099 0.149 0.35613   -0.597331
 O 0.92898 0.04962 0.32464   -0.592274
 O 0.00903 0.10657 0.56231   -0.618753
 O 0.9621 0.1985 0.50501   -0.587927
 O 0.9649 0.7171 0.4971   -0.582113
 O 0.95899 0.83481 0.55202   -0.628807
 O 0.149 0.099 0.64387   -0.597331
 O 0.04962 0.92898 0.67536   -0.592274
 O 0.00903 0.10657 0.93769   -0.618753
 O 0.9621 0.1985 0.99499   -0.587927
 O 0.9649 0.7171 0.0029   -0.582113
 O 0.95899 0.83481 0.94798   -0.628807
 O 0.149 0.099 0.85613   -0.597331
 O 0.04962 0.92898 0.82464   -0.592274
 O 0.10657 0.00903 0.06231   -0.618753
 O 0.1985 0.9621 0.00501   -0.587927
 O 0.7171 0.9649 0.9971   -0.582113
 O 0.83481 0.95899 0.05202   -0.628807
 O 0.099 0.149 0.14387   -0.597331
 O 0.92898 0.04962 0.17536   -0.592274
