{'_ref': 'TBD', '_srcid': 'CAKYAQ_clean', 'submitters': [{'name': 'Dalar Nazarian Jeff Camp and David Sholl', 'email': 'dalar@gatech.edu jcamp6@gatech.edu'}], '_method': 'VASP DFT with PBE;DDEC'}
data_ZnH6(CN2)4
_symmetry_space_group_name_H-M   'P 1'
_cell_length_a   10.20400000
_cell_length_b   10.20400000
_cell_length_c   13.09980000
_cell_angle_alpha   90.00000000
_cell_angle_beta   90.00000000
_cell_angle_gamma   90.00000000
_symmetry_Int_Tables_number   1
_chemical_formula_structural   ZnH6(CN2)4
_chemical_formula_sum   'Zn4 H24 C16 N32'
_cell_volume   1363.97234528
_cell_formula_units_Z   4
loop_
 _symmetry_equiv_pos_site_id
 _symmetry_equiv_pos_as_xyz
  1  'x, y, z'
loop_
 _atom_site_label
 _atom_site_fract_x
 _atom_site_fract_y
 _atom_site_fract_z
 _atom_site_charge
 Zn 0.73031 0.73031 0.5   0.83677
 Zn 0.26969 0.26969 0.0   0.83677
 Zn 0.76969 0.23031 0.75   0.83677
 Zn 0.23031 0.76969 0.25   0.83677
 H 0.6215 0.4532 0.4476   0.085029
 H 0.8691 0.5115 0.7665   0.35185
 H 0.8579 0.6362 0.7081   0.313981
 H 0.3785 0.5468 0.9476   0.085029
 H 0.1309 0.4885 0.2665   0.35185
 H 0.1421 0.3638 0.2081   0.313981
 H 0.0468 0.1215 0.6976   0.085029
 H 0.9885 0.3691 0.0165   0.351849
 H 0.8638 0.3579 0.9581   0.31398
 H 0.9532 0.8785 0.1976   0.085029
 H 0.0115 0.6309 0.5165   0.351849
 H 0.1362 0.6421 0.4581   0.31398
 H 0.8785 0.9532 0.8024   0.085034
 H 0.6309 0.0115 0.4835   0.351851
 H 0.6421 0.1362 0.5419   0.313981
 H 0.1215 0.0468 0.3024   0.085034
 H 0.3691 0.9885 0.9835   0.351851
 H 0.3579 0.8638 0.0419   0.313981
 H 0.4532 0.6215 0.5524   0.085034
 H 0.5115 0.8691 0.2335   0.351849
 H 0.6362 0.8579 0.2919   0.31398
 H 0.5468 0.3785 0.0524   0.085034
 H 0.4885 0.1309 0.7335   0.351849
 H 0.3638 0.1421 0.7919   0.31398
 C 0.7713 0.491 0.6402   0.657926
 C 0.6649 0.446 0.5098   0.248408
 C 0.2287 0.509 0.1402   0.657926
 C 0.3351 0.554 0.0098   0.248408
 C 0.009 0.2713 0.8902   0.657925
 C 0.054 0.1649 0.7598   0.248408
 C 0.991 0.7287 0.3902   0.657925
 C 0.946 0.8351 0.2598   0.248408
 C 0.7287 0.991 0.6098   0.657925
 C 0.8351 0.946 0.7402   0.248406
 C 0.2713 0.009 0.1098   0.657925
 C 0.1649 0.054 0.2402   0.248406
 C 0.491 0.7713 0.3598   0.657925
 C 0.446 0.6649 0.4902   0.248406
 C 0.509 0.2287 0.8598   0.657925
 C 0.554 0.3351 0.9902   0.248406
 N 0.7259 0.548 0.5577   -0.569635
 N 0.7474 0.3667 0.6504   -0.40127
 N 0.6743 0.337 0.5609   -0.3302
 N 0.8414 0.554 0.7141   -0.774474
 N 0.2741 0.452 0.0577   -0.569635
 N 0.2526 0.6333 0.1504   -0.40127
 N 0.3257 0.663 0.0609   -0.3302
 N 0.1586 0.446 0.2141   -0.774474
 N 0.952 0.2259 0.8077   -0.569635
 N 0.1333 0.2474 0.9004   -0.401269
 N 0.163 0.1743 0.8109   -0.3302
 N 0.946 0.3414 0.9641   -0.774473
 N 0.048 0.7741 0.3077   -0.569635
 N 0.8667 0.7526 0.4004   -0.401269
 N 0.837 0.8257 0.3109   -0.3302
 N 0.054 0.6586 0.4641   -0.774473
 N 0.7741 0.048 0.6923   -0.569635
 N 0.7526 0.8667 0.5996   -0.401269
 N 0.8257 0.837 0.6891   -0.330201
 N 0.6586 0.054 0.5359   -0.774474
 N 0.2259 0.952 0.1923   -0.569635
 N 0.2474 0.1333 0.0996   -0.401269
 N 0.1743 0.163 0.1891   -0.330201
 N 0.3414 0.946 0.0359   -0.774474
 N 0.548 0.7259 0.4423   -0.569635
 N 0.3667 0.7474 0.3496   -0.401269
 N 0.337 0.6743 0.4391   -0.3302
 N 0.554 0.8414 0.2859   -0.774473
 N 0.452 0.2741 0.9423   -0.569635
 N 0.6333 0.2526 0.8496   -0.401269
 N 0.663 0.3257 0.9391   -0.3302
 N 0.446 0.1586 0.7859   -0.774473
