{'_ref': 'TBD', '_srcid': 'CAKYAQ_clean', 'submitters': [{'name': 'Dalar Nazarian Jeff Camp and David Sholl', 'email': 'dalar@gatech.edu jcamp6@gatech.edu'}], '_method': 'VASP DFT with PBE;DDEC'}
data_Ag2H9(C2O)6
_symmetry_space_group_name_H-M   'P 1'
_cell_length_a   4.71429968
_cell_length_b   11.73439998
_cell_length_c   13.68230000
_cell_angle_alpha   67.66600058
_cell_angle_beta   89.26900104
_cell_angle_gamma   82.09599927
_symmetry_Int_Tables_number   1
_chemical_formula_structural   Ag2H9(C2O)6
_chemical_formula_sum   'Ag4 H18 C24 O12'
_cell_volume   692.822611109
_cell_formula_units_Z   2
loop_
 _symmetry_equiv_pos_site_id
 _symmetry_equiv_pos_as_xyz
  1  'x, y, z'
loop_
 _atom_site_label
 _atom_site_fract_x
 _atom_site_fract_y
 _atom_site_fract_z
 _atom_site_charge
 Ag 0.7302 0.95096 0.93577   0.490947
 Ag 0.32599 0.12973 0.78231   0.57648
 Ag 0.2698 0.04904 0.06423   0.490944
 Ag 0.67401 0.87027 0.21769   0.576479
 H 0.4386 0.5211 0.9069   0.115155
 H 0.5499 0.7905 0.6252   0.121712
 H 0.0719 0.4606 0.7216   0.132888
 H 0.0722 0.3233 0.913   0.141434
 H 0.7981 0.3386 0.9791   0.145126
 H 0.1042 0.8032 0.7204   0.14653
 H 0.0922 0.7088 0.8403   0.148356
 H 0.0071 0.7703 0.5385   0.134777
 H 0.1916 0.6358 0.5696   0.158508
 H 0.5614 0.4789 0.0931   0.11515
 H 0.4501 0.2095 0.3748   0.121734
 H 0.9281 0.5394 0.2784   0.132888
 H 0.9278 0.6767 0.087   0.141433
 H 0.2019 0.6614 0.0209   0.145118
 H 0.8958 0.1968 0.2796   0.146537
 H 0.9078 0.2912 0.1597   0.148351
 H 0.9929 0.2297 0.4615   0.134796
 H 0.8084 0.3642 0.4304   0.15851
 C 0.7697 0.471 0.8278   0.148374
 C 0.541 0.5498 0.8439   -0.217446
 C 0.46 0.6696 0.7696   0.168041
 C 0.6069 0.7092 0.6767   -0.230046
 C 0.8341 0.6339 0.6569   0.168706
 C 0.9161 0.5135 0.7336   -0.170101
 C 0.8603 0.341 0.909   -0.368306
 C 0.7416 0.2382 0.8872   0.700899
 C 0.2191 0.7579 0.7874   -0.394169
 C 0.3211 0.8525 0.8256   0.711718
 C 0.9938 0.6812 0.5562   -0.386575
 C 0.8626 0.6683 0.4609   0.660841
 C 0.2303 0.529 0.1722   0.148373
 C 0.459 0.4502 0.1561   -0.217445
 C 0.54 0.3304 0.2304   0.168043
 C 0.3931 0.2908 0.3233   -0.230055
 C 0.1659 0.3661 0.3431   0.16871
 C 0.0839 0.4865 0.2664   -0.170101
 C 0.1397 0.659 0.091   -0.368303
 C 0.2584 0.7618 0.1128   0.700898
 C 0.7809 0.2421 0.2126   -0.394171
 C 0.6789 0.1475 0.1744   0.711718
 C 0.0062 0.3188 0.4438   -0.386583
 C 0.1374 0.3317 0.5391   0.660841
 O 0.8646 0.1282 0.9368   -0.592072
 O 0.5297 0.2669 0.8243   -0.507824
 O 0.5519 0.8216 0.8799   -0.53177
 O 0.1572 0.9549 0.801   -0.587964
 O 0.9663 0.7252 0.3723   -0.497529
 O 0.6684 0.6015 0.4742   -0.386698
 O 0.1354 0.8718 0.0632   -0.592072
 O 0.4703 0.7331 0.1757   -0.507824
 O 0.4481 0.1784 0.1201   -0.53177
 O 0.8428 0.0451 0.199   -0.587964
 O 0.0337 0.2748 0.6277   -0.497529
 O 0.3316 0.3985 0.5258   -0.386697
