{'_ref': 'TBD', '_srcid': 'CAKYAQ_clean', 'submitters': [{'name': 'Dalar Nazarian Jeff Camp and David Sholl', 'email': 'dalar@gatech.edu jcamp6@gatech.edu'}], '_method': 'VASP DFT with PBE;DDEC'}
data_Ag2H12C19(NO)4
_symmetry_space_group_name_H-M   'P 1'
_cell_length_a   7.01000037
_cell_length_b   9.14619995
_cell_length_c   15.49600000
_cell_angle_alpha   97.96000260
_cell_angle_beta   98.39000233
_cell_angle_gamma   92.00999891
_symmetry_Int_Tables_number   1
_chemical_formula_structural   Ag2H12C19(NO)4
_chemical_formula_sum   'Ag4 H24 C38 N8 O8'
_cell_volume   971.870271292
_cell_formula_units_Z   2
loop_
 _symmetry_equiv_pos_site_id
 _symmetry_equiv_pos_as_xyz
  1  'x, y, z'
loop_
 _atom_site_label
 _atom_site_fract_x
 _atom_site_fract_y
 _atom_site_fract_z
 _atom_site_charge
 Ag 0.452 0.66069 0.6043   0.463339
 Ag 0.16896 0.44751 0.29114   0.382063
 Ag 0.548 0.33931 0.3957   0.463339
 Ag 0.83104 0.55249 0.70886   0.382063
 H 0.2331 0.6985 0.1798   0.10705
 H 0.2715 0.7419 0.0397   0.131663
 H 0.2259 0.3016 0.9618   0.135446
 H 0.1866 0.2695 0.1021   0.091507
 H 0.2998 0.7745 0.9164   0.127615
 H 0.3701 0.8125 0.7792   0.090622
 H 0.3328 0.3848 0.6999   0.091772
 H 0.271 0.3368 0.8346   0.135236
 H 0.0049 0.1307 0.2741   0.079871
 H 0.945 0.943 0.3507   0.134229
 H 0.1015 0.2263 0.5773   0.125875
 H 0.1588 0.4089 0.4934   0.074043
 H 0.7669 0.3015 0.8202   0.10705
 H 0.7285 0.2581 0.9603   0.131659
 H 0.7741 0.6984 0.0382   0.135441
 H 0.8134 0.7305 0.8979   0.091503
 H 0.7002 0.2255 0.0836   0.127608
 H 0.6299 0.1875 0.2208   0.090622
 H 0.6672 0.6152 0.3001   0.091772
 H 0.729 0.6632 0.1654   0.135237
 H 0.9951 0.8693 0.7259   0.079869
 H 0.055 0.057 0.6493   0.134231
 H 0.8985 0.7737 0.4227   0.125876
 H 0.8412 0.5911 0.5066   0.074044
 C 0.3532 0.7151 0.4094   0.595911
 C 0.4369 0.8654 0.4556   0.049466
 C 0.5219 0.017 0.5887   0.085884
 C 0.5255 0.0335 0.688   0.620677
 C 0.2307 0.6164 0.1348   0.165301
 C 0.2546 0.6432 0.051   -0.194768
 C 0.254 0.5259 0.9834   0.091559
 C 0.2276 0.3858 0.0054   -0.197541
 C 0.2041 0.3674 0.0894   0.135057
 C 0.2821 0.5511 0.8932   0.070698
 C 0.3092 0.6916 0.8732   -0.208468
 C 0.3504 0.7141 0.7905   0.162826
 C 0.3298 0.466 0.745   0.173198
 C 0.2914 0.4363 0.8253   -0.17694
 C 0.025 0.1506 0.3366   0.174902
 C 0.9895 0.0377 0.382   -0.153695
 C 0.0178 0.0601 0.474   0.088533
 C 0.0813 0.2038 0.5148   -0.169032
 C 0.1146 0.3128 0.4643   0.146597
 C 0.6468 0.2849 0.5906   0.595911
 C 0.5631 0.1346 0.5444   0.049463
 C 0.4781 0.983 0.4113   0.085881
 C 0.4745 0.9665 0.312   0.620677
 C 0.7693 0.3836 0.8652   0.165301
 C 0.7454 0.3568 0.949   -0.194765
 C 0.746 0.4741 0.0166   0.091559
 C 0.7724 0.6142 0.9946   -0.197538
 C 0.7959 0.6326 0.9106   0.135058
 C 0.7179 0.4489 0.1068   0.070698
 C 0.6908 0.3084 0.1268   -0.208465
 C 0.6496 0.2859 0.2095   0.162826
 C 0.6702 0.534 0.255   0.173198
 C 0.7086 0.5637 0.1747   -0.17694
 C 0.975 0.8494 0.6634   0.174903
 C 0.0105 0.9623 0.618   -0.153697
 C 0.9822 0.9399 0.526   0.088535
 C 0.9187 0.7962 0.4852   -0.169033
 C 0.8854 0.6872 0.5357   0.146597
 N 0.4613 0.8843 0.54443   -0.272286
 N 0.2043 0.4807 0.15508   -0.292059
 N 0.3631 0.6015 0.72624   -0.337174
 N 0.0865 0.2878 0.3749   -0.337418
 N 0.5387 0.1157 0.45557   -0.272285
 N 0.7957 0.5193 0.84492   -0.292059
 N 0.6369 0.3985 0.27376   -0.337174
 N 0.9135 0.7122 0.6251   -0.337418
 O 0.2415 0.7123 0.33935   -0.530482
 O 0.4012 0.6044 0.44689   -0.585392
 O 0.6215 0.9443 0.72772   -0.645112
 O 0.4193 0.1296 0.71812   -0.630566
 O 0.7585 0.2877 0.66065   -0.530482
 O 0.5988 0.3956 0.55311   -0.585392
 O 0.3785 0.0557 0.27228   -0.645112
 O 0.5807 0.8704 0.28188   -0.630566
