{'_ref': 'TBD', '_srcid': 'CAKYAQ_clean', 'submitters': [{'name': 'Dalar Nazarian Jeff Camp and David Sholl', 'email': 'dalar@gatech.edu jcamp6@gatech.edu'}], '_method': 'VASP DFT with PBE;DDEC'}
data_Cd5H4C20(NO2)8
_symmetry_space_group_name_H-M   'P 1'
_cell_length_a   14.26800000
_cell_length_b   15.72100000
_cell_length_c   16.01700000
_cell_angle_alpha   90.00000000
_cell_angle_beta   90.00000000
_cell_angle_gamma   90.00000000
_symmetry_Int_Tables_number   1
_chemical_formula_structural   Cd5H4C20(NO2)8
_chemical_formula_sum   'Cd20 H16 C80 N32 O64'
_cell_volume   3592.72887088
_cell_formula_units_Z   4
loop_
 _symmetry_equiv_pos_site_id
 _symmetry_equiv_pos_as_xyz
  1  'x, y, z'
loop_
 _atom_site_label
 _atom_site_fract_x
 _atom_site_fract_y
 _atom_site_fract_z
 _atom_site_charge
 Cd 0.12518 0.01931 0.54364   1.035762
 Cd 0.39416 0.93485 0.54087   1.048175
 Cd 0.37482 0.51931 0.45636   1.035762
 Cd 0.10584 0.43485 0.45913   1.048175
 Cd 0.87482 0.98069 0.04364   1.035762
 Cd 0.60584 0.06515 0.04087   1.048175
 Cd 0.62518 0.48069 0.95636   1.035762
 Cd 0.89416 0.56515 0.95913   1.048175
 Cd 0.87482 0.98069 0.45636   1.035762
 Cd 0.60584 0.06515 0.45913   1.048175
 Cd 0.62518 0.48069 0.54364   1.035762
 Cd 0.89416 0.56515 0.54087   1.048175
 Cd 0.12518 0.01931 0.95636   1.035762
 Cd 0.39416 0.93485 0.95913   1.048175
 Cd 0.37482 0.51931 0.04364   1.035762
 Cd 0.10584 0.43485 0.04087   1.048175
 Cd 0.73642 0.03685 0.75   1.25353
 Cd 0.76358 0.53685 0.25   1.25353
 Cd 0.26358 0.96315 0.25   1.25353
 Cd 0.23642 0.46315 0.75   1.25353
 H 0.0269 0.223 0.5163   0.073123
 H 0.4731 0.723 0.4837   0.073123
 H 0.9731 0.777 0.0163   0.073123
 H 0.5269 0.277 0.9837   0.073123
 H 0.9731 0.777 0.4837   0.073123
 H 0.5269 0.277 0.5163   0.073123
 H 0.0269 0.223 0.9837   0.073123
 H 0.4731 0.723 0.0163   0.073123
 H 0.3244 0.8855 0.75   0.07008
 H 0.2052 0.0188 0.75   0.053703
 H 0.1756 0.3855 0.25   0.07008
 H 0.2948 0.5188 0.25   0.053703
 H 0.6756 0.1145 0.25   0.07008
 H 0.7948 0.9812 0.25   0.053703
 H 0.8244 0.6145 0.75   0.07008
 H 0.7052 0.4812 0.75   0.053703
 C 0.0905 0.2242 0.5039   0.33623
 C 0.2325 0.1836 0.4852   0.003221
 C 0.2264 0.2695 0.4662   0.003401
 C 0.3122 0.1244 0.4845   0.593312
 C 0.2987 0.332 0.4425   0.602703
 C 0.4917 0.9962 0.7065   -0.0292
 C 0.5514 0.039 0.6425   0.680908
 C 0.9994 0.0217 0.7063   -0.022122
 C 0.9253 0.0208 0.6407   0.693624
 C 0.4095 0.7242 0.4961   0.33623
 C 0.2675 0.6836 0.5148   0.003221
 C 0.2736 0.7695 0.5338   0.003401
 C 0.1878 0.6244 0.5155   0.593312
 C 0.2013 0.832 0.5575   0.602703
 C 0.0083 0.4962 0.2935   -0.0292
 C 0.9486 0.539 0.3575   0.680908
 C 0.5006 0.5217 0.2937   -0.022122
 C 0.5747 0.5208 0.3593   0.693624
 C 0.9095 0.7758 0.0039   0.33623
 C 0.7675 0.8164 0.9852   0.003221
 C 0.7736 0.7305 0.9662   0.003401
 C 0.6878 0.8756 0.9845   0.593312
 C 0.7013 0.668 0.9425   0.602703
 C 0.5083 0.0038 0.2065   -0.0292
 C 0.4486 0.961 0.1425   0.680908
 C 0.000599999999999 0.9783 0.2063   -0.022122
 C 0.0747 0.9792 0.1407   0.693624
 C 0.5905 0.2758 0.9961   0.33623
 C 0.7325 0.3164 0.0148   0.003221
 C 0.7264 0.2305 0.0338   0.003401
 C 0.8122 0.3756 0.0155   0.593312
 C 0.7987 0.168 0.0575   0.602703
 C 0.9917 0.5038 0.7935   -0.0292
 C 0.0514 0.461 0.8575   0.680908
 C 0.4994 0.4783 0.7937   -0.022122
 C 0.4253 0.4792 0.8593   0.693624
 C 0.9095 0.7758 0.4961   0.33623
 C 0.7675 0.8164 0.5148   0.003221
 C 0.7736 0.7305 0.5338   0.003401
 C 0.6878 0.8756 0.5155   0.593312
 C 0.7013 0.668 0.5575   0.602704
 C 0.5083 0.0038 0.2935   -0.029198
 C 0.4486 0.961 0.3575   0.680907
 C 0.000599999999999 0.9783 0.2937   -0.022123
 C 0.0747 0.9792 0.3593   0.693625
 C 0.5905 0.2758 0.5039   0.33623
 C 0.7325 0.3164 0.4852   0.003221
 C 0.7264 0.2305 0.4662   0.003401
 C 0.8122 0.3756 0.4845   0.593312
 C 0.7987 0.168 0.4425   0.602704
 C 0.9917 0.5038 0.7065   -0.029198
 C 0.0514 0.461 0.6425   0.680907
 C 0.4994 0.4783 0.7063   -0.022123
 C 0.4253 0.4792 0.6407   0.693625
 C 0.0905 0.2242 0.9961   0.33623
 C 0.2325 0.1836 0.0148   0.003221
 C 0.2264 0.2695 0.0338   0.003401
 C 0.3122 0.1244 0.0155   0.593312
 C 0.2987 0.332 0.0575   0.602704
 C 0.4917 0.9962 0.7935   -0.029198
 C 0.5514 0.039 0.8575   0.680907
 C 0.9994 0.0217 0.7937   -0.022123
 C 0.9253 0.0208 0.8593   0.693625
 C 0.4095 0.7242 0.0039   0.33623
 C 0.2675 0.6836 0.9852   0.003221
 C 0.2736 0.7695 0.9662   0.003401
 C 0.1878 0.6244 0.9845   0.593312
 C 0.2013 0.832 0.9425   0.602704
 C 0.0083 0.4962 0.2065   -0.029198
 C 0.9486 0.539 0.1425   0.680907
 C 0.5006 0.5217 0.2063   -0.022123
 C 0.5747 0.5208 0.1407   0.693625
 C 0.3769 0.9206 0.75   0.30162
 C 0.14 0.0205 0.75   0.315358
 C 0.1231 0.4206 0.25   0.30162
 C 0.36 0.5205 0.25   0.315358
 C 0.6231 0.0794 0.25   0.30162
 C 0.86 0.9795 0.25   0.315358
 C 0.8769 0.5794 0.75   0.30162
 C 0.64 0.4795 0.75   0.315358
 N 0.1361 0.2949 0.4793   -0.428105
 N 0.1457 0.1558 0.5085   -0.434392
 N 0.0904 0.0218 0.6804   -0.426407
 N 0.4176 0.9478 0.6798   -0.419884
 N 0.3639 0.7949 0.5207   -0.428105
 N 0.3543 0.6558 0.4915   -0.434392
 N 0.4096 0.5218 0.3196   -0.426407
 N 0.0824 0.4478 0.3202   -0.419884
 N 0.8639 0.7051 0.9793   -0.428105
 N 0.8543 0.8442 0.0085   -0.434392
 N 0.9096 0.9782 0.1804   -0.426407
 N 0.5824 0.0522 0.1798   -0.419884
 N 0.6361 0.2051 0.0207   -0.428105
 N 0.6457 0.3442 0.9915   -0.434392
 N 0.5904 0.4782 0.8196   -0.426407
 N 0.9176 0.5522 0.8202   -0.419884
 N 0.8639 0.7051 0.5207   -0.428105
 N 0.8543 0.8442 0.4915   -0.434392
 N 0.9096 0.9782 0.3196   -0.426407
 N 0.5824 0.0522 0.3202   -0.419885
 N 0.6361 0.2051 0.4793   -0.428105
 N 0.6457 0.3442 0.5085   -0.434392
 N 0.5904 0.4782 0.6804   -0.426407
 N 0.9176 0.5522 0.6798   -0.419885
 N 0.1361 0.2949 0.0207   -0.428105
 N 0.1457 0.1558 0.9915   -0.434392
 N 0.0904 0.0218 0.8196   -0.426407
 N 0.4176 0.9478 0.8202   -0.419885
 N 0.3639 0.7949 0.9793   -0.428105
 N 0.3543 0.6558 0.0085   -0.434392
 N 0.4096 0.5218 0.1804   -0.426407
 N 0.0824 0.4478 0.1798   -0.419885
 O 0.2745 0.4071 0.4368   -0.560926
 O 0.3816 0.3057 0.4309   -0.380552
 O 0.3921 0.1507 0.4564   -0.360525
 O 0.2987 0.0519 0.5113   -0.547206
 O 0.842 0.0086 0.6556   -0.647565
 O 0.9553 0.0292 0.5671   -0.594627
 O 0.5156 0.04 0.5709   -0.585005
 O 0.6287 0.07 0.6573   -0.631089
 O 0.2255 0.9071 0.5632   -0.560926
 O 0.1184 0.8057 0.5691   -0.380552
 O 0.1079 0.6507 0.5436   -0.360525
 O 0.2013 0.5519 0.4887   -0.547206
 O 0.658 0.5086 0.3444   -0.647565
 O 0.5447 0.5292 0.4329   -0.594627
 O 0.9844 0.54 0.4291   -0.585005
 O 0.8713 0.57 0.3427   -0.631089
 O 0.7255 0.5929 0.9368   -0.560926
 O 0.6184 0.6943 0.9309   -0.380552
 O 0.6079 0.8493 0.9564   -0.360525
 O 0.7013 0.9481 0.0113   -0.547206
 O 0.158 0.9914 0.1556   -0.647565
 O 0.0447 0.9708 0.0671   -0.594627
 O 0.4844 0.96 0.0709   -0.585005
 O 0.3713 0.93 0.1573   -0.631089
 O 0.7745 0.0929 0.0632   -0.560926
 O 0.8816 0.1943 0.0691   -0.380552
 O 0.8921 0.3493 0.0436   -0.360525
 O 0.7987 0.4481 0.9887   -0.547206
 O 0.342 0.4914 0.8444   -0.647565
 O 0.4553 0.4708 0.9329   -0.594627
 O 0.0156 0.46 0.9291   -0.585005
 O 0.1287 0.43 0.8427   -0.631089
 O 0.7255 0.5929 0.5632   -0.560926
 O 0.6184 0.6943 0.5691   -0.380553
 O 0.6079 0.8493 0.5436   -0.360525
 O 0.7013 0.9481 0.4887   -0.547206
 O 0.158 0.9914 0.3444   -0.647565
 O 0.0447 0.9708 0.4329   -0.594627
 O 0.4844 0.96 0.4291   -0.585005
 O 0.3713 0.93 0.3427   -0.631089
 O 0.7745 0.0929 0.4368   -0.560926
 O 0.8816 0.1943 0.4309   -0.380553
 O 0.8921 0.3493 0.4564   -0.360525
 O 0.7987 0.4481 0.5113   -0.547206
 O 0.342 0.4914 0.6556   -0.647565
 O 0.4553 0.4708 0.5671   -0.594627
 O 0.0156 0.46 0.5709   -0.585005
 O 0.1287 0.43 0.6573   -0.631089
 O 0.2745 0.4071 0.0632   -0.560926
 O 0.3816 0.3057 0.0691   -0.380553
 O 0.3921 0.1507 0.0436   -0.360525
 O 0.2987 0.0519 0.9887   -0.547206
 O 0.842 0.0086 0.8444   -0.647565
 O 0.9553 0.0292 0.9329   -0.594627
 O 0.5156 0.04 0.9291   -0.585005
 O 0.6287 0.07 0.8427   -0.631089
 O 0.2255 0.9071 0.9368   -0.560926
 O 0.1184 0.8057 0.9309   -0.380553
 O 0.1079 0.6507 0.9564   -0.360525
 O 0.2013 0.5519 0.0113   -0.547206
 O 0.658 0.5086 0.1556   -0.647565
 O 0.5447 0.5292 0.0671   -0.594627
 O 0.9844 0.54 0.0709   -0.585005
 O 0.8713 0.57 0.1573   -0.631089
