{'_ref': 'TBD', '_srcid': 'CAKYAQ_clean', 'submitters': [{'name': 'Dalar Nazarian Jeff Camp and David Sholl', 'email': 'dalar@gatech.edu jcamp6@gatech.edu'}], '_method': 'VASP DFT with PBE;DDEC'}
data_DyH3(C3O2)3
_symmetry_space_group_name_H-M   'P 1'
_cell_length_a   10.31310000
_cell_length_b   10.31310000
_cell_length_c   14.49500000
_cell_angle_alpha   90.00000000
_cell_angle_beta   90.00000000
_cell_angle_gamma   90.00000000
_symmetry_Int_Tables_number   1
_chemical_formula_structural   DyH3(C3O2)3
_chemical_formula_sum   'Dy4 H12 C36 O24'
_cell_volume   1541.68865819
_cell_formula_units_Z   4
loop_
 _symmetry_equiv_pos_site_id
 _symmetry_equiv_pos_as_xyz
  1  'x, y, z'
loop_
 _atom_site_label
 _atom_site_fract_x
 _atom_site_fract_y
 _atom_site_fract_z
 _atom_site_charge
 Dy 0.64911 0.64911 0.875   2.380703
 Dy 0.35089 0.35089 0.375   2.380703
 Dy 0.35089 0.64911 0.125   2.380704
 Dy 0.64911 0.35089 0.625   2.380704
 H 0.5827 0.0605 0.8747   0.106899
 H 0.4173 0.9395 0.3747   0.106899
 H 0.9395 0.5827 0.1247   0.106899
 H 0.0605 0.4173 0.6247   0.106899
 H 0.4173 0.0605 0.1253   0.1069
 H 0.5827 0.9395 0.6253   0.1069
 H 0.0605 0.5827 0.8753   0.1069
 H 0.9395 0.4173 0.3753   0.1069
 H 0.5 0.3981 0.0   0.079282
 H 0.5 0.6019 0.5   0.079282
 H 0.6019 0.5 0.25   0.079282
 H 0.3981 0.5 0.75   0.079282
 C 0.548 0.1056 0.9244   0.050727
 C 0.5445 0.239 0.9227   -0.199792
 C 0.5897 0.3162 0.84   0.841528
 C 0.452 0.8944 0.4244   0.050727
 C 0.4555 0.761 0.4227   -0.199792
 C 0.4103 0.6838 0.34   0.841528
 C 0.8944 0.548 0.1744   0.050727
 C 0.761 0.5445 0.1727   -0.199792
 C 0.6838 0.5897 0.09   0.841528
 C 0.1056 0.452 0.6744   0.050727
 C 0.239 0.4555 0.6727   -0.199792
 C 0.3162 0.4103 0.59   0.841528
 C 0.452 0.1056 0.0756   0.050727
 C 0.4555 0.239 0.0773   -0.199792
 C 0.4103 0.3162 0.16   0.841528
 C 0.548 0.8944 0.5756   0.050727
 C 0.5445 0.761 0.5773   -0.199792
 C 0.5897 0.6838 0.66   0.841528
 C 0.1056 0.548 0.8256   0.050726
 C 0.239 0.5445 0.8273   -0.199792
 C 0.3162 0.5897 0.91   0.841528
 C 0.8944 0.452 0.3256   0.050726
 C 0.761 0.4555 0.3273   -0.199792
 C 0.6838 0.4103 0.41   0.841528
 C 0.5 0.8925 0.0   0.867113
 C 0.5 0.0377 0.0   -0.21453
 C 0.5 0.3079 0.0   0.045888
 C 0.5 0.1075 0.5   0.867113
 C 0.5 0.9623 0.5   -0.21453
 C 0.5 0.6921 0.5   0.045888
 C 0.1075 0.5 0.25   0.867113
 C 0.9623 0.5 0.25   -0.21453
 C 0.6921 0.5 0.25   0.045888
 C 0.8925 0.5 0.75   0.867113
 C 0.0377 0.5 0.75   -0.21453
 C 0.3079 0.5 0.75   0.045888
 O 0.5713 0.8353 0.9411   -0.804715
 O 0.5972 0.2572 0.7652   -0.781271
 O 0.6124 0.431 0.8503   -0.792605
 O 0.4287 0.1647 0.4411   -0.804715
 O 0.4028 0.7428 0.2652   -0.781271
 O 0.3876 0.569 0.3503   -0.792605
 O 0.1647 0.5713 0.1911   -0.804715
 O 0.7428 0.5972 0.0152   -0.781271
 O 0.569 0.6124 0.1003   -0.792605
 O 0.8353 0.4287 0.6911   -0.804715
 O 0.2572 0.4028 0.5152   -0.781271
 O 0.431 0.3876 0.6003   -0.792605
 O 0.4287 0.8353 0.0589   -0.804715
 O 0.4028 0.2572 0.2348   -0.781271
 O 0.3876 0.431 0.1497   -0.792605
 O 0.5713 0.1647 0.5589   -0.804715
 O 0.5972 0.7428 0.7348   -0.781271
 O 0.6124 0.569 0.6497   -0.792605
 O 0.8353 0.5713 0.8089   -0.804715
 O 0.2572 0.5972 0.9848   -0.781271
 O 0.431 0.6124 0.8997   -0.792605
 O 0.1647 0.4287 0.3089   -0.804715
 O 0.7428 0.4028 0.4848   -0.781271
 O 0.569 0.3876 0.3997   -0.792605
