{'_ref': 'TBD', '_srcid': 'CAKYAQ_clean', 'submitters': [{'name': 'Dalar Nazarian Jeff Camp and David Sholl', 'email': 'dalar@gatech.edu jcamp6@gatech.edu'}], '_method': 'VASP DFT with PBE;DDEC'}
data_YbKPt2(CN)8
_symmetry_space_group_name_H-M   'P 1'
_cell_length_a   8.85149967
_cell_length_b   15.67330028
_cell_length_c   17.94570000
_cell_angle_alpha   105.45899784
_cell_angle_beta   99.09999947
_cell_angle_gamma   98.58600170
_symmetry_Int_Tables_number   1
_chemical_formula_structural   YbKPt2(CN)8
_chemical_formula_sum   'Yb2 K2 Pt4 C16 N16'
_cell_volume   2320.93520147
_cell_formula_units_Z   2
loop_
 _symmetry_equiv_pos_site_id
 _symmetry_equiv_pos_as_xyz
  1  'x, y, z'
loop_
 _atom_site_label
 _atom_site_fract_x
 _atom_site_fract_y
 _atom_site_fract_z
 _atom_site_charge
 Yb 0.31963 0.16822 0.27452   1.656058
 Yb 0.68037 0.83178 0.72548   1.656058
 K 0.5543 0.7063 0.1191   0.927229
 K 0.4457 0.2937 0.8809   0.927231
 Pt 0.5 0.0 0.5   0.018758
 Pt 0.5 0.5 0.5   0.039267
 Pt 0.5 0.0 0.0   -0.071559
 Pt 0.0 0.5 0.0   0.098766
 C 0.438 0.0624 0.4221   0.289691
 C 0.686 0.1013 0.5485   0.093546
 C 0.408 0.3755 0.4256   0.306559
 C 0.329 0.493 0.5576   0.090893
 C 0.455 0.0626 0.1041   0.320032
 C 0.595 0.9146 0.0484   0.135439
 C 0.171 0.6053 0.0092   0.129462
 C 0.879 0.5814 0.0581   0.161176
 C 0.562 0.9376 0.5779   0.289691
 C 0.314 0.8987 0.4515   0.093546
 C 0.592 0.6245 0.5744   0.306559
 C 0.671 0.507 0.4424   0.090893
 C 0.545 0.9374 0.8959   0.320032
 C 0.405 0.0854 0.9516   0.135439
 C 0.829 0.3947 0.9908   0.129462
 C 0.121 0.4186 0.9419   0.161176
 N 0.405 0.1016 0.3785   -0.646315
 N 0.791 0.1596 0.5758   -0.343073
 N 0.3598 0.3057 0.3796   -0.662161
 N 0.232 0.4888 0.5945   -0.315251
 N 0.4231 0.0968 0.1622   -0.688323
 N 0.647 0.8609 0.0751   -0.494359
 N 0.266 0.6649 0.0154   -0.501339
 N 0.808 0.6273 0.0904   -0.501881
 N 0.595 0.8984 0.6215   -0.646315
 N 0.209 0.8404 0.4242   -0.343073
 N 0.6402 0.6943 0.6204   -0.662161
 N 0.768 0.5112 0.4055   -0.315251
 N 0.5769 0.9032 0.8378   -0.688323
 N 0.353 0.1391 0.9249   -0.49436
 N 0.734 0.3351 0.9846   -0.50134
 N 0.192 0.3727 0.9096   -0.501881
