{'_ref': 'TBD', '_srcid': 'CAKYAQ_clean', 'submitters': [{'name': 'Dalar Nazarian Jeff Camp and David Sholl', 'email': 'dalar@gatech.edu jcamp6@gatech.edu'}], '_method': 'VASP DFT with PBE;DDEC'}
data_CrCoH20C24(N2O)2
_symmetry_space_group_name_H-M   'P 1'
_cell_length_a   13.66180033
_cell_length_b   13.66179970
_cell_length_c   13.66180000
_cell_angle_alpha   103.24399896
_cell_angle_beta   103.24399835
_cell_angle_gamma   103.24400112
_symmetry_Int_Tables_number   1
_chemical_formula_structural   CrCoH20C24(N2O)2
_chemical_formula_sum   'Cr3 Co3 H60 C72 N12 O6'
_cell_volume   2306.91283408
_cell_formula_units_Z   3
loop_
 _symmetry_equiv_pos_site_id
 _symmetry_equiv_pos_as_xyz
  1  'x, y, z'
loop_
 _atom_site_label
 _atom_site_fract_x
 _atom_site_fract_y
 _atom_site_fract_z
 _atom_site_charge
 Cr 0.5 0.28698 0.71302   0.577665
 Cr 0.71302 0.5 0.28698   0.577666
 Cr 0.28698 0.71302 0.5   0.577667
 Co 0.61809 0.38191 0.0   0.671601
 Co 0.0 0.61809 0.38191   0.6716
 Co 0.38191 0.0 0.61809   0.671601
 H 0.0794 0.3498 0.8872   0.093804
 H 0.2369 0.3694 0.8733   0.121226
 H 0.3144 0.333 0.1607   0.120066
 H 0.9044 0.363 0.8153   0.126915
 H 0.7453 0.3773 0.8356   0.041188
 H 0.483 0.3535 0.1534   0.034871
 H 0.138 0.3506 0.0924   0.099275
 H 0.4043 0.3777 0.8701   0.037756
 H 0.9903 0.3596 0.1186   0.114347
 H 0.8288 0.3829 0.1299   0.082463
 H 0.8872 0.0794 0.3498   0.093804
 H 0.8733 0.2369 0.3694   0.121226
 H 0.1607 0.3144 0.333   0.120064
 H 0.8153 0.9044 0.363   0.126913
 H 0.8356 0.7453 0.3773   0.041188
 H 0.1534 0.483 0.3535   0.034871
 H 0.0924 0.138 0.3506   0.099275
 H 0.8701 0.4043 0.3777   0.037756
 H 0.1186 0.9903 0.3596   0.114345
 H 0.1299 0.8288 0.3829   0.082464
 H 0.3498 0.8872 0.0794   0.093804
 H 0.3694 0.8733 0.2369   0.121226
 H 0.333 0.1607 0.3144   0.120064
 H 0.363 0.8153 0.9044   0.126915
 H 0.3773 0.8356 0.7453   0.041188
 H 0.3535 0.1534 0.483   0.034871
 H 0.3506 0.0924 0.138   0.099275
 H 0.3777 0.8701 0.4043   0.037756
 H 0.3596 0.1186 0.9903   0.114345
 H 0.3829 0.1299 0.8288   0.082464
 H 0.6502 0.9206 0.1128   0.093803
 H 0.6306 0.7631 0.1267   0.121225
 H 0.667 0.6856 0.8393   0.120066
 H 0.637 0.0956 0.1847   0.126914
 H 0.6227 0.2547 0.1644   0.041189
 H 0.6465 0.517 0.8466   0.034871
 H 0.6494 0.862 0.9076   0.099275
 H 0.6223 0.5957 0.1299   0.037756
 H 0.6404 0.0097 0.8814   0.114345
 H 0.6171 0.1712 0.8701   0.082464
 H 0.9206 0.1128 0.6502   0.093803
 H 0.7631 0.1267 0.6306   0.121224
 H 0.6856 0.8393 0.667   0.120064
 H 0.0956 0.1847 0.637   0.126914
 H 0.2547 0.1644 0.6227   0.041189
 H 0.517 0.8466 0.6465   0.034871
 H 0.862 0.9076 0.6494   0.099275
 H 0.5957 0.1299 0.6223   0.037756
 H 0.0097 0.8814 0.6404   0.114347
 H 0.1712 0.8701 0.6171   0.082463
 H 0.1128 0.6502 0.9206   0.093803
 H 0.1267 0.6306 0.7631   0.121224
 H 0.8393 0.667 0.6856   0.120063
 H 0.1847 0.637 0.0956   0.126912
 H 0.1644 0.6227 0.2547   0.041188
 H 0.8466 0.6465 0.517   0.034871
 H 0.9076 0.6494 0.862   0.099275
 H 0.1299 0.6223 0.5957   0.037756
 H 0.8814 0.6404 0.0097   0.114345
 H 0.8701 0.6171 0.1712   0.082464
 C 0.07 0.3543 0.9539   -0.122413
 C 0.2856 0.3659 0.9322   -0.227346
 C 0.3317 0.3461 0.1012   -0.231975
 C 0.2552 0.3554 0.0202   0.13029
 C 0.8916 0.3664 0.8805   -0.233265
 C 0.7966 0.3757 0.8939   0.167991
 C 0.4319 0.3556 0.0953   0.155806
 C 0.9684 0.3618 0.9649   0.117951
 C 0.1499 0.3532 0.0278   -0.14286
 C 0.3862 0.3711 0.9311   0.171729
 C 0.9425 0.3654 0.0601   -0.201797
 C 0.8447 0.3778 0.066   0.149181
 C 0.9539 0.07 0.3543   -0.122412
 C 0.9322 0.2856 0.3659   -0.227349
 C 0.1012 0.3317 0.3461   -0.231978
 C 0.0202 0.2552 0.3554   0.130297
 C 0.8805 0.8916 0.3664   -0.233261
 C 0.8939 0.7966 0.3757   0.167989
 C 0.0953 0.4319 0.3556   0.155805
 C 0.9649 0.9684 0.3618   0.117948
 C 0.0278 0.1499 0.3532   -0.142863
 C 0.9311 0.3862 0.3711   0.17173
 C 0.0601 0.9425 0.3654   -0.201785
 C 0.066 0.8447 0.3778   0.149172
 C 0.3543 0.9539 0.07   -0.122412
 C 0.3659 0.9322 0.2856   -0.227346
 C 0.3461 0.1012 0.3317   -0.231975
 C 0.3554 0.0202 0.2552   0.130291
 C 0.3664 0.8805 0.8916   -0.233264
 C 0.3757 0.8939 0.7966   0.16799
 C 0.3556 0.0953 0.4319   0.155804
 C 0.3618 0.9649 0.9684   0.117948
 C 0.3532 0.0278 0.1499   -0.142863
 C 0.3711 0.9311 0.3862   0.171729
 C 0.3654 0.0601 0.9425   -0.201786
 C 0.3778 0.066 0.8447   0.149172
 C 0.6457 0.93 0.0461   -0.122414
 C 0.6341 0.7144 0.0678   -0.227349
 C 0.6539 0.6683 0.8988   -0.231979
 C 0.6446 0.7448 0.9798   0.130298
 C 0.6336 0.1084 0.1195   -0.233265
 C 0.6243 0.2034 0.1061   0.167989
 C 0.6444 0.5681 0.9047   0.155805
 C 0.6382 0.0316 0.0351   0.117947
 C 0.6468 0.8501 0.9722   -0.142864
 C 0.6289 0.6138 0.0689   0.171729
 C 0.6346 0.0575 0.9399   -0.201787
 C 0.6222 0.1553 0.934   0.149171
 C 0.93 0.0461 0.6457   -0.122415
 C 0.7144 0.0678 0.6341   -0.227346
 C 0.6683 0.8988 0.6539   -0.231974
 C 0.7448 0.9798 0.6446   0.13029
 C 0.1084 0.1195 0.6336   -0.233265
 C 0.2034 0.1061 0.6243   0.167989
 C 0.5681 0.9047 0.6444   0.155805
 C 0.0316 0.0351 0.6382   0.11795
 C 0.8501 0.9722 0.6468   -0.142863
 C 0.6138 0.0689 0.6289   0.171729
 C 0.0575 0.9399 0.6346   -0.201799
 C 0.1553 0.934 0.6222   0.149181
 C 0.0461 0.6457 0.93   -0.122415
 C 0.0678 0.6341 0.7144   -0.227346
 C 0.8988 0.6539 0.6683   -0.231974
 C 0.9798 0.6446 0.7448   0.13029
 C 0.1195 0.6336 0.1084   -0.233262
 C 0.1061 0.6243 0.2034   0.16799
 C 0.9047 0.6444 0.5681   0.155805
 C 0.0351 0.6382 0.0316   0.117948
 C 0.9722 0.6468 0.8501   -0.142864
 C 0.0689 0.6289 0.6138   0.171729
 C 0.9399 0.6346 0.0575   -0.201788
 C 0.934 0.6222 0.1553   0.149171
 N 0.45992 0.36752 0.01132   -0.303889
 N 0.77313 0.38257 0.9831   -0.316148
 N 0.01132 0.45992 0.36752   -0.303889
 N 0.9831 0.77313 0.38257   -0.316146
 N 0.36752 0.01132 0.45992   -0.303888
 N 0.38257 0.9831 0.77313   -0.316147
 N 0.63248 0.54008 0.98868   -0.303889
 N 0.61743 0.22687 0.0169   -0.316147
 N 0.54008 0.98868 0.63248   -0.303889
 N 0.22687 0.0169 0.61743   -0.316148
 N 0.98868 0.63248 0.54008   -0.303889
 N 0.0169 0.61743 0.22687   -0.316147
 O 0.55842 0.32566 0.84018   -0.609791
 O 0.84018 0.55842 0.32566   -0.609791
 O 0.32566 0.84018 0.55842   -0.609791
 O 0.67434 0.44158 0.15982   -0.609791
 O 0.44158 0.15982 0.67434   -0.609791
 O 0.15982 0.67434 0.44158   -0.609791
