{'_ref': 'TBD', '_srcid': 'CAKYAQ_clean', 'submitters': [{'name': 'Dalar Nazarian Jeff Camp and David Sholl', 'email': 'dalar@gatech.edu jcamp6@gatech.edu'}], '_method': 'VASP DFT with PBE;DDEC'}
data_H4Pb(C2O)4
_symmetry_space_group_name_H-M   'P 1'
_cell_length_a   6.79920000
_cell_length_b   11.55300010
_cell_length_c   17.05800000
_cell_angle_alpha   92.48999841
_cell_angle_beta   90.00000000
_cell_angle_gamma   90.00000000
_symmetry_Int_Tables_number   1
_chemical_formula_structural   H4Pb(C2O)4
_chemical_formula_sum   'H16 Pb4 C32 O16'
_cell_volume   1338.66052828
_cell_formula_units_Z   4
loop_
 _symmetry_equiv_pos_site_id
 _symmetry_equiv_pos_as_xyz
  1  'x, y, z'
loop_
 _atom_site_label
 _atom_site_fract_x
 _atom_site_fract_y
 _atom_site_fract_z
 _atom_site_charge
 H 0.2807 0.1071 0.0265   0.101224
 H 0.7335 0.0155 0.0839   0.082477
 H 0.3499 0.3969 0.0974   0.101926
 H 0.8345 0.5374 0.0055   0.10361
 H 0.7807 0.3929 0.4735   0.101224
 H 0.2335 0.4845 0.4161   0.082477
 H 0.8499 0.1031 0.4026   0.101926
 H 0.3345 0.9626 0.4945   0.10361
 H 0.7193 0.8929 0.9735   0.101224
 H 0.2665 0.9845 0.9161   0.082477
 H 0.6501 0.6031 0.9026   0.101925
 H 0.1655 0.4626 0.9945   0.10361
 H 0.2193 0.6071 0.5265   0.101224
 H 0.7665 0.5155 0.5839   0.082477
 H 0.1501 0.8969 0.5974   0.101925
 H 0.6655 0.0374 0.5055   0.10361
 Pb 0.94942 0.34285 0.25693   1.140412
 Pb 0.44942 0.15715 0.24307   1.140411
 Pb 0.05058 0.65715 0.74307   1.140412
 Pb 0.55058 0.84285 0.75693   1.140411
 C 0.0194 0.154 0.1385   0.678206
 C 0.0106 0.073 0.067   -0.121777
 C 0.1676 0.0638 0.0161   -0.061225
 C 0.8411 0.0092 0.0504   -0.038478
 C 0.7338 0.4177 0.1274   0.653051
 C 0.6109 0.4599 0.0615   -0.132524
 C 0.41 0.4381 0.0583   -0.050357
 C 0.7002 0.5224 0.0031   -0.05242
 C 0.5194 0.346 0.3615   0.678206
 C 0.5106 0.427 0.433   -0.121777
 C 0.6676 0.4362 0.4839   -0.061225
 C 0.3411 0.4908 0.4496   -0.038478
 C 0.2338 0.0823 0.3726   0.653051
 C 0.1109 0.0401 0.4385   -0.132523
 C 0.91 0.0619 0.4417   -0.050357
 C 0.2002 0.9776 0.4969   -0.05242
 C 0.9806 0.846 0.8615   0.678207
 C 0.9894 0.927 0.933   -0.121778
 C 0.8324 0.9362 0.9839   -0.061222
 C 0.1589 0.9908 0.9496   -0.038475
 C 0.2662 0.5823 0.8726   0.653051
 C 0.3891 0.5401 0.9385   -0.132525
 C 0.59 0.5619 0.9417   -0.050352
 C 0.2998 0.4776 0.9969   -0.052415
 C 0.4806 0.654 0.6385   0.678207
 C 0.4894 0.573 0.567   -0.121778
 C 0.3324 0.5638 0.5161   -0.061222
 C 0.6589 0.5092 0.5504   -0.038475
 C 0.7662 0.9177 0.6274   0.653051
 C 0.8891 0.9599 0.5615   -0.132525
 C 0.09 0.9381 0.5583   -0.050352
 C 0.7998 0.0224 0.5031   -0.052415
 O 0.8699 0.1644 0.1804   -0.589964
 O 0.1779 0.2095 0.15181   -0.624662
 O 0.6459 0.3709 0.1839   -0.623732
 O 0.9157 0.4302 0.1262   -0.565774
 O 0.3699 0.3356 0.3196   -0.589964
 O 0.6779 0.2905 0.34819   -0.624662
 O 0.1459 0.1291 0.3161   -0.623732
 O 0.4157 0.0698 0.3738   -0.565774
 O 0.1301 0.8356 0.8196   -0.589964
 O 0.8221 0.7905 0.84819   -0.624662
 O 0.3541 0.6291 0.8161   -0.623732
 O 0.0843 0.5698 0.8738   -0.565774
 O 0.6301 0.6644 0.6804   -0.589964
 O 0.3221 0.7095 0.65181   -0.624662
 O 0.8541 0.8709 0.6839   -0.623732
 O 0.5843 0.9302 0.6262   -0.565774
