{'_ref': 'TBD', '_srcid': 'CAKYAQ_clean', 'submitters': [{'name': 'Dalar Nazarian Jeff Camp and David Sholl', 'email': 'dalar@gatech.edu jcamp6@gatech.edu'}], '_method': 'VASP DFT with PBE;DDEC'}
data_Np2C3O7
_symmetry_space_group_name_H-M   'P 1'
_cell_length_a   8.85600000
_cell_length_b   9.06899970
_cell_length_c   15.53500000
_cell_angle_alpha   90.00000000
_cell_angle_beta   90.00000000
_cell_angle_gamma   114.43000117
_symmetry_Int_Tables_number   1
_chemical_formula_structural   Np2C3O7
_chemical_formula_sum   'Np8 C12 O28'
_cell_volume   1135.98493032
_cell_formula_units_Z   4
loop_
 _symmetry_equiv_pos_site_id
 _symmetry_equiv_pos_as_xyz
  1  'x, y, z'
loop_
 _atom_site_label
 _atom_site_fract_x
 _atom_site_fract_y
 _atom_site_fract_z
 _atom_site_charge
 Np 0.24759 0.37432 0.35839   2.252712
 Np 0.76785 0.64318 0.37264   2.59346
 Np 0.25241 0.12568 0.85839   2.252712
 Np 0.73215 0.85682 0.87264   2.59346
 Np 0.75241 0.62568 0.64161   2.252715
 Np 0.23215 0.35682 0.62736   2.593462
 Np 0.74759 0.87432 0.14161   2.252715
 Np 0.26785 0.14318 0.12736   2.593462
 C 0.129 0.968 0.4208   0.830215
 C 0.168 0.706 0.3936   0.820849
 C 0.194 0.848 0.4556   -0.551815
 C 0.371 0.532 0.9208   0.830215
 C 0.332 0.794 0.8936   0.820849
 C 0.306 0.652 0.9556   -0.551815
 C 0.871 0.032 0.5792   0.830214
 C 0.832 0.294 0.6064   0.820849
 C 0.806 0.152 0.5444   -0.551814
 C 0.629 0.468 0.0792   0.830214
 C 0.668 0.206 0.1064   0.820849
 C 0.694 0.348 0.0444   -0.551814
 O 0.4744 0.4559 0.3713   -0.982083
 O 0.784 0.6 0.4873   -0.978141
 O 0.7555 0.6918 0.2584   -1.039939
 O 0.228 0.1152 0.4225   -0.667835
 O 0.9807 0.9182 0.3958   -0.768142
 O 0.2808 0.6559 0.3925   -0.715362
 O 0.04 0.647 0.3501   -0.793922
 O 0.0256 0.0441 0.8713   -0.982083
 O 0.716 0.9 0.9873   -0.978141
 O 0.7445 0.8082 0.7584   -1.039939
 O 0.272 0.3848 0.9225   -0.667835
 O 0.5193 0.5818 0.8958   -0.768142
 O 0.2192 0.8441 0.8925   -0.715362
 O 0.46 0.853 0.8501   -0.793922
 O 0.5256 0.5441 0.6287   -0.982083
 O 0.216 0.4 0.5127   -0.978141
 O 0.2445 0.3082 0.7416   -1.039939
 O 0.772 0.8848 0.5775   -0.667835
 O 0.0193 0.0818 0.6042   -0.768142
 O 0.7192 0.3441 0.6075   -0.715362
 O 0.96 0.353 0.6499   -0.793922
 O 0.9744 0.9559 0.1287   -0.982083
 O 0.284 0.1 0.0127   -0.978141
 O 0.2555 0.1918 0.2416   -1.039939
 O 0.728 0.6152 0.0775   -0.667835
 O 0.4807 0.4182 0.1042   -0.768142
 O 0.7808 0.1559 0.1075   -0.715362
 O 0.54 0.147 0.1499   -0.793922
