{'_ref': 'TBD', '_srcid': 'CAKYAQ_clean', 'submitters': [{'name': 'Dalar Nazarian Jeff Camp and David Sholl', 'email': 'dalar@gatech.edu jcamp6@gatech.edu'}], '_method': 'VASP DFT with PBE;DDEC'}
data_ZnPC3O5
_symmetry_space_group_name_H-M   'P 1'
_cell_length_a   9.88500000
_cell_length_b   10.02000000
_cell_length_c   16.43800000
_cell_angle_alpha   90.00000000
_cell_angle_beta   90.00000000
_cell_angle_gamma   90.00000000
_symmetry_Int_Tables_number   1
_chemical_formula_structural   ZnPC3O5
_chemical_formula_sum   'Zn8 P8 C24 O40'
_cell_volume   1628.1460926
_cell_formula_units_Z   8
loop_
 _symmetry_equiv_pos_site_id
 _symmetry_equiv_pos_as_xyz
  1  'x, y, z'
loop_
 _atom_site_label
 _atom_site_fract_x
 _atom_site_fract_y
 _atom_site_fract_z
 _atom_site_charge
 Zn 0.6438 0.5966 0.79665   1.101289
 Zn 0.8562 0.9034 0.79665   1.101289
 Zn 0.3562 0.0966 0.70335   1.101289
 Zn 0.1438 0.4034 0.70335   1.101289
 Zn 0.3562 0.4034 0.20335   1.101289
 Zn 0.1438 0.0966 0.20335   1.101289
 Zn 0.6438 0.9034 0.29665   1.101289
 Zn 0.8562 0.5966 0.29665   1.101289
 P 0.9271 0.6373 0.7128   1.361119
 P 0.5729 0.8627 0.7128   1.361119
 P 0.0729 0.1373 0.7872   1.361119
 P 0.4271 0.3627 0.7872   1.361119
 P 0.0729 0.3627 0.2872   1.361119
 P 0.4271 0.1373 0.2872   1.361119
 P 0.9271 0.8627 0.2128   1.361119
 P 0.5729 0.6373 0.2128   1.361119
 C 0.859 0.588 0.6178   -0.175955
 C 0.916 0.659 0.5452   0.025968
 C 0.639 0.611 0.9616   0.571543
 C 0.641 0.912 0.6178   -0.175956
 C 0.584 0.841 0.5452   0.025968
 C 0.861 0.889 0.9616   0.571544
 C 0.141 0.088 0.8822   -0.175955
 C 0.084 0.159 0.9548   0.025968
 C 0.361 0.111 0.5384   0.571543
 C 0.359 0.412 0.8822   -0.175956
 C 0.416 0.341 0.9548   0.025968
 C 0.139 0.389 0.5384   0.571544
 C 0.141 0.412 0.3822   -0.175955
 C 0.084 0.341 0.4548   0.025968
 C 0.361 0.389 0.0384   0.571544
 C 0.359 0.088 0.3822   -0.175956
 C 0.416 0.159 0.4548   0.025968
 C 0.139 0.111 0.0384   0.571544
 C 0.859 0.912 0.1178   -0.175955
 C 0.916 0.841 0.0452   0.025968
 C 0.639 0.889 0.4616   0.571544
 C 0.641 0.588 0.1178   -0.175956
 C 0.584 0.659 0.0452   0.025968
 C 0.861 0.611 0.4616   0.571544
 O 0.838 0.5814 0.7798   -0.726927
 O 0.5711 0.4174 0.7809   -0.648193
 O 0.5664 0.7107 0.7124   -0.679098
 O 0.584 0.666 0.9013   -0.514421
 O 0.727 0.526 0.9586   -0.315326
 O 0.662 0.9186 0.7798   -0.726927
 O 0.9289 0.0826 0.7809   -0.648192
 O 0.9336 0.7893 0.7124   -0.679098
 O 0.916 0.834 0.9013   -0.514421
 O 0.773 0.974 0.9586   -0.315326
 O 0.162 0.0814 0.7202   -0.726927
 O 0.4289 0.9174 0.7191   -0.648193
 O 0.4336 0.2107 0.7876   -0.679097
 O 0.416 0.166 0.5987   -0.514421
 O 0.273 0.026 0.5414   -0.315326
 O 0.338 0.4186 0.7202   -0.726927
 O 0.0711 0.5826 0.7191   -0.648192
 O 0.0664 0.2893 0.7876   -0.679097
 O 0.084 0.334 0.5987   -0.514421
 O 0.227 0.474 0.5414   -0.315326
 O 0.162 0.4186 0.2202   -0.726927
 O 0.4289 0.5826 0.2191   -0.648193
 O 0.4336 0.2893 0.2876   -0.679098
 O 0.416 0.334 0.0987   -0.514421
 O 0.273 0.474 0.0414   -0.315326
 O 0.338 0.0814 0.2202   -0.726927
 O 0.0711 0.9174 0.2191   -0.648192
 O 0.0664 0.2107 0.2876   -0.679098
 O 0.084 0.166 0.0987   -0.514421
 O 0.227 0.026 0.0414   -0.315326
 O 0.838 0.9186 0.2798   -0.726927
 O 0.5711 0.0826 0.2809   -0.648193
 O 0.5664 0.7893 0.2124   -0.679097
 O 0.584 0.834 0.4013   -0.514421
 O 0.727 0.974 0.4586   -0.315326
 O 0.662 0.5814 0.2798   -0.726927
 O 0.9289 0.4174 0.2809   -0.648192
 O 0.9336 0.7107 0.2124   -0.679097
 O 0.916 0.666 0.4013   -0.514421
 O 0.773 0.526 0.4586   -0.315326
