{'_ref': 'TBD', '_srcid': 'CAKYAQ_clean', 'submitters': [{'name': 'Dalar Nazarian Jeff Camp and David Sholl', 'email': 'dalar@gatech.edu jcamp6@gatech.edu'}], '_method': 'VASP DFT with PBE;DDEC'}
data_Cd3(C4N3)2
_symmetry_space_group_name_H-M   'P 1'
_cell_length_a   8.87500000
_cell_length_b   13.84300000
_cell_length_c   21.93400000
_cell_angle_alpha   90.00000000
_cell_angle_beta   90.00000000
_cell_angle_gamma   90.00000000
_symmetry_Int_Tables_number   1
_chemical_formula_structural   Cd3(C4N3)2
_chemical_formula_sum   'Cd12 C32 N24'
_cell_volume   2694.73721275
_cell_formula_units_Z   4
loop_
 _symmetry_equiv_pos_site_id
 _symmetry_equiv_pos_as_xyz
  1  'x, y, z'
loop_
 _atom_site_label
 _atom_site_fract_x
 _atom_site_fract_y
 _atom_site_fract_z
 _atom_site_charge
 Cd 0.75 0.6855 0.8693   0.974626
 Cd 0.25 0.1855 0.6307   0.974626
 Cd 0.25 0.3145 0.1307   0.974627
 Cd 0.75 0.8145 0.3693   0.974627
 Cd 0.25 0.5661 0.7272   0.598466
 Cd 0.25 0.6836 0.0236   0.587111
 Cd 0.75 0.0661 0.7728   0.598466
 Cd 0.75 0.1836 0.4764   0.587111
 Cd 0.75 0.4339 0.2728   0.59845
 Cd 0.75 0.3164 0.9764   0.587096
 Cd 0.25 0.9339 0.2272   0.598451
 Cd 0.25 0.8164 0.5236   0.587096
 C 0.05 0.709 0.969   -0.020423
 C 0.047 0.613 0.774   -0.011722
 C 0.95 0.209 0.531   -0.020423
 C 0.953 0.113 0.726   -0.011722
 C 0.55 0.291 0.031   -0.02042
 C 0.547 0.387 0.226   -0.01172
 C 0.45 0.791 0.469   -0.02042
 C 0.453 0.887 0.274   -0.01172
 C 0.95 0.291 0.031   -0.02042
 C 0.953 0.387 0.226   -0.01172
 C 0.05 0.791 0.469   -0.02042
 C 0.047 0.887 0.274   -0.01172
 C 0.45 0.709 0.969   -0.020423
 C 0.453 0.613 0.774   -0.011722
 C 0.55 0.209 0.531   -0.020423
 C 0.547 0.113 0.726   -0.011722
 C 0.75 0.458 0.934   -0.014137
 C 0.75 0.918 0.808   -0.028196
 C 0.25 0.958 0.566   -0.014137
 C 0.25 0.418 0.692   -0.028196
 C 0.25 0.542 0.066   -0.014139
 C 0.25 0.082 0.192   -0.028193
 C 0.75 0.042 0.434   -0.014139
 C 0.75 0.582 0.308   -0.028193
 C 0.25 0.783 0.111   -0.162374
 C 0.25 0.667 0.649   -0.142499
 C 0.75 0.283 0.389   -0.162374
 C 0.75 0.167 0.851   -0.142499
 C 0.75 0.217 0.889   -0.16225
 C 0.75 0.333 0.351   -0.142373
 C 0.25 0.717 0.611   -0.16225
 C 0.25 0.833 0.149   -0.142373
 N 0.954 0.718 0.9372   -0.296128
 N 0.944 0.64 0.797   -0.289577
 N 0.046 0.218 0.5628   -0.296128
 N 0.056 0.14 0.703   -0.289577
 N 0.454 0.282 0.0628   -0.296129
 N 0.444 0.36 0.203   -0.289578
 N 0.546 0.782 0.4372   -0.296129
 N 0.556 0.86 0.297   -0.289578
 N 0.046 0.282 0.0628   -0.296129
 N 0.056 0.36 0.203   -0.289578
 N 0.954 0.782 0.4372   -0.296129
 N 0.944 0.86 0.297   -0.289578
 N 0.546 0.718 0.9372   -0.296128
 N 0.556 0.64 0.797   -0.289577
 N 0.454 0.218 0.5628   -0.296128
 N 0.444 0.14 0.703   -0.289577
 N 0.75 0.528 0.908   -0.291865
 N 0.75 0.847 0.83   -0.285545
 N 0.25 0.028 0.592   -0.291865
 N 0.25 0.347 0.67   -0.285545
 N 0.25 0.472 0.092   -0.291864
 N 0.25 0.153 0.17   -0.285546
 N 0.75 0.972 0.408   -0.291864
 N 0.75 0.653 0.33   -0.285546
