{'_ref': 'TBD', '_srcid': 'CAKYAQ_clean', 'submitters': [{'name': 'Dalar Nazarian Jeff Camp and David Sholl', 'email': 'dalar@gatech.edu jcamp6@gatech.edu'}], '_method': 'VASP DFT with PBE;DDEC'}
data_Co3H22C38(NO3)4
_symmetry_space_group_name_H-M   'P 1'
_cell_length_a   11.05800010
_cell_length_b   12.03399994
_cell_length_c   16.16780000
_cell_angle_alpha   99.94670205
_cell_angle_beta   109.99700167
_cell_angle_gamma   89.99999960
_symmetry_Int_Tables_number   1
_chemical_formula_structural   Co3H22C38(NO3)4
_chemical_formula_sum   'Co6 H44 C76 N8 O24'
_cell_volume   1987.3204965
_cell_formula_units_Z   2
loop_
 _symmetry_equiv_pos_site_id
 _symmetry_equiv_pos_as_xyz
  1  'x, y, z'
loop_
 _atom_site_label
 _atom_site_fract_x
 _atom_site_fract_y
 _atom_site_fract_z
 _atom_site_charge
 Co 0.20475 0.52844 0.22572   0.912691
 Co 0.97903 0.97156 0.77428   0.911905
 Co 0.79525 0.47156 0.77428   0.912691
 Co 0.02097 0.02844 0.22572   0.911905
 Co 0.05244 0.75 0.0   1.091539
 Co 0.94756 0.25 0.0   1.091539
 H 0.7479 0.4053 0.1782   0.097832
 H 0.6582 0.5238 0.2656   0.120931
 H 0.7198 0.7151 0.3018   0.101538
 H 0.3749 0.6835 0.1686   0.072398
 H 0.5026 0.6717 0.0836   0.122242
 H 0.3655 0.352 0.9822   0.122058
 H 0.2404 0.3725 0.0706   0.077634
 H 0.0945 0.3551 0.302   0.080381
 H 0.0085 0.3392 0.4092   0.125961
 H 0.0564 0.6732 0.4872   0.132998
 H 0.1341 0.6807 0.3736   0.076481
 H 0.5697 0.0947 0.8218   0.09742
 H 0.3926 0.9762 0.7344   0.121941
 H 0.418 0.7849 0.6982   0.101489
 H 0.2063 0.8165 0.8314   0.072836
 H 0.419 0.8283 0.9164   0.122336
 H 0.3833 0.148 0.0178   0.121791
 H 0.1698 0.1275 0.9294   0.077937
 H 0.7925 0.1449 0.698   0.07998
 H 0.5993 0.1608 0.5908   0.126225
 H 0.5692 0.8268 0.5128   0.132221
 H 0.7605 0.8193 0.6264   0.076926
 H 0.2521 0.5947 0.8218   0.097834
 H 0.3418 0.4762 0.7344   0.120931
 H 0.2802 0.2849 0.6982   0.101538
 H 0.6251 0.3165 0.8314   0.072399
 H 0.4974 0.3283 0.9164   0.122242
 H 0.6345 0.648 0.0178   0.122057
 H 0.7596 0.6275 0.9294   0.077633
 H 0.9055 0.6449 0.698   0.080382
 H 0.9915 0.6608 0.5908   0.125958
 H 0.9436 0.3268 0.5128   0.132996
 H 0.8659 0.3193 0.6264   0.076482
 H 0.4303 0.9053 0.1782   0.097422
 H 0.6074 0.0238 0.2656   0.121941
 H 0.582 0.2151 0.3018   0.101489
 H 0.7937 0.1835 0.1686   0.072837
 H 0.581 0.1717 0.0836   0.122336
 H 0.6167 0.852 0.9822   0.12179
 H 0.8302 0.8725 0.0706   0.077937
 H 0.2075 0.8551 0.302   0.079981
 H 0.4007 0.8392 0.4092   0.126222
 H 0.4308 0.1732 0.4872   0.132218
 H 0.2395 0.1807 0.3736   0.076927
 C 0.9077 0.6367 0.1882   -0.051704
 C 0.8664 0.5215 0.1652   -0.160847
 C 0.7739 0.4818 0.194   -0.026867
 C 0.7193 0.5521 0.2456   -0.12022
 C 0.7569 0.6666 0.2672   -0.028129
 C 0.8481 0.7099 0.2388   -0.141099
 C 0.01 0.6782 0.155   0.700588
 C 0.9255 0.4387 0.1122   0.664045
 C 0.8848 0.8349 0.2646   0.65093
 C 0.3746 0.6148 0.1318   0.171269
 C 0.4524 0.6084 0.0814   -0.174799
 C 0.456 0.5056 0.0258   0.089384
 C 0.3719 0.4199 0.0214   -0.18611
 C 0.2957 0.4331 0.0746   0.204184
 C 0.0872 0.4203 0.3398   0.196145
 C 0.0368 0.4102 0.405   -0.196078
 C 0.0276 0.504 0.4646   0.092613
 C 0.0638 0.6066 0.4508   -0.180674
 C 0.1113 0.6104 0.3824   0.179159
 C 0.7195 0.8633 0.8118   -0.049927
 C 0.7012 0.9785 0.8348   -0.161095
 C 0.5799 0.0182 0.806   -0.02536
 C 0.4737 0.9479 0.7544   -0.122479
 C 0.4897 0.8334 0.7328   -0.027276
 C 0.6093 0.7901 0.7612   -0.142795
 C 0.855 0.8218 0.845   0.699528
 C 0.8133 0.0613 0.8878   0.663369
 C 0.6202 0.6651 0.7354   0.65185
 C 0.2428 0.8852 0.8682   0.170622
 C 0.371 0.8916 0.9186   -0.174513
 C 0.4302 0.9944 0.9742   0.089703
 C 0.3505 0.0801 0.9786   -0.186402
 C 0.2211 0.0669 0.9254   0.203577
 C 0.7474 0.0797 0.6602   0.197381
 C 0.6318 0.0898 0.595   -0.197644
 C 0.563 0.996 0.5354   0.092422
 C 0.613 0.8934 0.5492   -0.178754
 C 0.7289 0.8896 0.6176   0.177751
 C 0.0923 0.3633 0.8118   -0.051704
 C 0.1336 0.4785 0.8348   -0.160847
 C 0.2261 0.5182 0.806   -0.026868
 C 0.2807 0.4479 0.7544   -0.12022
 C 0.2431 0.3334 0.7328   -0.028129
 C 0.1519 0.2901 0.7612   -0.141099
 C 0.99 0.3218 0.845   0.700588
 C 0.0745 0.5613 0.8878   0.664046
 C 0.1152 0.1651 0.7354   0.65093
 C 0.6254 0.3852 0.8682   0.171269
 C 0.5476 0.3916 0.9186   -0.174799
 C 0.544 0.4944 0.9742   0.089383
 C 0.6281 0.5801 0.9786   -0.186109
 C 0.7043 0.5669 0.9254   0.204185
 C 0.9128 0.5797 0.6602   0.196145
 C 0.9632 0.5898 0.595   -0.196077
 C 0.9724 0.496 0.5354   0.092616
 C 0.9362 0.3934 0.5492   -0.180673
 C 0.8887 0.3896 0.6176   0.179158
 C 0.2805 0.1367 0.1882   -0.049927
 C 0.2988 0.0215 0.1652   -0.161095
 C 0.4201 0.9818 0.194   -0.025361
 C 0.5263 0.0521 0.2456   -0.122478
 C 0.5103 0.1666 0.2672   -0.027276
 C 0.3907 0.2099 0.2388   -0.142795
 C 0.145 0.1782 0.155   0.699528
 C 0.1867 0.9387 0.1122   0.66337
 C 0.3798 0.3349 0.2646   0.651851
 C 0.7572 0.1148 0.1318   0.170622
 C 0.629 0.1084 0.0814   -0.174513
 C 0.5698 0.0056 0.0258   0.089701
 C 0.6495 0.9199 0.0214   -0.186401
 C 0.7789 0.9331 0.0746   0.203578
 C 0.2526 0.9203 0.3398   0.19738
 C 0.3682 0.9102 0.405   -0.197643
 C 0.437 0.004 0.4646   0.092423
 C 0.387 0.1066 0.4508   -0.178753
 C 0.2711 0.1104 0.3824   0.177751
 N 0.2983 0.5284 0.1318   -0.349104
 N 0.1261 0.519 0.3288   -0.37609
 N 0.1665 0.9716 0.8682   -0.348604
 N 0.7973 0.981 0.6712   -0.375156
 N 0.7017 0.4716 0.8682   -0.349105
 N 0.8739 0.481 0.6712   -0.376089
 N 0.8335 0.0284 0.1318   -0.348604
 N 0.2027 0.019 0.3288   -0.375156
 O 0.96564 0.6992 0.07688   -0.576626
 O 0.12598 0.6812 0.20176   -0.608055
 O 0.97033 0.8689 0.23826   -0.5866
 O 0.8299 0.8962 0.3086   -0.622488
 O 0.04221 0.4501 0.12142   -0.564691
 O 0.8534 0.356 0.0596   -0.586943
 O 0.88876 0.8008 0.92312   -0.576211
 O 0.92422 0.8188 0.79824   -0.607878
 O 0.73207 0.6311 0.76174   -0.58738
 O 0.5213 0.6038 0.6914   -0.622288
 O 0.92079 0.0499 0.87858   -0.564313
 O 0.7938 0.144 0.9404   -0.587016
 O 0.03436 0.3008 0.92312   -0.576625
 O 0.87402 0.3188 0.79824   -0.608055
 O 0.02967 0.1311 0.76174   -0.5866
 O 0.1701 0.1038 0.6914   -0.622489
 O 0.95779 0.5499 0.87858   -0.56469
 O 0.1466 0.644 0.9404   -0.586943
 O 0.11124 0.1992 0.07688   -0.576211
 O 0.07578 0.1812 0.20176   -0.607878
 O 0.26793 0.3689 0.23826   -0.587379
 O 0.4787 0.3962 0.3086   -0.622289
 O 0.07921 0.9501 0.12142   -0.564312
 O 0.2062 0.856 0.0596   -0.587016
