{'_ref': 'TBD', '_srcid': 'CAKYAQ_clean', 'submitters': [{'name': 'Dalar Nazarian Jeff Camp and David Sholl', 'email': 'dalar@gatech.edu jcamp6@gatech.edu'}], '_method': 'VASP DFT with PBE;DDEC'}
data_ZnH6C4N3
_symmetry_space_group_name_H-M   'P 1'
_cell_length_a   11.34690030
_cell_length_b   12.28710000
_cell_length_c   12.28710020
_cell_angle_alpha   110.96900073
_cell_angle_beta   107.92800208
_cell_angle_gamma   107.92839694
_symmetry_Int_Tables_number   1
_chemical_formula_structural   ZnH6C4N3
_chemical_formula_sum   'Zn6 H36 C24 N18'
_cell_volume   1342.99118861
_cell_formula_units_Z   6
loop_
 _symmetry_equiv_pos_site_id
 _symmetry_equiv_pos_as_xyz
  1  'x, y, z'
loop_
 _atom_site_label
 _atom_site_fract_x
 _atom_site_fract_y
 _atom_site_fract_z
 _atom_site_charge
 Zn 0.68762 0.06225 0.53524   0.048105
 Zn 0.62537 0.47299 0.93775   0.048181
 Zn 0.15238 0.46476 0.52701   0.048286
 Zn 0.31238 0.93775 0.46476   0.048104
 Zn 0.37463 0.52701 0.06225   0.048181
 Zn 0.84762 0.53524 0.47299   0.048285
 H 0.2686 0.0819 0.6706   0.133011
 H 0.3616 0.1757 0.8237   0.147825
 H 0.3191 0.2341 0.7326   0.142177
 H 0.8712 0.3178 0.7599   0.124689
 H 0.8469 0.4408 0.8148   0.10903
 H 0.8834 0.3767 0.9014   0.140091
 H 0.1867 0.5887 0.9181   0.133182
 H 0.1859 0.648 0.8243   0.147583
 H 0.085 0.4985 0.7659   0.141831
 H 0.5534 0.4421 0.6822   0.124736
 H 0.4061 0.374 0.5592   0.108298
 H 0.5067 0.5247 0.6233   0.139563
 H 0.598 0.3294 0.4113   0.133003
 H 0.5379 0.1763 0.352   0.147475
 H 0.5865 0.2674 0.5015   0.1418
 H 0.1113 0.2401 0.5579   0.124879
 H 0.0321 0.1852 0.626   0.108322
 H 0.982 0.0986 0.4753   0.139281
 H 0.7314 0.9181 0.3294   0.133011
 H 0.6384 0.8243 0.1763   0.147824
 H 0.6809 0.7659 0.2674   0.142176
 H 0.1288 0.6822 0.2401   0.124689
 H 0.1531 0.5592 0.1852   0.109029
 H 0.1166 0.6233 0.0986   0.140089
 H 0.8133 0.4113 0.0819   0.133182
 H 0.8141 0.352 0.1757   0.147582
 H 0.915 0.5015 0.2341   0.141831
 H 0.4466 0.5579 0.3178   0.124736
 H 0.5939 0.626 0.4408   0.108297
 H 0.4933 0.4753 0.3767   0.139561
 H 0.402 0.6706 0.5887   0.133002
 H 0.4621 0.8237 0.648   0.147474
 H 0.4135 0.7326 0.4985   0.141799
 H 0.8887 0.7599 0.4421   0.124879
 H 0.9679 0.8148 0.374   0.108321
 H 0.018 0.9014 0.5247   0.139279
 C 0.3441 0.1679 0.7391   -0.420414
 C 0.4724 0.1868 0.7241   0.380167
 C 0.6828 0.2703 0.7564   0.376196
 C 0.8345 0.3593 0.8132   -0.425599
 C 0.1762 0.5712 0.8321   -0.420223
 C 0.2856 0.5373 0.8132   0.380497
 C 0.4125 0.4861 0.7297   0.375694
 C 0.4752 0.4539 0.6407   -0.423997
 C 0.605 0.2609 0.4288   -0.419652
 C 0.7483 0.2759 0.4627   0.37967
 C 0.9264 0.2436 0.5139   0.375189
 C 0.0213 0.1868 0.5461   -0.423795
 C 0.6559 0.8321 0.2609   -0.420414
 C 0.5276 0.8132 0.2759   0.380167
 C 0.3172 0.7297 0.2436   0.376195
 C 0.1655 0.6407 0.1868   -0.425598
 C 0.8238 0.4288 0.1679   -0.420223
 C 0.7144 0.4627 0.1868   0.380497
 C 0.5875 0.5139 0.2703   0.375694
 C 0.5248 0.5461 0.3593   -0.423995
 C 0.395 0.7391 0.5712   -0.419652
 C 0.2517 0.7241 0.5373   0.37967
 C 0.0736 0.7564 0.4861   0.375189
 C 0.9787 0.8132 0.4539   -0.423794
 N 0.6146 0.1528 0.6498   -0.185876
 N 0.4781 0.0991 0.6294   -0.192389
 N 0.5972 0.2973 0.8059   -0.377265
 N 0.4618 0.497 0.8472   -0.186393
 N 0.379 0.5303 0.9009   -0.191905
 N 0.2999 0.5086 0.7027   -0.376972
 N 0.9648 0.3502 0.503   -0.186731
 N 0.8487 0.3706 0.4697   -0.19104
 N 0.7913 0.1941 0.4914   -0.376504
 N 0.3854 0.8472 0.3502   -0.185876
 N 0.5219 0.9009 0.3706   -0.192389
 N 0.4028 0.7027 0.1941   -0.377265
 N 0.5382 0.503 0.1528   -0.186393
 N 0.621 0.4697 0.0991   -0.191905
 N 0.7001 0.4914 0.2973   -0.376972
 N 0.0352 0.6498 0.497   -0.186731
 N 0.1513 0.6294 0.5303   -0.19104
 N 0.2087 0.8059 0.5086   -0.376504
