{'_ref': 'TBD', '_srcid': 'CAKYAQ_clean', 'submitters': [{'name': 'Dalar Nazarian Jeff Camp and David Sholl', 'email': 'dalar@gatech.edu jcamp6@gatech.edu'}], '_method': 'VASP DFT with PBE;DDEC'}
data_CuH3C9O4
_symmetry_space_group_name_H-M   'P 1'
_cell_length_a   15.37399960
_cell_length_b   15.37399990
_cell_length_c   15.37400000
_cell_angle_alpha   74.84150133
_cell_angle_beta   74.84150102
_cell_angle_gamma   74.84150010
_symmetry_Int_Tables_number   1
_chemical_formula_structural   CuH3C9O4
_chemical_formula_sum   'Cu6 H18 C54 O24'
_cell_volume   3311.79967373
_cell_formula_units_Z   6
loop_
 _symmetry_equiv_pos_site_id
 _symmetry_equiv_pos_as_xyz
  1  'x, y, z'
loop_
 _atom_site_label
 _atom_site_fract_x
 _atom_site_fract_y
 _atom_site_fract_z
 _atom_site_charge
 Cu 0.99022 0.99022 0.42007   0.894164
 Cu 0.42007 0.99022 0.99022   0.894164
 Cu 0.99022 0.42007 0.99022   0.894163
 Cu 0.00978 0.00978 0.57993   0.894164
 Cu 0.00978 0.57993 0.00978   0.894164
 Cu 0.57993 0.00978 0.00978   0.894164
 H 0.9889 0.303 0.5164   0.118571
 H 0.5164 0.9889 0.303   0.118571
 H 0.303 0.5164 0.9889   0.118572
 H 0.697 0.0111 0.4836   0.11857
 H 0.0111 0.4836 0.697   0.11857
 H 0.4836 0.697 0.0111   0.11857
 H 0.0111 0.697 0.4836   0.11857
 H 0.4836 0.0111 0.697   0.11857
 H 0.697 0.4836 0.0111   0.118571
 H 0.303 0.9889 0.5164   0.118573
 H 0.9889 0.5164 0.303   0.118573
 H 0.5164 0.303 0.9889   0.118573
 H 0.9741 0.271 0.271   0.115588
 H 0.271 0.9741 0.271   0.115588
 H 0.271 0.271 0.9741   0.115588
 H 0.729 0.0259 0.729   0.115588
 H 0.0259 0.729 0.729   0.115588
 H 0.729 0.729 0.0259   0.115588
 C 0.98156 0.27146 0.40096   -0.134384
 C 0.98723 0.32723 0.45463   -0.043453
 C 0.98363 0.17073 0.43863   0.671548
 C 0.40096 0.98156 0.27146   -0.134384
 C 0.45463 0.98723 0.32723   -0.043453
 C 0.43863 0.98363 0.17073   0.671548
 C 0.27146 0.40096 0.98156   -0.134384
 C 0.32723 0.45463 0.98723   -0.043453
 C 0.17073 0.43863 0.98363   0.671548
 C 0.72854 0.01844 0.59904   -0.134384
 C 0.67277 0.01277 0.54537   -0.04345
 C 0.82927 0.01637 0.56137   0.671548
 C 0.01844 0.59904 0.72854   -0.134384
 C 0.01277 0.54537 0.67277   -0.04345
 C 0.01637 0.56137 0.82927   0.671548
 C 0.59904 0.72854 0.01844   -0.134384
 C 0.54537 0.67277 0.01277   -0.04345
 C 0.56137 0.82927 0.01637   0.671548
 C 0.01844 0.72854 0.59904   -0.134383
 C 0.01277 0.67277 0.54537   -0.043449
 C 0.01637 0.82927 0.56137   0.671548
 C 0.59904 0.01844 0.72854   -0.134383
 C 0.54537 0.01277 0.67277   -0.043449
 C 0.56137 0.01637 0.82927   0.671548
 C 0.72854 0.59904 0.01844   -0.134383
 C 0.67277 0.54537 0.01277   -0.043449
 C 0.82927 0.56137 0.01637   0.671548
 C 0.27146 0.98156 0.40096   -0.134384
 C 0.32723 0.98723 0.45463   -0.043452
 C 0.17073 0.98363 0.43863   0.671548
 C 0.98156 0.40096 0.27146   -0.134384
 C 0.98723 0.45463 0.32723   -0.043452
 C 0.98363 0.43863 0.17073   0.671548
 C 0.40096 0.27146 0.98156   -0.134384
 C 0.45463 0.32723 0.98723   -0.043452
 C 0.43863 0.17073 0.98363   0.671548
 C 0.9904 0.41915 0.41915   0.075604
 C 0.99622 0.47687 0.47687   -0.089475
 C 0.97836 0.30811 0.30811   0.004386
 C 0.41915 0.9904 0.41915   0.075604
 C 0.47687 0.99622 0.47687   -0.089475
 C 0.30811 0.97836 0.30811   0.004386
 C 0.41915 0.41915 0.9904   0.075604
 C 0.47687 0.47687 0.99622   -0.089475
 C 0.30811 0.30811 0.97836   0.004385
 C 0.58085 0.0096 0.58085   0.075578
 C 0.52313 0.00378 0.52313   -0.08933
 C 0.69189 0.02164 0.69189   0.004386
 C 0.0096 0.58085 0.58085   0.075578
 C 0.00378 0.52313 0.52313   -0.08933
 C 0.02164 0.69189 0.69189   0.004386
 C 0.58085 0.58085 0.0096   0.075578
 C 0.52313 0.52313 0.00378   -0.08933
 C 0.69189 0.69189 0.02164   0.004386
 O 0.9789 0.12429 0.38402   -0.550744
 O 0.99391 0.14021 0.52097   -0.561705
 O 0.38402 0.9789 0.12429   -0.550744
 O 0.52097 0.99391 0.14021   -0.561705
 O 0.12429 0.38402 0.9789   -0.550744
 O 0.14021 0.52097 0.99391   -0.561705
 O 0.87571 0.0211 0.61598   -0.550744
 O 0.85979 0.00609 0.47903   -0.561704
 O 0.0211 0.61598 0.87571   -0.550743
 O 0.00609 0.47903 0.85979   -0.561704
 O 0.61598 0.87571 0.0211   -0.550743
 O 0.47903 0.85979 0.00609   -0.561704
 O 0.0211 0.87571 0.61598   -0.550744
 O 0.00609 0.85979 0.47903   -0.561704
 O 0.61598 0.0211 0.87571   -0.550744
 O 0.47903 0.00609 0.85979   -0.561704
 O 0.87571 0.61598 0.0211   -0.550744
 O 0.85979 0.47903 0.00609   -0.561704
 O 0.12429 0.9789 0.38402   -0.550743
 O 0.14021 0.99391 0.52097   -0.561705
 O 0.9789 0.38402 0.12429   -0.550743
 O 0.99391 0.52097 0.14021   -0.561705
 O 0.38402 0.12429 0.9789   -0.550743
 O 0.52097 0.14021 0.99391   -0.561705
