{'_ref': 'TBD', '_srcid': 'CAKYAQ_clean', 'submitters': [{'name': 'Dalar Nazarian Jeff Camp and David Sholl', 'email': 'dalar@gatech.edu jcamp6@gatech.edu'}], '_method': 'VASP DFT with PBE;DDEC'}
data_CuH2C4(SN)2
_symmetry_space_group_name_H-M   'P 1'
_cell_length_a   6.82220000
_cell_length_b   6.82220000
_cell_length_c   16.56150000
_cell_angle_alpha   90.00000000
_cell_angle_beta   90.00000000
_cell_angle_gamma   90.00000000
_symmetry_Int_Tables_number   1
_chemical_formula_structural   CuH2C4(SN)2
_chemical_formula_sum   'Cu4 H8 C16 S8 N8'
_cell_volume   770.81217025
_cell_formula_units_Z   4
loop_
 _symmetry_equiv_pos_site_id
 _symmetry_equiv_pos_as_xyz
  1  'x, y, z'
loop_
 _atom_site_label
 _atom_site_fract_x
 _atom_site_fract_y
 _atom_site_fract_z
 _atom_site_charge
 Cu 0.5 0.0 0.0   0.335121
 Cu 0.0 0.5 0.5   0.335121
 Cu 0.5 0.5 0.25   0.572571
 Cu 0.5 0.5 0.75   0.572571
 H 0.5 0.1694 0.3751   0.086488
 H 0.5 0.8306 0.3751   0.086486
 H 0.8306 0.5 0.8751   0.086488
 H 0.1694 0.5 0.8751   0.086486
 H 0.5 0.1694 0.6249   0.086488
 H 0.5 0.8306 0.6249   0.086486
 H 0.1694 0.5 0.1249   0.086488
 H 0.8306 0.5 0.1249   0.086486
 C 0.5 0.1046 0.1853   0.182607
 C 0.5 0.1008 0.3252   0.044661
 C 0.5 0.8954 0.1853   0.1826
 C 0.5 0.8992 0.3252   0.04466
 C 0.8954 0.5 0.6853   0.182607
 C 0.8992 0.5 0.8252   0.044661
 C 0.1046 0.5 0.6853   0.1826
 C 0.1008 0.5 0.8252   0.04466
 C 0.5 0.1046 0.8147   0.182605
 C 0.5 0.1008 0.6748   0.04466
 C 0.5 0.8954 0.8147   0.182598
 C 0.5 0.8992 0.6748   0.044659
 C 0.1046 0.5 0.3147   0.182605
 C 0.1008 0.5 0.1748   0.04466
 C 0.8954 0.5 0.3147   0.182598
 C 0.8992 0.5 0.1748   0.044659
 S 0.5 0.236 0.09609   -0.288161
 S 0.5 0.764 0.09609   -0.288158
 S 0.764 0.5 0.59609   -0.288161
 S 0.236 0.5 0.59609   -0.288158
 S 0.5 0.236 0.90391   -0.288159
 S 0.5 0.764 0.90391   -0.288156
 S 0.236 0.5 0.40391   -0.288159
 S 0.764 0.5 0.40391   -0.288156
 N 0.5 0.2034 0.2549   -0.252514
 N 0.5 0.7966 0.2549   -0.252513
 N 0.7966 0.5 0.7549   -0.252514
 N 0.2034 0.5 0.7549   -0.252513
 N 0.5 0.2034 0.7451   -0.252514
 N 0.5 0.7966 0.7451   -0.252513
 N 0.2034 0.5 0.2451   -0.252514
 N 0.7966 0.5 0.2451   -0.252513
