{'_ref': 'TBD', '_srcid': 'CAKYAQ_clean', 'submitters': [{'name': 'Dalar Nazarian Jeff Camp and David Sholl', 'email': 'dalar@gatech.edu jcamp6@gatech.edu'}], '_method': 'VASP DFT with PBE;DDEC'}
data_MnH10C15NO6
_symmetry_space_group_name_H-M   'P 1'
_cell_length_a   9.47000015
_cell_length_b   9.78449962
_cell_length_c   12.74250000
_cell_angle_alpha   87.24649995
_cell_angle_beta   84.30290057
_cell_angle_gamma   61.05770079
_symmetry_Int_Tables_number   1
_chemical_formula_structural   MnH10C15NO6
_chemical_formula_sum   'Mn2 H20 C30 N2 O12'
_cell_volume   1028.14456413
_cell_formula_units_Z   2
loop_
 _symmetry_equiv_pos_site_id
 _symmetry_equiv_pos_as_xyz
  1  'x, y, z'
loop_
 _atom_site_label
 _atom_site_fract_x
 _atom_site_fract_y
 _atom_site_fract_z
 _atom_site_charge
 Mn 0.65426 0.69148 0.0   1.158939
 Mn 0.34574 0.30852 0.0   1.158939
 H 0.4356 0.2338 0.4258   0.132573
 H 0.5554 0.2286 0.259   0.125586
 H 0.0633 0.7646 0.1443   0.112602
 H 0.3117 0.7636 0.1387   0.091626
 H 0.684 0.1 0.108   0.111906
 H 0.3306 0.2338 0.5742   0.13254
 H 0.216 0.2286 0.741   0.125194
 H 0.1721 0.7646 0.8557   0.112367
 H 0.9247 0.7636 0.8613   0.092853
 H 0.216 0.1 0.892   0.111688
 H 0.5644 0.7662 0.5742   0.132576
 H 0.4446 0.7714 0.741   0.125587
 H 0.9367 0.2354 0.8557   0.112602
 H 0.6883 0.2364 0.8613   0.091626
 H 0.316 0.9 0.892   0.111906
 H 0.6694 0.7662 0.4258   0.132544
 H 0.784 0.7714 0.259   0.125194
 H 0.8279 0.2354 0.1443   0.112367
 H 0.0753 0.2364 0.1387   0.092853
 H 0.784 0.9 0.108   0.111688
 C 0.5089 0.1362 0.3936   -0.163335
 C 0.5813 0.1332 0.2951   0.05941
 C 0.0659 0.8606 0.1425   -0.149261
 C 0.214 0.8598 0.1381   -0.013632
 C 0.4682 0.5354 0.9469   0.515627
 C 0.3549 0.1362 0.6064   -0.163739
 C 0.2855 0.1332 0.7049   0.060199
 C 0.0735 0.8606 0.8575   -0.148521
 C 0.9262 0.8598 0.8619   -0.015364
 C 0.9964 0.5354 0.0531   0.51565
 C 0.4911 0.8638 0.6064   -0.163332
 C 0.4187 0.8668 0.7049   0.059407
 C 0.9341 0.1394 0.8575   -0.149261
 C 0.786 0.1402 0.8619   -0.013632
 C 0.5318 0.4646 0.0531   0.515639
 C 0.6451 0.8638 0.3936   -0.163744
 C 0.7145 0.8668 0.2951   0.060199
 C 0.9265 0.1394 0.1425   -0.148521
 C 0.0738 0.1402 0.1381   -0.015364
 C 0.0036 0.4646 0.9469   0.515662
 C 0.5402 0.0 0.4472   0.067803
 C 0.7645 0.0 0.1404   -0.111931
 C 0.9233 0.0 0.1442   0.053746
 C 0.2187 0.0 0.1328   -0.183187
 C 0.3775 0.0 0.1175   0.712517
 C 0.4598 0.0 0.5528   0.067772
 C 0.2355 0.0 0.8596   -0.111931
 C 0.0767 0.0 0.8558   0.053746
 C 0.7813 0.0 0.8672   -0.183188
 C 0.6225 0.0 0.8825   0.712517
 N 0.6868 0.0 0.2491   0.117693
 N 0.3132 0.0 0.7509   0.117693
 O 0.50543 0.87074 0.1123   -0.635401
 O 0.5018 0.6374 0.9085   -0.544692
 O 0.38785 0.4853 0.9054   -0.550839
 O 0.62383 0.87074 0.8877   -0.634974
 O 0.8608 0.6374 0.0915   -0.544657
 O 0.12685 0.4853 0.0946   -0.550982
 O 0.49457 0.12926 0.8877   -0.635401
 O 0.4982 0.3626 0.0915   -0.544694
 O 0.61215 0.5147 0.0946   -0.550841
 O 0.37617 0.12926 0.1123   -0.634974
 O 0.1392 0.3626 0.9085   -0.544659
 O 0.87315 0.5147 0.9054   -0.550983
