{'_ref': 'TBD', '_srcid': 'CAKYAQ_clean', 'submitters': [{'name': 'Dalar Nazarian Jeff Camp and David Sholl', 'email': 'dalar@gatech.edu jcamp6@gatech.edu'}], '_method': 'VASP DFT with PBE;DDEC'}
data_Pr2H17C24N5O18
_symmetry_space_group_name_H-M   'P 1'
_cell_length_a   8.57850000
_cell_length_b   13.82360000
_cell_length_c   31.93220000
_cell_angle_alpha   90.00000000
_cell_angle_beta   90.00000000
_cell_angle_gamma   90.00000000
_symmetry_Int_Tables_number   1
_chemical_formula_structural   Pr2H17C24N5O18
_chemical_formula_sum   'Pr8 H68 C96 N20 O72'
_cell_volume   3786.70396917
_cell_formula_units_Z   4
loop_
 _symmetry_equiv_pos_site_id
 _symmetry_equiv_pos_as_xyz
  1  'x, y, z'
loop_
 _atom_site_label
 _atom_site_fract_x
 _atom_site_fract_y
 _atom_site_fract_z
 _atom_site_charge
 Pr 0.92104 0.79873 0.10343   2.223793
 Pr 0.57896 0.29873 0.89657   2.223793
 Pr 0.07896 0.20127 0.60343   2.223793
 Pr 0.42104 0.70127 0.39657   2.223793
 Pr 0.07896 0.20127 0.89657   2.223793
 Pr 0.42104 0.70127 0.10343   2.223793
 Pr 0.92104 0.79873 0.39657   2.223793
 Pr 0.57896 0.29873 0.60343   2.223793
 H 0.8871 0.5948 0.1876   0.117632
 H 0.4667 0.9801 0.1099   0.150663
 H 0.5903 0.1855 0.0282   0.128875
 H 0.2121 0.0248 0.0059   0.122853
 H 0.6794 0.5172 0.2267   0.314422
 H 0.6571 0.1746 0.1106   0.359728
 H 0.6905 0.0737 0.1198   0.368686
 H 0.7641 0.1206 0.0842   0.370863
 H 0.6129 0.0948 0.8124   0.117632
 H 0.0333 0.4801 0.8901   0.150663
 H 0.9097 0.6855 0.9718   0.128875
 H 0.2879 0.5248 0.9941   0.122853
 H 0.8206 0.0172 0.7733   0.314422
 H 0.8429 0.6746 0.8894   0.359728
 H 0.8095 0.5737 0.8802   0.368686
 H 0.7359 0.6206 0.9158   0.370863
 H 0.1129 0.4052 0.6876   0.117632
 H 0.5333 0.0199 0.6099   0.150663
 H 0.4097 0.8145 0.5282   0.128875
 H 0.7879 0.9752 0.5059   0.122853
 H 0.3206 0.4828 0.7267   0.314422
 H 0.3429 0.8254 0.6106   0.359728
 H 0.3095 0.9263 0.6198   0.368686
 H 0.2359 0.8794 0.5842   0.370863
 H 0.3871 0.9052 0.3124   0.117632
 H 0.9667 0.5199 0.3901   0.150663
 H 0.0903 0.3145 0.4718   0.128875
 H 0.7121 0.4752 0.4941   0.122853
 H 0.1794 0.9828 0.2733   0.314422
 H 0.1571 0.3254 0.3894   0.359728
 H 0.1905 0.4263 0.3802   0.368686
 H 0.2641 0.3794 0.4158   0.370863
 H 0.1129 0.4052 0.8124   0.11763
 H 0.5333 0.0199 0.8901   0.150661
 H 0.4097 0.8145 0.9718   0.128875
 H 0.7879 0.9752 0.9941   0.122852
 H 0.3206 0.4828 0.7733   0.31442
 H 0.3429 0.8254 0.8894   0.359731
 H 0.3095 0.9263 0.8802   0.368686
 H 0.2359 0.8794 0.9158   0.370864
 H 0.3871 0.9052 0.1876   0.11763
 H 0.9667 0.5199 0.1099   0.150661
 H 0.0903 0.3145 0.0282   0.128875
 H 0.7121 0.4752 0.0059   0.122852
 H 0.1794 0.9828 0.2267   0.31442
 H 0.1571 0.3254 0.1106   0.359731
 H 0.1905 0.4263 0.1198   0.368686
 H 0.2641 0.3794 0.0842   0.370864
 H 0.8871 0.5948 0.3124   0.11763
 H 0.4667 0.9801 0.3901   0.150661
 H 0.5903 0.1855 0.4718   0.128875
 H 0.2121 0.0248 0.4941   0.122852
 H 0.6794 0.5172 0.2733   0.31442
 H 0.6571 0.1746 0.3894   0.359731
 H 0.6905 0.0737 0.3802   0.368686
 H 0.7641 0.1206 0.4158   0.370864
 H 0.6129 0.0948 0.6876   0.11763
 H 0.0333 0.4801 0.6099   0.150661
 H 0.9097 0.6855 0.5282   0.128875
 H 0.2879 0.5248 0.5059   0.122852
 H 0.8206 0.0172 0.7267   0.31442
 H 0.8429 0.6746 0.6106   0.359731
 H 0.8095 0.5737 0.6198   0.368686
 H 0.7359 0.6206 0.5842   0.370864
 H 0.2503 0.7084 0.25   0.107075
 H 0.2497 0.2084 0.75   0.107075
 H 0.7497 0.2916 0.75   0.107075
 H 0.7503 0.7916 0.25   0.107075
 C 0.1583 0.6854 0.1725   0.730372
 C 0.0804 0.6578 0.21259   -0.131577
 C 0.9363 0.6102 0.2127   -0.141282
 C 0.2075 0.9157 0.07328   0.699086
 C 0.3215 0.9912 0.05992   -0.068499
 C 0.4483 0.0136 0.08519   -0.127228
 C 0.5458 0.087 0.07248   0.115961
 C 0.523 0.1358 0.03585   -0.178915
 C 0.3984 0.1109 0.00995   -0.100771
 C 0.2976 0.0402 0.02253   -0.029386
 C 0.3751 0.1618 0.96935   0.719208
 C 0.3417 0.1854 0.8275   0.730372
 C 0.4196 0.1578 0.78741   -0.131577
 C 0.5637 0.1102 0.7873   -0.141282
 C 0.2925 0.4157 0.92672   0.699086
 C 0.1785 0.4912 0.94008   -0.068499
 C 0.0517 0.5136 0.91481   -0.127228
 C 0.9542 0.587 0.92752   0.115961
 C 0.977 0.6358 0.96415   -0.178915
 C 0.1016 0.6109 0.99005   -0.100771
 C 0.2024 0.5402 0.97747   -0.029386
 C 0.1249 0.6618 0.03065   0.719208
 C 0.8417 0.3146 0.6725   0.730372
 C 0.9196 0.3422 0.71259   -0.131577
 C 0.0637 0.3898 0.7127   -0.141282
 C 0.7925 0.0843 0.57328   0.699086
 C 0.6785 0.0088 0.55992   -0.068499
 C 0.5517 0.9864 0.58519   -0.127228
 C 0.4542 0.913 0.57248   0.115961
 C 0.477 0.8642 0.53585   -0.178915
 C 0.6016 0.8891 0.50995   -0.100771
 C 0.7024 0.9598 0.52253   -0.029386
 C 0.6249 0.8382 0.46935   0.719208
 C 0.6583 0.8146 0.3275   0.730372
 C 0.5804 0.8422 0.28741   -0.131577
 C 0.4363 0.8898 0.2873   -0.141282
 C 0.7075 0.5843 0.42672   0.699086
 C 0.8215 0.5088 0.44008   -0.068499
 C 0.9483 0.4864 0.41481   -0.127228
 C 0.0458 0.413 0.42752   0.115961
 C 0.023 0.3642 0.46415   -0.178915
 C 0.8984 0.3891 0.49005   -0.100771
 C 0.7976 0.4598 0.47747   -0.029386
 C 0.8751 0.3382 0.53065   0.719208
 C 0.8417 0.3146 0.8275   0.730372
 C 0.9196 0.3422 0.78741   -0.131578
 C 0.0637 0.3898 0.7873   -0.141281
 C 0.7925 0.0843 0.92672   0.699086
 C 0.6785 0.0088 0.94008   -0.068499
 C 0.5517 0.9864 0.91481   -0.127228
 C 0.4542 0.913 0.92752   0.115961
 C 0.477 0.8642 0.96415   -0.178915
 C 0.6016 0.8891 0.99005   -0.10077
 C 0.7024 0.9598 0.97747   -0.029385
 C 0.6249 0.8382 0.03065   0.719208
 C 0.6583 0.8146 0.1725   0.730372
 C 0.5804 0.8422 0.21259   -0.131578
 C 0.4363 0.8898 0.2127   -0.141281
 C 0.7075 0.5843 0.07328   0.699086
 C 0.8215 0.5088 0.05992   -0.068499
 C 0.9483 0.4864 0.08519   -0.127228
 C 0.0458 0.413 0.07248   0.115961
 C 0.023 0.3642 0.03585   -0.178915
 C 0.8984 0.3891 0.00995   -0.10077
 C 0.7976 0.4598 0.02253   -0.029385
 C 0.8751 0.3382 0.96935   0.719208
 C 0.1583 0.6854 0.3275   0.730372
 C 0.0804 0.6578 0.28741   -0.131578
 C 0.9363 0.6102 0.2873   -0.141281
 C 0.2075 0.9157 0.42672   0.699086
 C 0.3215 0.9912 0.44008   -0.068499
 C 0.4483 0.0136 0.41481   -0.127228
 C 0.5458 0.087 0.42752   0.115961
 C 0.523 0.1358 0.46415   -0.178915
 C 0.3984 0.1109 0.49005   -0.10077
 C 0.2976 0.0402 0.47747   -0.029385
 C 0.3751 0.1618 0.53065   0.719208
 C 0.3417 0.1854 0.6725   0.730372
 C 0.4196 0.1578 0.71259   -0.131578
 C 0.5637 0.1102 0.7127   -0.141281
 C 0.2925 0.4157 0.57328   0.699086
 C 0.1785 0.4912 0.55992   -0.068499
 C 0.0517 0.5136 0.58519   -0.127228
 C 0.9542 0.587 0.57248   0.115961
 C 0.977 0.6358 0.53585   -0.178915
 C 0.1016 0.6109 0.50995   -0.10077
 C 0.2024 0.5402 0.52253   -0.029385
 C 0.1249 0.6618 0.46935   0.719208
 C 0.1525 0.6793 0.25   -0.01388
 C 0.869 0.5868 0.25   0.273839
 C 0.3475 0.1793 0.75   -0.01388
 C 0.631 0.0868 0.75   0.273839
 C 0.8475 0.3207 0.75   -0.01388
 C 0.131 0.4132 0.75   0.273839
 C 0.6525 0.8207 0.25   -0.01388
 C 0.369 0.9132 0.25   0.273839
 N 0.9583 0.9726 0.1618   0.836931
 N 0.6775 0.117 0.09948   -0.430361
 N 0.5417 0.4726 0.8382   0.836931
 N 0.8225 0.617 0.90052   -0.430361
 N 0.0417 0.0274 0.6618   0.836931
 N 0.3225 0.883 0.59948   -0.430361
 N 0.4583 0.5274 0.3382   0.836931
 N 0.1775 0.383 0.40052   -0.430361
 N 0.0417 0.0274 0.8382   0.836931
 N 0.3225 0.883 0.90052   -0.430363
 N 0.4583 0.5274 0.1618   0.836931
 N 0.1775 0.383 0.09948   -0.430363
 N 0.9583 0.9726 0.3382   0.836931
 N 0.6775 0.117 0.40052   -0.430363
 N 0.5417 0.4726 0.6618   0.836931
 N 0.8225 0.617 0.59948   -0.430363
 N 0.7222 0.5335 0.25   -0.726573
 N 0.7778 0.0335 0.75   -0.726573
 N 0.2778 0.4665 0.75   -0.726573
 N 0.2222 0.9665 0.25   -0.726573
 O 0.2474 0.8429 0.09505   -0.765709
 O 0.0658 0.9287 0.06351   -0.6668
 O 0.0802 0.68 0.13846   -0.807208
 O 0.2965 0.7116 0.17348   -0.635781
 O 0.48 0.2214 0.95799   -0.706003
 O 0.2571 0.1409 0.94806   -0.700298
 O 0.8534 0.9683 0.13437   -0.646806
 O 0.0599 0.9097 0.1637   -0.458241
 O 0.9537 0.0386 0.1887   -0.484434
 O 0.2526 0.3429 0.90495   -0.765709
 O 0.4342 0.4287 0.93649   -0.6668
 O 0.4198 0.18 0.86154   -0.807208
 O 0.2035 0.2116 0.82652   -0.635781
 O 0.02 0.7214 0.04201   -0.706003
 O 0.2429 0.6409 0.05194   -0.700298
 O 0.6466 0.4683 0.86563   -0.646806
 O 0.4401 0.4097 0.8363   -0.458241
 O 0.5463 0.5386 0.8113   -0.484434
 O 0.7526 0.1571 0.59505   -0.765709
 O 0.9342 0.0713 0.56351   -0.6668
 O 0.9198 0.32 0.63846   -0.807208
 O 0.7035 0.2884 0.67348   -0.635781
 O 0.52 0.7786 0.45799   -0.706003
 O 0.7429 0.8591 0.44806   -0.700298
 O 0.1466 0.0317 0.63437   -0.646806
 O 0.9401 0.0903 0.6637   -0.458241
 O 0.0463 0.9614 0.6887   -0.484434
 O 0.7474 0.6571 0.40495   -0.765709
 O 0.5658 0.5713 0.43649   -0.6668
 O 0.5802 0.82 0.36154   -0.807208
 O 0.7965 0.7884 0.32652   -0.635781
 O 0.98 0.2786 0.54201   -0.706003
 O 0.7571 0.3591 0.55194   -0.700298
 O 0.3534 0.5317 0.36563   -0.646806
 O 0.5599 0.5903 0.3363   -0.458241
 O 0.4537 0.4614 0.3113   -0.484434
 O 0.7526 0.1571 0.90495   -0.765709
 O 0.9342 0.0713 0.93649   -0.6668
 O 0.9198 0.32 0.86154   -0.807208
 O 0.7035 0.2884 0.82652   -0.635781
 O 0.52 0.7786 0.04201   -0.706003
 O 0.7429 0.8591 0.05194   -0.700298
 O 0.1466 0.0317 0.86563   -0.646806
 O 0.9401 0.0903 0.8363   -0.458242
 O 0.0463 0.9614 0.8113   -0.484439
 O 0.7474 0.6571 0.09505   -0.765709
 O 0.5658 0.5713 0.06351   -0.6668
 O 0.5802 0.82 0.13846   -0.807208
 O 0.7965 0.7884 0.17348   -0.635781
 O 0.98 0.2786 0.95799   -0.706003
 O 0.7571 0.3591 0.94806   -0.700298
 O 0.3534 0.5317 0.13437   -0.646806
 O 0.5599 0.5903 0.1637   -0.458242
 O 0.4537 0.4614 0.1887   -0.484439
 O 0.2474 0.8429 0.40495   -0.765709
 O 0.0658 0.9287 0.43649   -0.6668
 O 0.0802 0.68 0.36154   -0.807208
 O 0.2965 0.7116 0.32652   -0.635781
 O 0.48 0.2214 0.54201   -0.706003
 O 0.2571 0.1409 0.55194   -0.700298
 O 0.8534 0.9683 0.36563   -0.646806
 O 0.0599 0.9097 0.3363   -0.458242
 O 0.9537 0.0386 0.3113   -0.484439
 O 0.2526 0.3429 0.59505   -0.765709
 O 0.4342 0.4287 0.56351   -0.6668
 O 0.4198 0.18 0.63846   -0.807208
 O 0.2035 0.2116 0.67348   -0.635781
 O 0.02 0.7214 0.45799   -0.706003
 O 0.2429 0.6409 0.44806   -0.700298
 O 0.6466 0.4683 0.63437   -0.646806
 O 0.4401 0.4097 0.6637   -0.458242
 O 0.5463 0.5386 0.6887   -0.484439
