{'_ref': 'TBD', '_srcid': 'CAKYAQ_clean', 'submitters': [{'name': 'Dalar Nazarian Jeff Camp and David Sholl', 'email': 'dalar@gatech.edu jcamp6@gatech.edu'}], '_method': 'VASP DFT with PBE;DDEC'}
data_NdH12(C5O2)3
_symmetry_space_group_name_H-M   'P 1'
_cell_length_a   10.16180000
_cell_length_b   14.11400000
_cell_length_c   21.97470014
_cell_angle_alpha   91.53300085
_cell_angle_beta   90.00000000
_cell_angle_gamma   90.00000000
_symmetry_Int_Tables_number   1
_chemical_formula_structural   NdH12(C5O2)3
_chemical_formula_sum   'Nd8 H96 C120 O48'
_cell_volume   3150.56354921
_cell_formula_units_Z   8
loop_
 _symmetry_equiv_pos_site_id
 _symmetry_equiv_pos_as_xyz
  1  'x, y, z'
loop_
 _atom_site_label
 _atom_site_fract_x
 _atom_site_fract_y
 _atom_site_fract_z
 _atom_site_charge
 Nd 0.55949 0.23235 0.74056   2.326196
 Nd 0.74962 0.97447 0.75072   2.325271
 Nd 0.05949 0.26765 0.25944   2.326196
 Nd 0.24962 0.52553 0.24928   2.325271
 Nd 0.44051 0.76765 0.25944   2.326195
 Nd 0.25038 0.02553 0.24928   2.32527
 Nd 0.94051 0.73235 0.74056   2.326195
 Nd 0.75038 0.47447 0.75072   2.32527
 H 0.8775 0.2772 0.6591   0.147037
 H 0.0121 0.2417 0.6854   0.145986
 H 0.7967 0.1881 0.5611   0.11252
 H 0.8582 0.1324 0.4659   0.104366
 H 0.2323 0.1286 0.5187   0.09292
 H 0.1733 0.1835 0.6142   0.110319
 H 0.0382 0.0293 0.4113   0.14778
 H 0.1829 0.0617 0.4241   0.154244
 H 0.6841 0.0533 0.9155   0.164052
 H 0.5418 0.0139 0.9053   0.160971
 H 0.7264 0.1353 0.0071   0.092097
 H 0.6604 0.2084 0.0972   0.09984
 H 0.2877 0.1888 0.0435   0.10023
 H 0.3532 0.116 0.9536   0.098032
 H 0.354 0.3014 0.1296   0.149629
 H 0.4941 0.2874 0.1579   0.152918
 H 0.3004 0.0138 0.622   0.136912
 H 0.3637 0.9127 0.6265   0.139274
 H 0.4916 0.1282 0.5672   0.115335
 H 0.4192 0.8546 0.5278   0.087032
 H 0.4123 0.3537 0.8844   0.158136
 H 0.3485 0.4506 0.8674   0.154039
 H 0.5351 0.3411 0.9776   0.093503
 H 0.4041 0.5949 0.929   0.094285
 H 0.3775 0.2228 0.3409   0.147037
 H 0.5121 0.2583 0.3146   0.145985
 H 0.2967 0.3119 0.4389   0.11252
 H 0.3582 0.3676 0.5341   0.104367
 H 0.7323 0.3714 0.4813   0.09292
 H 0.6733 0.3165 0.3858   0.110319
 H 0.5382 0.4707 0.5887   0.14778
 H 0.6829 0.4383 0.5759   0.154244
 H 0.1841 0.4467 0.0845   0.164052
 H 0.0418 0.4861 0.0947   0.160971
 H 0.2264 0.3647 0.9929   0.092097
 H 0.1604 0.2916 0.9028   0.099841
 H 0.7877 0.3112 0.9565   0.10023
 H 0.8532 0.384 0.0464   0.098033
 H 0.854 0.1986 0.8704   0.149629
 H 0.9941 0.2126 0.8421   0.152917
 H 0.8004 0.4862 0.378   0.136912
 H 0.8637 0.5873 0.3735   0.139274
 H 0.9916 0.3718 0.4328   0.115335
 H 0.9192 0.6454 0.4722   0.087032
 H 0.9123 0.1463 0.1156   0.158136
 H 0.8485 0.0494 0.1326   0.154039
 H 0.0351 0.1589 0.0224   0.093503
 H 0.9041 0.9051 0.071   0.094285
 H 0.1225 0.7228 0.3409   0.147037
 H 0.9879 0.7583 0.3146   0.145985
 H 0.2033 0.8119 0.4389   0.11252
 H 0.1418 0.8676 0.5341   0.104368
 H 0.7677 0.8714 0.4813   0.09292
 H 0.8267 0.8165 0.3858   0.110319
 H 0.9618 0.9707 0.5887   0.14778
 H 0.8171 0.9383 0.5759   0.154244
 H 0.3159 0.9467 0.0845   0.164052
 H 0.4582 0.9861 0.0947   0.160971
 H 0.2736 0.8647 0.9929   0.092097
 H 0.3396 0.7916 0.9028   0.09984
 H 0.7123 0.8112 0.9565   0.10023
 H 0.6468 0.884 0.0464   0.098034
 H 0.646 0.6986 0.8704   0.149629
 H 0.5059 0.7126 0.8421   0.152918
 H 0.6996 0.9862 0.378   0.136913
 H 0.6363 0.0873 0.3735   0.139274
 H 0.5084 0.8718 0.4328   0.115334
 H 0.5808 0.1454 0.4722   0.087032
 H 0.5877 0.6463 0.1156   0.158136
 H 0.6515 0.5494 0.1326   0.15404
 H 0.4649 0.6589 0.0224   0.093502
 H 0.5959 0.4051 0.071   0.094286
 H 0.6225 0.7772 0.6591   0.147037
 H 0.4879 0.7417 0.6854   0.145985
 H 0.7033 0.6881 0.5611   0.11252
 H 0.6418 0.6324 0.4659   0.104368
 H 0.2677 0.6286 0.5187   0.09292
 H 0.3267 0.6835 0.6142   0.110319
 H 0.4618 0.5293 0.4113   0.14778
 H 0.3171 0.5617 0.4241   0.154244
 H 0.8159 0.5533 0.9155   0.164052
 H 0.9582 0.5139 0.9053   0.160971
 H 0.7736 0.6353 0.0071   0.092097
 H 0.8396 0.7084 0.0972   0.099841
 H 0.2123 0.6888 0.0435   0.10023
 H 0.1468 0.616 0.9536   0.098035
 H 0.146 0.8014 0.1296   0.149629
 H 0.0059 0.7874 0.1579   0.152917
 H 0.1996 0.5138 0.622   0.136913
 H 0.1363 0.4127 0.6265   0.139274
 H 0.0084 0.6282 0.5672   0.115334
 H 0.0808 0.3546 0.5278   0.087032
 H 0.0877 0.8537 0.8844   0.158136
 H 0.1515 0.9506 0.8674   0.15404
 H 0.9649 0.8411 0.9776   0.093503
 H 0.0959 0.0949 0.929   0.094286
 C 0.8651 0.1434 0.69246   0.796466
 C 0.9354 0.2229 0.66173   -0.379504
 C 0.9773 0.1903 0.59859   0.106803
 C 0.8849 0.1756 0.55307   -0.140223
 C 0.9219 0.1423 0.49573   -0.11548
 C 0.0515 0.124 0.48243   0.110882
 C 0.1441 0.1401 0.52727   -0.12391
 C 0.1089 0.1729 0.58472   -0.147173
 C 0.0929 0.0839 0.42099   -0.399947
 C 0.0851 0.1507 0.36881   0.83124
 C 0.5798 0.1294 0.85447   0.839359
 C 0.5926 0.0716 0.91119   -0.406508
 C 0.5489 0.1195 0.97006   0.113908
 C 0.6373 0.1465 0.01379   -0.134815
 C 0.5977 0.1904 0.06825   -0.132567
 C 0.4669 0.2072 0.07958   0.110149
 C 0.3769 0.1786 0.03626   -0.132692
 C 0.4161 0.1351 0.98212   -0.119931
 C 0.4206 0.2546 0.13861   -0.387331
 C 0.3648 0.1847 0.18198   0.804998
 C 0.4736 0.016 0.67021   0.88034
 C 0.3828 0.9791 0.62019   -0.378866
 C 0.4448 0.9899 0.55803   0.098977
 C 0.4946 0.0763 0.54021   -0.136596
 C 0.4515 0.9134 0.51674   -0.13148
 C 0.5351 0.4357 0.83515   0.828265
 C 0.4289 0.4211 0.88133   -0.39814
 C 0.4633 0.4614 0.94325   0.112268
 C 0.5207 0.4052 0.98633   -0.132019
 C 0.4429 0.5563 0.95753   -0.13009
 C 0.3651 0.3566 0.30754   0.796465
 C 0.4354 0.2771 0.33827   -0.379504
 C 0.4773 0.3097 0.40141   0.106803
 C 0.3849 0.3244 0.44693   -0.140222
 C 0.4219 0.3577 0.50427   -0.11548
 C 0.5515 0.376 0.51757   0.110882
 C 0.6441 0.3599 0.47273   -0.12391
 C 0.6089 0.3271 0.41528   -0.147173
 C 0.5929 0.4161 0.57901   -0.399947
 C 0.5851 0.3493 0.63119   0.83124
 C 0.0798 0.3706 0.14553   0.839359
 C 0.0926 0.4284 0.08881   -0.406508
 C 0.0489 0.3805 0.02994   0.113908
 C 0.1373 0.3535 0.98621   -0.134815
 C 0.0977 0.3096 0.93175   -0.132567
 C 0.9669 0.2928 0.92042   0.110149
 C 0.8769 0.3214 0.96374   -0.132692
 C 0.9161 0.3649 0.01788   -0.119931
 C 0.9206 0.2454 0.86139   -0.38733
 C 0.8648 0.3153 0.81802   0.804997
 C 0.9736 0.484 0.32979   0.88034
 C 0.8828 0.5209 0.37981   -0.378866
 C 0.9448 0.5101 0.44197   0.098977
 C 0.9946 0.4237 0.45979   -0.136596
 C 0.9515 0.5866 0.48326   -0.131481
 C 0.0351 0.0643 0.16485   0.828265
 C 0.9289 0.0789 0.11867   -0.39814
 C 0.9633 0.0386 0.05675   0.112268
 C 0.0207 0.0948 0.01367   -0.132019
 C 0.9429 0.9437 0.04247   -0.13009
 C 0.1349 0.8566 0.30754   0.796466
 C 0.0646 0.7771 0.33827   -0.379503
 C 0.0227 0.8097 0.40141   0.106803
 C 0.1151 0.8244 0.44693   -0.140222
 C 0.0781 0.8577 0.50427   -0.11548
 C 0.9485 0.876 0.51757   0.110883
 C 0.8559 0.8599 0.47273   -0.123909
 C 0.8911 0.8271 0.41528   -0.147173
 C 0.9071 0.9161 0.57901   -0.399947
 C 0.9149 0.8493 0.63119   0.83124
 C 0.4202 0.8706 0.14553   0.839359
 C 0.4074 0.9284 0.08881   -0.406508
 C 0.4511 0.8805 0.02994   0.113909
 C 0.3627 0.8535 0.98621   -0.134815
 C 0.4023 0.8096 0.93175   -0.132567
 C 0.5331 0.7928 0.92042   0.110149
 C 0.6231 0.8214 0.96374   -0.132692
 C 0.5839 0.8649 0.01788   -0.11993
 C 0.5794 0.7454 0.86139   -0.387331
 C 0.6352 0.8153 0.81802   0.804998
 C 0.5264 0.984 0.32979   0.88034
 C 0.6172 0.0209 0.37981   -0.378866
 C 0.5552 0.0101 0.44197   0.098974
 C 0.5054 0.9237 0.45979   -0.136586
 C 0.5485 0.0866 0.48326   -0.131469
 C 0.4649 0.5643 0.16485   0.828265
 C 0.5711 0.5789 0.11867   -0.398141
 C 0.5367 0.5386 0.05675   0.112266
 C 0.4793 0.5948 0.01367   -0.132012
 C 0.5571 0.4437 0.04247   -0.130083
 C 0.6349 0.6434 0.69246   0.796465
 C 0.5646 0.7229 0.66173   -0.379503
 C 0.5227 0.6903 0.59859   0.106803
 C 0.6151 0.6756 0.55307   -0.140222
 C 0.5781 0.6423 0.49573   -0.11548
 C 0.4485 0.624 0.48243   0.110883
 C 0.3559 0.6401 0.52727   -0.123909
 C 0.3911 0.6729 0.58472   -0.147173
 C 0.4071 0.5839 0.42099   -0.399947
 C 0.4149 0.6507 0.36881   0.83124
 C 0.9202 0.6294 0.85447   0.839359
 C 0.9074 0.5716 0.91119   -0.406508
 C 0.9511 0.6195 0.97006   0.113909
 C 0.8627 0.6465 0.01379   -0.134815
 C 0.9023 0.6904 0.06825   -0.132567
 C 0.0331 0.7072 0.07958   0.110149
 C 0.1231 0.6786 0.03626   -0.132692
 C 0.0839 0.6351 0.98212   -0.119931
 C 0.0794 0.7546 0.13861   -0.38733
 C 0.1352 0.6847 0.18198   0.804997
 C 0.0264 0.516 0.67021   0.88034
 C 0.1172 0.4791 0.62019   -0.378866
 C 0.0552 0.4899 0.55803   0.098974
 C 0.0054 0.5763 0.54021   -0.136585
 C 0.0485 0.4134 0.51674   -0.131469
 C 0.9649 0.9357 0.83515   0.828265
 C 0.0711 0.9211 0.88133   -0.398141
 C 0.0367 0.9614 0.94325   0.112266
 C 0.9793 0.9052 0.98633   -0.132012
 C 0.0571 0.0563 0.95753   -0.130083
 O 0.7407 0.13836 0.69198   -0.834594
 O 0.9304 0.07925 0.71676   -0.697457
 O 0.1633 0.13516 0.32461   -0.877279
 O 0.0069 0.21723 0.36709   -0.689843
 O 0.633 0.09773 0.80544   -0.898102
 O 0.5198 0.20504 0.85354   -0.698015
 O 0.2659 0.20486 0.21452   -0.845981
 O 0.4198 0.10573 0.18703   -0.684578
 O 0.567 0.96458 0.68458   -0.761785
 O 0.4505 0.09604 0.69366   -0.811543
 O 0.6309 0.48784 0.84676   -0.682359
 O 0.5265 0.3934 0.78297   -0.887791
 O 0.2407 0.36164 0.30802   -0.834594
 O 0.4304 0.42075 0.28324   -0.697457
 O 0.6633 0.36484 0.67539   -0.877279
 O 0.5069 0.28277 0.63291   -0.689843
 O 0.133 0.40227 0.19456   -0.898102
 O 0.0198 0.29496 0.14646   -0.698015
 O 0.7659 0.29514 0.78548   -0.845981
 O 0.9198 0.39427 0.81297   -0.684578
 O 0.067 0.53542 0.31542   -0.761785
 O 0.9505 0.40396 0.30634   -0.811543
 O 0.1309 0.01216 0.15324   -0.682359
 O 0.0265 0.1066 0.21703   -0.887791
 O 0.2593 0.86164 0.30802   -0.834594
 O 0.0696 0.92075 0.28324   -0.697457
 O 0.8367 0.86484 0.67539   -0.877279
 O 0.9931 0.78277 0.63291   -0.689843
 O 0.367 0.90227 0.19456   -0.898102
 O 0.4802 0.79496 0.14646   -0.698015
 O 0.7341 0.79514 0.78548   -0.845981
 O 0.5802 0.89427 0.81297   -0.684578
 O 0.433 0.03542 0.31542   -0.761785
 O 0.5495 0.90396 0.30634   -0.811543
 O 0.3691 0.51216 0.15324   -0.682359
 O 0.4735 0.6066 0.21703   -0.887791
 O 0.7593 0.63836 0.69198   -0.834594
 O 0.5696 0.57925 0.71676   -0.697457
 O 0.3367 0.63516 0.32461   -0.877279
 O 0.4931 0.71723 0.36709   -0.689843
 O 0.867 0.59773 0.80544   -0.898102
 O 0.9802 0.70504 0.85354   -0.698015
 O 0.2341 0.70486 0.21452   -0.845981
 O 0.0802 0.60573 0.18703   -0.684578
 O 0.933 0.46458 0.68458   -0.761785
 O 0.0495 0.59604 0.69366   -0.811543
 O 0.8691 0.98784 0.84676   -0.682359
 O 0.9735 0.8934 0.78297   -0.887791
