{'_ref': 'TBD', '_srcid': 'CAKYAQ_clean', 'submitters': [{'name': 'Dalar Nazarian Jeff Camp and David Sholl', 'email': 'dalar@gatech.edu jcamp6@gatech.edu'}], '_method': 'VASP DFT with PBE;DDEC'}
data_SmH12(C5O2)3
_symmetry_space_group_name_H-M   'P 1'
_cell_length_a   10.05800000
_cell_length_b   13.98900000
_cell_length_c   21.86000031
_cell_angle_alpha   91.48099869
_cell_angle_beta   90.00000000
_cell_angle_gamma   90.00000000
_symmetry_Int_Tables_number   1
_chemical_formula_structural   SmH12(C5O2)3
_chemical_formula_sum   'Sm8 H96 C120 O48'
_cell_volume   3074.70437197
_cell_formula_units_Z   8
loop_
 _symmetry_equiv_pos_site_id
 _symmetry_equiv_pos_as_xyz
  1  'x, y, z'
loop_
 _atom_site_label
 _atom_site_fract_x
 _atom_site_fract_y
 _atom_site_fract_z
 _atom_site_charge
 Sm 0.4384 0.76824 0.75971   2.334444
 Sm 0.75039 0.47348 0.25103   2.324267
 Sm 0.9384 0.73176 0.24029   2.334443
 Sm 0.25039 0.02652 0.74897   2.324265
 Sm 0.5616 0.23176 0.24029   2.334444
 Sm 0.24961 0.52652 0.74897   2.324266
 Sm 0.0616 0.26824 0.75971   2.334442
 Sm 0.74961 0.97348 0.25103   2.324264
 H 0.3166 0.56 0.9219   0.158628
 H 0.4638 0.5295 0.9095   0.15302
 H 0.6441 0.6355 0.9668   0.098076
 H 0.7047 0.6852 0.0621   0.11447
 H 0.3246 0.6828 0.1145   0.114404
 H 0.2672 0.6259 0.0171   0.088154
 H 0.4838 0.7371 0.1851   0.14777
 H 0.6188 0.776 0.1598   0.15215
 H 0.0026 0.7873 0.6583   0.153954
 H 0.1435 0.8049 0.6299   0.147842
 H 0.8377 0.7085 0.5959   0.0992
 H 0.7723 0.6342 0.5058   0.090255
 H 0.1469 0.6171 0.4543   0.092646
 H 0.2129 0.6882 0.544   0.099428
 H 0.8131 0.5541 0.4145   0.164823
 H 0.9557 0.5123 0.4047   0.162538
 H 0.5864 0.6489 0.6166   0.163691
 H 0.6516 0.5515 0.6343   0.158852
 H 0.4632 0.6601 0.524   0.095987
 H 0.5948 0.4056 0.5725   0.096149
 H 0.7002 0.9885 0.8775   0.138775
 H 0.6337 0.0895 0.8724   0.143883
 H 0.5036 0.8722 0.9316   0.116313
 H 0.5823 0.1458 0.9722   0.08529
 H 0.8166 0.94 0.0781   0.158628
 H 0.9638 0.9705 0.0905   0.15302
 H 0.1441 0.8645 0.0332   0.098077
 H 0.2047 0.8148 0.9379   0.11447
 H 0.8246 0.8172 0.8855   0.114404
 H 0.7672 0.8741 0.9829   0.088154
 H 0.9838 0.7629 0.8149   0.147769
 H 0.1188 0.724 0.8402   0.15215
 H 0.5026 0.7127 0.3417   0.153953
 H 0.6435 0.6951 0.3701   0.147841
 H 0.3377 0.7915 0.4041   0.0992
 H 0.2723 0.8658 0.4942   0.090255
 H 0.6469 0.8829 0.5457   0.092647
 H 0.7129 0.8118 0.456   0.099428
 H 0.3131 0.9459 0.5855   0.164823
 H 0.4557 0.9877 0.5953   0.162538
 H 0.0864 0.8511 0.3834   0.163691
 H 0.1516 0.9485 0.3657   0.158852
 H 0.9632 0.8399 0.476   0.095986
 H 0.0948 0.0944 0.4275   0.096149
 H 0.2002 0.5115 0.1225   0.138775
 H 0.1337 0.4105 0.1276   0.143882
 H 0.0036 0.6278 0.0684   0.116313
 H 0.0823 0.3542 0.0278   0.08529
 H 0.6834 0.44 0.0781   0.158628
 H 0.5362 0.4705 0.0905   0.15302
 H 0.3559 0.3645 0.0332   0.098078
 H 0.2953 0.3148 0.9379   0.11447
 H 0.6754 0.3172 0.8855   0.114405
 H 0.7328 0.3741 0.9829   0.088153
 H 0.5162 0.2629 0.8149   0.147769
 H 0.3812 0.224 0.8402   0.15215
 H 0.9974 0.2127 0.3417   0.153954
 H 0.8565 0.1951 0.3701   0.147842
 H 0.1623 0.2915 0.4041   0.0992
 H 0.2277 0.3658 0.4942   0.090255
 H 0.8531 0.3829 0.5457   0.092648
 H 0.7871 0.3118 0.456   0.099428
 H 0.1869 0.4459 0.5855   0.164823
 H 0.0443 0.4877 0.5953   0.162539
 H 0.4136 0.3511 0.3834   0.163691
 H 0.3484 0.4485 0.3657   0.158852
 H 0.5368 0.3399 0.476   0.095986
 H 0.4052 0.5944 0.4275   0.096149
 H 0.2998 0.0115 0.1225   0.138776
 H 0.3663 0.9105 0.1276   0.143882
 H 0.4964 0.1278 0.0684   0.116312
 H 0.4177 0.8542 0.0278   0.085289
 H 0.1834 0.06 0.9219   0.158628
 H 0.0362 0.0295 0.9095   0.15302
 H 0.8559 0.1355 0.9668   0.098078
 H 0.7953 0.1852 0.0621   0.11447
 H 0.1754 0.1828 0.1145   0.114405
 H 0.2328 0.1259 0.0171   0.088153
 H 0.0162 0.2371 0.1851   0.147768
 H 0.8812 0.276 0.1598   0.15215
 H 0.4974 0.2873 0.6583   0.153953
 H 0.3565 0.3049 0.6299   0.147841
 H 0.6623 0.2085 0.5959   0.099201
 H 0.7277 0.1342 0.5058   0.090255
 H 0.3531 0.1171 0.4543   0.092648
 H 0.2871 0.1882 0.544   0.099428
 H 0.6869 0.0541 0.4145   0.164823
 H 0.5443 0.0123 0.4047   0.162539
 H 0.9136 0.1489 0.6166   0.163691
 H 0.8484 0.0515 0.6343   0.158852
 H 0.0368 0.1601 0.524   0.095986
 H 0.9052 0.9056 0.5725   0.096149
 H 0.7998 0.4885 0.8775   0.138775
 H 0.8663 0.5895 0.8724   0.143882
 H 0.9964 0.3722 0.9316   0.116312
 H 0.9177 0.6458 0.9722   0.085289
 C 0.4136 0.6497 0.8686   0.854443
 C 0.407 0.5838 0.9193   -0.408198
 C 0.4461 0.6233 0.9811   0.110472
 C 0.5788 0.6436 0.9966   -0.107899
 C 0.6154 0.6745 0.0535   -0.144123
 C 0.5221 0.6901 0.0985   0.122912
 C 0.39 0.6725 0.085   -0.159218
 C 0.3561 0.6385 0.0257   -0.122566
 C 0.5623 0.72 0.1615   -0.395621
 C 0.6343 0.6426 0.1923   0.813699
 C 0.138 0.6852 0.6819   0.798952
 C 0.0781 0.7562 0.6387   -0.384122
 C 0.033 0.7079 0.5789   0.110524
 C 0.9014 0.6904 0.5671   -0.131928
 C 0.8621 0.6461 0.5127   -0.13251
 C 0.9512 0.6198 0.4697   0.115496
 C 0.083 0.636 0.4829   -0.113545
 C 0.1228 0.6789 0.5365   -0.133186
 C 0.9059 0.5713 0.4101   -0.41068
 C 0.9197 0.6267 0.3531   0.85201
 C 0.4624 0.5649 0.6639   0.849012
 C 0.5706 0.5808 0.6197   -0.408649
 C 0.5363 0.5382 0.5559   0.1084
 C 0.4788 0.5959 0.5146   -0.131056
 C 0.557 0.4441 0.5432   -0.131552
 C 0.5263 0.984 0.8306   0.891831
 C 0.6162 0.0225 0.8792   -0.387479
 C 0.5541 0.0117 0.9422   0.100932
 C 0.5026 0.9239 0.9593   -0.137669
 C 0.5495 0.0866 0.9833   -0.126863
 C 0.9136 0.8503 0.1314   0.854443
 C 0.907 0.9162 0.0807   -0.408198
 C 0.9461 0.8767 0.0189   0.110472
 C 0.0788 0.8564 0.0034   -0.107899
 C 0.1154 0.8255 0.9465   -0.144123
 C 0.0221 0.8099 0.9015   0.122912
 C 0.89 0.8275 0.915   -0.159218
 C 0.8561 0.8615 0.9743   -0.122566
 C 0.0623 0.78 0.8385   -0.395621
 C 0.1343 0.8574 0.8077   0.813698
 C 0.638 0.8148 0.3181   0.798952
 C 0.5781 0.7438 0.3613   -0.384122
 C 0.533 0.7921 0.4211   0.110524
 C 0.4014 0.8096 0.4329   -0.131928
 C 0.3621 0.8539 0.4873   -0.13251
 C 0.4512 0.8802 0.5303   0.115496
 C 0.583 0.864 0.5171   -0.113545
 C 0.6228 0.8211 0.4635   -0.133186
 C 0.4059 0.9287 0.5899   -0.410679
 C 0.4197 0.8733 0.6469   0.85201
 C 0.9624 0.9351 0.3361   0.849012
 C 0.0706 0.9192 0.3803   -0.408649
 C 0.0363 0.9618 0.4441   0.1084
 C 0.9788 0.9041 0.4854   -0.131056
 C 0.057 0.0559 0.4568   -0.131552
 C 0.0263 0.516 0.1694   0.891831
 C 0.1162 0.4775 0.1208   -0.387479
 C 0.0541 0.4883 0.0578   0.100932
 C 0.0026 0.5761 0.0407   -0.137669
 C 0.0495 0.4134 0.0167   -0.126863
 C 0.5864 0.3503 0.1314   0.854443
 C 0.593 0.4162 0.0807   -0.408198
 C 0.5539 0.3767 0.0189   0.110472
 C 0.4212 0.3564 0.0034   -0.107898
 C 0.3846 0.3255 0.9465   -0.144123
 C 0.4779 0.3099 0.9015   0.122912
 C 0.61 0.3275 0.915   -0.159218
 C 0.6439 0.3615 0.9743   -0.122566
 C 0.4377 0.28 0.8385   -0.395621
 C 0.3657 0.3574 0.8077   0.813698
 C 0.862 0.3148 0.3181   0.798952
 C 0.9219 0.2438 0.3613   -0.384122
 C 0.967 0.2921 0.4211   0.110524
 C 0.0986 0.3096 0.4329   -0.131928
 C 0.1379 0.3539 0.4873   -0.132509
 C 0.0488 0.3802 0.5303   0.115496
 C 0.917 0.364 0.5171   -0.113544
 C 0.8772 0.3211 0.4635   -0.133186
 C 0.0941 0.4287 0.5899   -0.41068
 C 0.0803 0.3733 0.6469   0.85201
 C 0.5376 0.4351 0.3361   0.849012
 C 0.4294 0.4192 0.3803   -0.408649
 C 0.4637 0.4618 0.4441   0.108398
 C 0.5212 0.4041 0.4854   -0.13105
 C 0.443 0.5559 0.4568   -0.131545
 C 0.4737 0.016 0.1694   0.891831
 C 0.3838 0.9775 0.1208   -0.387479
 C 0.4459 0.9883 0.0578   0.100928
 C 0.4974 0.0761 0.0407   -0.137654
 C 0.4505 0.9134 0.0167   -0.126848
 C 0.0864 0.1497 0.8686   0.854443
 C 0.093 0.0838 0.9193   -0.408198
 C 0.0539 0.1233 0.9811   0.110472
 C 0.9212 0.1436 0.9966   -0.107898
 C 0.8846 0.1745 0.0535   -0.144123
 C 0.9779 0.1901 0.0985   0.122912
 C 0.11 0.1725 0.085   -0.159218
 C 0.1439 0.1385 0.0257   -0.122566
 C 0.9377 0.22 0.1615   -0.395621
 C 0.8657 0.1426 0.1923   0.813698
 C 0.362 0.1852 0.6819   0.798952
 C 0.4219 0.2562 0.6387   -0.384121
 C 0.467 0.2079 0.5789   0.110524
 C 0.5986 0.1904 0.5671   -0.131928
 C 0.6379 0.1461 0.5127   -0.132509
 C 0.5488 0.1198 0.4697   0.115496
 C 0.417 0.136 0.4829   -0.113544
 C 0.3772 0.1789 0.5365   -0.133186
 C 0.5941 0.0713 0.4101   -0.41068
 C 0.5803 0.1267 0.3531   0.85201
 C 0.0376 0.0649 0.6639   0.849012
 C 0.9294 0.0808 0.6197   -0.408649
 C 0.9637 0.0382 0.5559   0.108398
 C 0.0212 0.0959 0.5146   -0.131049
 C 0.943 0.9441 0.5432   -0.131545
 C 0.9737 0.484 0.8306   0.89183
 C 0.8838 0.5225 0.8792   -0.387479
 C 0.9459 0.5117 0.9422   0.100928
 C 0.9974 0.4239 0.9593   -0.137654
 C 0.9505 0.5866 0.9833   -0.126848
 O 0.3334 0.6357 0.8251   -0.879115
 O 0.4931 0.7171 0.8649   -0.711124
 O 0.572 0.5766 0.2171   -0.707791
 O 0.7597 0.6382 0.1916   -0.837442
 O 0.2346 0.7068 0.7149   -0.831486
 O 0.0821 0.6045 0.6877   -0.69415
 O 0.8669 0.5971 0.304   -0.892447
 O 0.9815 0.7046 0.3506   -0.72609
 O 0.4729 0.6079 0.7177   -0.917701
 O 0.3684 0.5133 0.6541   -0.673572
 O 0.5469 0.9035 0.8071   -0.80753
 O 0.4318 0.0364 0.8145   -0.778398
 O 0.8334 0.8643 0.1749   -0.879115
 O 0.9931 0.7829 0.1351   -0.711124
 O 0.072 0.9234 0.7829   -0.707791
 O 0.2597 0.8618 0.8084   -0.837442
 O 0.7346 0.7932 0.2851   -0.831486
 O 0.5821 0.8955 0.3123   -0.69415
 O 0.3669 0.9029 0.696   -0.892447
 O 0.4815 0.7954 0.6494   -0.72609
 O 0.9729 0.8921 0.2823   -0.917701
 O 0.8684 0.9867 0.3459   -0.673571
 O 0.0469 0.5965 0.1929   -0.80753
 O 0.9318 0.4636 0.1855   -0.778398
 O 0.6666 0.3643 0.1749   -0.879115
 O 0.5069 0.2829 0.1351   -0.711124
 O 0.428 0.4234 0.7829   -0.707791
 O 0.2403 0.3618 0.8084   -0.837442
 O 0.7654 0.2932 0.2851   -0.831486
 O 0.9179 0.3955 0.3123   -0.69415
 O 0.1331 0.4029 0.696   -0.892447
 O 0.0185 0.2954 0.6494   -0.72609
 O 0.5271 0.3921 0.2823   -0.917701
 O 0.6316 0.4867 0.3459   -0.673572
 O 0.4531 0.0965 0.1929   -0.80753
 O 0.5682 0.9636 0.1855   -0.778398
 O 0.1666 0.1357 0.8251   -0.879115
 O 0.0069 0.2171 0.8649   -0.711124
 O 0.928 0.0766 0.2171   -0.707791
 O 0.7403 0.1382 0.1916   -0.837442
 O 0.2654 0.2068 0.7149   -0.831486
 O 0.4179 0.1045 0.6877   -0.69415
 O 0.6331 0.0971 0.304   -0.892447
 O 0.5185 0.2046 0.3506   -0.72609
 O 0.0271 0.1079 0.7177   -0.917701
 O 0.1316 0.0133 0.6541   -0.673572
 O 0.9531 0.4035 0.8071   -0.80753
 O 0.0682 0.5364 0.8145   -0.778398
