{'_ref': 'TBD', '_srcid': 'CAKYAQ_clean', 'submitters': [{'name': 'Dalar Nazarian Jeff Camp and David Sholl', 'email': 'dalar@gatech.edu jcamp6@gatech.edu'}], '_method': 'VASP DFT with PBE;DDEC'}
data_CdH13C18N3O4
_symmetry_space_group_name_H-M   'P 1'
_cell_length_a   11.72000000
_cell_length_b   13.70000000
_cell_length_c   21.05000000
_cell_angle_alpha   90.00000000
_cell_angle_beta   90.00000000
_cell_angle_gamma   90.00000000
_symmetry_Int_Tables_number   1
_chemical_formula_structural   CdH13C18N3O4
_chemical_formula_sum   'Cd4 H52 C72 N12 O16'
_cell_volume   3379.8722
_cell_formula_units_Z   4
loop_
 _symmetry_equiv_pos_site_id
 _symmetry_equiv_pos_as_xyz
  1  'x, y, z'
loop_
 _atom_site_label
 _atom_site_fract_x
 _atom_site_fract_y
 _atom_site_fract_z
 _atom_site_charge
 Cd 0.0 0.59869 0.43433   0.976202
 Cd 0.0 0.40131 0.56567   0.976203
 Cd 0.0 0.90131 0.93433   0.976202
 Cd 0.0 0.09869 0.06567   0.976203
 H 0.7833 0.4724 0.3803   0.10164
 H 0.5853 0.4727 0.3785   0.130231
 H 0.5828 0.7138 0.4873   0.128921
 H 0.7807 0.7135 0.489   0.10595
 H 0.7833 0.5276 0.6197   0.10164
 H 0.5853 0.5273 0.6215   0.130231
 H 0.5828 0.2862 0.5127   0.128921
 H 0.7807 0.2865 0.511   0.10595
 H 0.2167 0.0276 0.8803   0.10164
 H 0.4147 0.0273 0.8785   0.130231
 H 0.4172 0.7862 0.9873   0.128921
 H 0.2193 0.7865 0.989   0.10595
 H 0.2167 0.9724 0.1197   0.10164
 H 0.4147 0.9727 0.1215   0.130231
 H 0.4172 0.2138 0.0127   0.128921
 H 0.2193 0.2135 0.011   0.10595
 H 0.2167 0.5276 0.6197   0.10164
 H 0.4147 0.5273 0.6215   0.130233
 H 0.4172 0.2862 0.5127   0.128917
 H 0.2193 0.2865 0.511   0.10595
 H 0.2167 0.4724 0.3803   0.10164
 H 0.4147 0.4727 0.3785   0.130233
 H 0.4172 0.7138 0.4873   0.128916
 H 0.2193 0.7135 0.489   0.10595
 H 0.7833 0.9724 0.1197   0.10164
 H 0.5853 0.9727 0.1215   0.130233
 H 0.5828 0.2138 0.0127   0.128917
 H 0.7807 0.2135 0.011   0.10595
 H 0.7833 0.0276 0.8803   0.10164
 H 0.5853 0.0273 0.8785   0.130233
 H 0.5828 0.7862 0.9873   0.128916
 H 0.7807 0.7865 0.989   0.10595
 H 0.0 0.5772 0.6738   0.097152
 H 0.0 0.651 0.769   0.062022
 H 0.0 0.843 0.5978   0.125044
 H 0.0 0.9754 0.6626   0.343559
 H 0.0 0.9692 0.7366   0.33293
 H 0.0 0.4228 0.3262   0.097152
 H 0.0 0.349 0.231   0.062022
 H 0.0 0.157 0.4022   0.125045
 H 0.0 0.0246 0.3374   0.343559
 H 0.0 0.0308 0.2634   0.33293
 H 0.0 0.9228 0.1738   0.097152
 H 0.0 0.849 0.269   0.062023
 H 0.0 0.657 0.0978   0.125044
 H 0.0 0.5246 0.1626   0.343559
 H 0.0 0.5308 0.2366   0.332931
 H 0.0 0.0772 0.8262   0.097152
 H 0.0 0.151 0.731   0.062023
 H 0.0 0.343 0.9022   0.125045
 H 0.0 0.4754 0.8374   0.343559
 H 0.0 0.4692 0.7634   0.332931
 C 0.7431 0.5208 0.40173   0.171001
 C 0.6245 0.521 0.40069   -0.196065
 C 0.56442 0.5933 0.43273   0.084336
 C 0.6229 0.6654 0.46581   -0.196934
 C 0.7415 0.6652 0.46686   0.167318
 C 0.7431 0.4792 0.59827   0.171002
 C 0.6245 0.479 0.59931   -0.196065
 C 0.56442 0.4067 0.56727   0.084336
 C 0.6229 0.3346 0.53419   -0.196934
 C 0.7415 0.3348 0.53314   0.167318
 C 0.2569 0.9792 0.90173   0.171001
 C 0.3755 0.979 0.90069   -0.196065
 C 0.43558 0.9067 0.93273   0.084336
 C 0.3771 0.8346 0.96581   -0.196934
 C 0.2585 0.8348 0.96686   0.167318
 C 0.2569 0.0208 0.09827   0.171002
 C 0.3755 0.021 0.09931   -0.196065
 C 0.43558 0.0933 0.06727   0.084336
 C 0.3771 0.1654 0.03419   -0.196934
 C 0.2585 0.1652 0.03314   0.167318
 C 0.2569 0.4792 0.59827   0.171002
 C 0.3755 0.479 0.59931   -0.196065
 C 0.43558 0.4067 0.56727   0.084336
 C 0.3771 0.3346 0.53419   -0.196933
 C 0.2585 0.3348 0.53314   0.167317
 C 0.2569 0.5208 0.40173   0.171002
 C 0.3755 0.521 0.40069   -0.196065
 C 0.43558 0.5933 0.43273   0.084336
 C 0.3771 0.6654 0.46581   -0.196933
 C 0.2585 0.6652 0.46686   0.167317
 C 0.7431 0.0208 0.09827   0.171002
 C 0.6245 0.021 0.09931   -0.196065
 C 0.56442 0.0933 0.06727   0.084336
 C 0.6229 0.1654 0.03419   -0.196933
 C 0.7415 0.1652 0.03314   0.167317
 C 0.7431 0.9792 0.90173   0.171002
 C 0.6245 0.979 0.90069   -0.196065
 C 0.56442 0.9067 0.93273   0.084336
 C 0.6229 0.8346 0.96581   -0.196933
 C 0.7415 0.8348 0.96686   0.167317
 C 0.0 0.6612 0.5602   0.648268
 C 0.0 0.704 0.6266   -0.066784
 C 0.0 0.6446 0.6787   -0.204652
 C 0.0 0.6862 0.7392   0.050709
 C 0.0 0.8022 0.6348   -0.258696
 C 0.0 0.8427 0.6949   0.371268
 C 0.0 0.7838 0.74834   -0.294907
 C 0.0 0.8239 0.81473   0.690167
 C 0.0 0.3388 0.4398   0.648268
 C 0.0 0.296 0.3734   -0.066784
 C 0.0 0.3554 0.3213   -0.204652
 C 0.0 0.3138 0.2608   0.050709
 C 0.0 0.1978 0.3652   -0.258697
 C 0.0 0.1573 0.3051   0.371268
 C 0.0 0.2162 0.25166   -0.294907
 C 0.0 0.1761 0.18527   0.690167
 C 0.0 0.8388 0.0602   0.648268
 C 0.0 0.796 0.1266   -0.066784
 C 0.0 0.8554 0.1787   -0.204652
 C 0.0 0.8138 0.2392   0.050709
 C 0.0 0.6978 0.1348   -0.258696
 C 0.0 0.6573 0.1949   0.371268
 C 0.0 0.7162 0.24834   -0.294907
 C 0.0 0.6761 0.31473   0.690167
 C 0.0 0.1612 0.9398   0.648268
 C 0.0 0.204 0.8734   -0.066784
 C 0.0 0.1446 0.8213   -0.204652
 C 0.0 0.1862 0.7608   0.050709
 C 0.0 0.3022 0.8652   -0.258697
 C 0.0 0.3427 0.8051   0.371268
 C 0.0 0.2838 0.75166   -0.294907
 C 0.0 0.3239 0.68527   0.690167
 N 0.8016 0.5929 0.43482   -0.339122
 N 0.8016 0.4071 0.56518   -0.339122
 N 0.1984 0.9071 0.93482   -0.339122
 N 0.1984 0.0929 0.06518   -0.339122
 N 0.1984 0.4071 0.56518   -0.339122
 N 0.1984 0.5929 0.43482   -0.339122
 N 0.8016 0.0929 0.06518   -0.339122
 N 0.8016 0.9071 0.93482   -0.339122
 N 0.0 0.9395 0.6984   -0.703874
 N 0.0 0.0605 0.3016   -0.703874
 N 0.0 0.5605 0.1984   -0.703875
 N 0.0 0.4395 0.8016   -0.703875
 O 0.0 0.7171 0.51375   -0.591185
 O 0.0 0.5711 0.55392   -0.641787
 O 0.0 0.7668 0.86069   -0.635902
 O 0.0 0.9126 0.82263   -0.614086
 O 0.0 0.2829 0.48625   -0.591185
 O 0.0 0.4289 0.44608   -0.641787
 O 0.0 0.2332 0.13931   -0.635902
 O 0.0 0.0874 0.17737   -0.614086
 O 0.0 0.7829 0.01375   -0.591185
 O 0.0 0.9289 0.05392   -0.641787
 O 0.0 0.7332 0.36069   -0.635902
 O 0.0 0.5874 0.32263   -0.614086
 O 0.0 0.2171 0.98625   -0.591185
 O 0.0 0.0711 0.94608   -0.641787
 O 0.0 0.2668 0.63931   -0.635902
 O 0.0 0.4126 0.67737   -0.614086
