{'_ref': 'TBD', '_srcid': 'CAKYAQ_clean', 'submitters': [{'name': 'Dalar Nazarian Jeff Camp and David Sholl', 'email': 'dalar@gatech.edu jcamp6@gatech.edu'}], '_method': 'VASP DFT with PBE;DDEC'}
data_CdH14C24(NO2)2
_symmetry_space_group_name_H-M   'P 1'
_cell_length_a   7.54400030
_cell_length_b   14.72970029
_cell_length_c   14.72970000
_cell_angle_alpha   63.08399847
_cell_angle_beta   75.57200179
_cell_angle_gamma   75.57210001
_symmetry_Int_Tables_number   1
_chemical_formula_structural   CdH14C24(NO2)2
_chemical_formula_sum   'Cd2 H28 C48 N4 O8'
_cell_volume   1395.70209317
_cell_formula_units_Z   2
loop_
 _symmetry_equiv_pos_site_id
 _symmetry_equiv_pos_as_xyz
  1  'x, y, z'
loop_
 _atom_site_label
 _atom_site_fract_x
 _atom_site_fract_y
 _atom_site_fract_z
 _atom_site_charge
 Cd 0.75157 0.9189 0.86738   1.057168
 Cd 0.25157 0.86738 0.9189   1.057169
 H 0.8614 0.6153 0.1611   0.108185
 H 0.9587 0.4457 0.2735   0.102898
 H 0.2141 0.5697 0.9267   0.104851
 H 0.3063 0.4028 0.0362   0.100204
 H 0.031 0.2894 0.3678   0.110574
 H 0.9376 0.2217 0.5243   0.125689
 H 0.7967 0.137 0.6922   0.090402
 H 0.0585 0.8732 0.6982   0.08436
 H 0.2042 0.9487 0.5351   0.122793
 H 0.3378 0.0205 0.3871   0.110356
 H 0.5771 0.9511 0.3245   0.104979
 H 0.7955 0.8611 0.2355   0.097602
 H 0.7498 0.1087 0.9679   0.106803
 H 0.533 0.1982 0.055   0.095825
 H 0.3614 0.1611 0.6153   0.108187
 H 0.4587 0.2735 0.4457   0.102898
 H 0.7141 0.9267 0.5697   0.104848
 H 0.8063 0.0362 0.4028   0.100206
 H 0.531 0.3678 0.2894   0.110574
 H 0.4376 0.5243 0.2217   0.125691
 H 0.2967 0.6922 0.137   0.090399
 H 0.5585 0.6982 0.8732   0.084358
 H 0.7042 0.5351 0.9487   0.122793
 H 0.8378 0.3871 0.0205   0.110362
 H 0.0771 0.3245 0.9511   0.104984
 H 0.2955 0.2355 0.8611   0.097602
 H 0.2498 0.9679 0.1087   0.106794
 H 0.033 0.055 0.1982   0.095826
 C 0.9643 0.7206 0.963   0.646602
 C 0.0281 0.6109 0.0345   -0.120288
 C 0.9522 0.573 0.136   -0.05077
 C 0.0095 0.4699 0.2039   -0.130056
 C 0.141 0.4051 0.1669   -0.009951
 C 0.1627 0.5451 0.9961   -0.065363
 C 0.2168 0.4453 0.0619   -0.093199
 C 0.1994 0.2948 0.2358   0.239081
 C 0.1202 0.2497 0.3387   -0.212095
 C 0.1729 0.1464 0.3978   0.091612
 C 0.0863 0.095 0.5066   0.103902
 C 0.964 0.1503 0.5575   -0.199586
 C 0.8794 0.0981 0.6597   0.182219
 C 0.032 0.9445 0.6633   0.182459
 C 0.1198 0.9898 0.5644   -0.189148
 C 0.3028 0.0909 0.3501   -0.198132
 C 0.3816 0.1383 0.2485   0.255133
 C 0.5266 0.0823 0.1949   0.001244
 C 0.6085 0.9819 0.2531   -0.134625
 C 0.7418 0.9286 0.199   -0.040233
 C 0.7928 0.976 0.0922   -0.129557
 C 0.7151 0.076 0.039   -0.034031
 C 0.5824 0.1298 0.0916   -0.082635
 C 0.9435 0.9221 0.0373   0.639061
 C 0.4643 0.963 0.7206   0.646591
 C 0.5281 0.0345 0.6109   -0.12029
 C 0.4522 0.136 0.573   -0.050784
 C 0.5095 0.2039 0.4699   -0.13005
 C 0.641 0.1669 0.4051   -0.009944
 C 0.6627 0.9961 0.5451   -0.065347
 C 0.7168 0.0619 0.4453   -0.093209
 C 0.6994 0.2358 0.2948   0.239076
 C 0.6202 0.3387 0.2497   -0.212092
 C 0.6729 0.3978 0.1464   0.091614
 C 0.5863 0.5066 0.095   0.1039
 C 0.464 0.5575 0.1503   -0.199593
 C 0.3794 0.6597 0.0981   0.182233
 C 0.532 0.6633 0.9445   0.182467
 C 0.6198 0.5644 0.9898   -0.189147
 C 0.8028 0.3501 0.0909   -0.198155
 C 0.8816 0.2485 0.1383   0.255163
 C 0.0266 0.1949 0.0823   0.001239
 C 0.1085 0.2531 0.9819   -0.134643
 C 0.2418 0.199 0.9286   -0.040225
 C 0.2928 0.0922 0.976   -0.129555
 C 0.2151 0.039 0.076   -0.034018
 C 0.0824 0.0916 0.1298   -0.082641
 C 0.4435 0.0373 0.9221   0.639052
 N 0.3269 0.2385 0.1907   -0.390804
 N 0.9116 0.9964 0.7124   -0.342154
 N 0.8269 0.1907 0.2385   -0.390807
 N 0.4116 0.7124 0.9964   -0.342165
 O 0.8057 0.7608 0.9858   -0.5515
 O 0.0827 0.7685 0.8853   -0.669815
 O 0.9578 0.9595 0.9393   -0.634389
 O 0.0533 0.8459 0.0873   -0.585675
 O 0.3057 0.9858 0.7608   -0.551495
 O 0.5827 0.8853 0.7685   -0.669809
 O 0.4578 0.9393 0.9595   -0.634384
 O 0.5533 0.0873 0.8459   -0.585671
