{'_ref': 'TBD', '_srcid': 'CAKYAQ_clean', 'submitters': [{'name': 'Dalar Nazarian Jeff Camp and David Sholl', 'email': 'dalar@gatech.edu jcamp6@gatech.edu'}], '_method': 'VASP DFT with PBE;DDEC'}
data_Mn2Ru3(CO3)6
_symmetry_space_group_name_H-M   'P 1'
_cell_length_a   13.61800000
_cell_length_b   13.66399995
_cell_length_c   16.95400000
_cell_angle_alpha   110.74000214
_cell_angle_beta   90.00000000
_cell_angle_gamma   90.00000000
_symmetry_Int_Tables_number   1
_chemical_formula_structural   Mn2Ru3(CO3)6
_chemical_formula_sum   'Mn8 Ru12 C24 O72'
_cell_volume   2950.30199895
_cell_formula_units_Z   4
loop_
 _symmetry_equiv_pos_site_id
 _symmetry_equiv_pos_as_xyz
  1  'x, y, z'
loop_
 _atom_site_label
 _atom_site_fract_x
 _atom_site_fract_y
 _atom_site_fract_z
 _atom_site_charge
 Mn 0.18944 0.77151 0.66034   1.192034
 Mn 0.28431 0.33393 0.19512   1.227422
 Mn 0.68944 0.22849 0.83966   1.192042
 Mn 0.78431 0.66607 0.30488   1.227436
 Mn 0.81056 0.22849 0.33966   1.192064
 Mn 0.71569 0.66607 0.80488   1.227442
 Mn 0.31056 0.77151 0.16034   1.192072
 Mn 0.21569 0.33393 0.69512   1.227455
 Ru 0.52629 0.99838 0.43641   1.093598
 Ru 0.07782 0.98922 0.47537   1.10876
 Ru 0.50202 0.56695 0.47573   1.115805
 Ru 0.02629 0.00162 0.06359   1.093598
 Ru 0.57782 0.01078 0.02463   1.10876
 Ru 0.00202 0.43305 0.02427   1.115805
 Ru 0.47371 0.00162 0.56359   1.093848
 Ru 0.92218 0.01078 0.52463   1.108993
 Ru 0.49798 0.43305 0.52427   1.116151
 Ru 0.97371 0.99838 0.93641   1.093848
 Ru 0.42218 0.98922 0.97537   1.108992
 Ru 0.99798 0.56695 0.97573   1.116151
 C 0.5076 0.7907 0.4464   0.924205
 C 0.3148 0.9833 0.4454   0.910373
 C 0.9552 0.8082 0.3958   0.91915
 C 0.0527 0.9276 0.6209   0.914928
 C 0.3718 0.399 0.3786   0.943977
 C 0.6514 0.4093 0.3996   0.953592
 C 0.0076 0.2093 0.0536   0.924205
 C 0.8148 0.0167 0.0546   0.910373
 C 0.4552 0.1918 0.1042   0.91915
 C 0.5527 0.0724 0.8791   0.914928
 C 0.8718 0.601 0.1214   0.943977
 C 0.1514 0.5907 0.1004   0.953592
 C 0.4924 0.2093 0.5536   0.924212
 C 0.6852 0.0167 0.5546   0.910377
 C 0.0448 0.1918 0.6042   0.919147
 C 0.9473 0.0724 0.3791   0.914927
 C 0.6282 0.601 0.6214   0.94398
 C 0.3486 0.5907 0.6004   0.953594
 C 0.9924 0.7907 0.9464   0.924212
 C 0.1852 0.9833 0.9454   0.910377
 C 0.5448 0.8082 0.8958   0.919147
 C 0.4473 0.9276 0.1209   0.914927
 C 0.1282 0.399 0.8786   0.94398
 C 0.8486 0.4093 0.8996   0.953594
 O 0.5312 0.8403 0.3961   -0.660175
 O 0.4799 0.8425 0.5233   -0.602161
 O 0.5117 0.692 0.4174   -0.625014
 O 0.3861 0.988 0.3957   -0.600815
 O 0.3323 0.9913 0.5227   -0.625667
 O 0.2286 0.9707 0.4156   -0.603551
 O 0.0451 0.8416 0.3981   -0.570352
 O 0.8899 0.8643 0.447   -0.63911
 O 0.9329 0.7206 0.3404   -0.666793
 O 0.1172 0.9365 0.5685   -0.628195
 O 0.9621 0.9557 0.6165   -0.560689
 O 0.076 0.8916 0.6778   -0.677023
 O 0.405 0.4902 0.3838   -0.617022
 O 0.3116 0.3496 0.3222   -0.691934
 O 0.4012 0.357 0.4329   -0.569764
 O 0.617 0.4986 0.4003   -0.627514
 O 0.611 0.3637 0.4469   -0.623139
 O 0.7237 0.3679 0.3525   -0.715361
 O 0.0312 0.1597 0.1039   -0.660175
 O 0.9799 0.1575 0.9767   -0.602161
 O 0.0117 0.308 0.0826   -0.625014
 O 0.8861 0.012 0.1043   -0.600815
 O 0.8323 0.0087 0.9773   -0.625667
 O 0.7286 0.0293 0.0844   -0.603551
 O 0.5451 0.1584 0.1019   -0.570352
 O 0.3899 0.1357 0.053   -0.63911
 O 0.4329 0.2794 0.1596   -0.666793
 O 0.6172 0.0635 0.9315   -0.628195
 O 0.4621 0.0443 0.8835   -0.560689
 O 0.576 0.1084 0.8222   -0.677024
 O 0.905 0.5098 0.1162   -0.617023
 O 0.8116 0.6504 0.1778   -0.691935
 O 0.9012 0.643 0.0671   -0.569764
 O 0.117 0.5014 0.0997   -0.627514
 O 0.111 0.6363 0.0531   -0.623139
 O 0.2237 0.6321 0.1475   -0.715362
 O 0.4688 0.1597 0.6039   -0.660189
 O 0.5201 0.1575 0.4767   -0.602148
 O 0.4883 0.308 0.5826   -0.625034
 O 0.6139 0.012 0.6043   -0.60083
 O 0.6677 0.0087 0.4773   -0.625653
 O 0.7714 0.0293 0.5844   -0.603565
 O 0.9549 0.1584 0.6019   -0.570366
 O 0.1101 0.1357 0.553   -0.639095
 O 0.0671 0.2794 0.6596   -0.666794
 O 0.8828 0.0635 0.4315   -0.628211
 O 0.0379 0.0443 0.3835   -0.560676
 O 0.924 0.1084 0.3222   -0.677025
 O 0.595 0.5098 0.6162   -0.617043
 O 0.6884 0.6504 0.6778   -0.691936
 O 0.5988 0.643 0.5671   -0.569743
 O 0.383 0.5014 0.5997   -0.627534
 O 0.389 0.6363 0.5531   -0.623116
 O 0.2763 0.6321 0.6475   -0.71536
 O 0.9688 0.8403 0.8961   -0.660189
 O 0.0201 0.8425 0.0233   -0.602148
 O 0.9883 0.692 0.9174   -0.625034
 O 0.1139 0.988 0.8957   -0.60083
 O 0.1677 0.9913 0.0227   -0.625653
 O 0.2714 0.9707 0.9156   -0.603565
 O 0.4549 0.8416 0.8981   -0.570366
 O 0.6101 0.8643 0.947   -0.639095
 O 0.5671 0.7206 0.8404   -0.666793
 O 0.3828 0.9365 0.0685   -0.628211
 O 0.5379 0.9557 0.1165   -0.560676
 O 0.424 0.8916 0.1778   -0.677025
 O 0.095 0.4902 0.8838   -0.617043
 O 0.1884 0.3496 0.8222   -0.691936
 O 0.0988 0.357 0.9329   -0.569743
 O 0.883 0.4986 0.9003   -0.627534
 O 0.889 0.3637 0.9469   -0.623116
 O 0.7763 0.3679 0.8525   -0.71536
