{'_ref': 'TBD', '_srcid': 'CAKYAQ_clean', 'submitters': [{'name': 'Dalar Nazarian Jeff Camp and David Sholl', 'email': 'dalar@gatech.edu jcamp6@gatech.edu'}], '_method': 'VASP DFT with PBE;DDEC'}
data_CuH6C6(NO)2
_symmetry_space_group_name_H-M   'P 1'
_cell_length_a   13.81510017
_cell_length_b   13.81510044
_cell_length_c   13.81510000
_cell_angle_alpha   105.33499971
_cell_angle_beta   105.33500002
_cell_angle_gamma   118.10400042
_symmetry_Int_Tables_number   1
_chemical_formula_structural   CuH6C6(NO)2
_chemical_formula_sum   'Cu4 H24 C24 N8 O8'
_cell_volume   1994.71006816
_cell_formula_units_Z   4
loop_
 _symmetry_equiv_pos_site_id
 _symmetry_equiv_pos_as_xyz
  1  'x, y, z'
loop_
 _atom_site_label
 _atom_site_fract_x
 _atom_site_fract_y
 _atom_site_fract_z
 _atom_site_charge
 Cu 0.52117 0.62025 0.09908   0.670555
 Cu 0.52117 0.42209 0.90092   0.687862
 Cu 0.67209 0.27117 0.40092   0.693081
 Cu 0.87025 0.27117 0.59908   0.69308
 H 0.6577 0.5922 0.3915   0.152373
 H 0.5119 0.5159 0.3326   0.138399
 H 0.5919 0.6373 0.3226   0.132551
 H 0.2007 0.2662 0.6085   0.152415
 H 0.1833 0.1793 0.6674   0.138326
 H 0.3147 0.2693 0.6774   0.132793
 H 0.5162 0.4077 0.5655   0.152032
 H 0.4293 0.2619 0.496   0.137938
 H 0.5193 0.3419 0.4546   0.132036
 H 0.8422 0.9507 0.4345   0.151949
 H 0.7659 0.9333 0.504   0.138095
 H 0.8873 0.0647 0.5454   0.132289
 H 0.2007 0.5922 0.9345   0.152371
 H 0.1833 0.5159 0.004   0.138392
 H 0.3147 0.6373 0.0454   0.132549
 H 0.6577 0.2662 0.0655   0.15242
 H 0.5119 0.1793 0.996   0.138328
 H 0.5919 0.2693 0.9546   0.132797
 H 0.8422 0.4077 0.8915   0.152024
 H 0.7659 0.2619 0.8326   0.13794
 H 0.8873 0.3419 0.8226   0.132031
 H 0.5162 0.9507 0.1085   0.151954
 H 0.4293 0.9333 0.1674   0.138097
 H 0.5193 0.0647 0.1774   0.132291
 C 0.5798 0.4911 0.2221   0.339544
 C 0.5859 0.5656 0.3263   -0.409686
 C 0.269 0.3577 0.7779   0.341118
 C 0.2393 0.2596 0.6737   -0.410056
 C 0.6077 0.3298 0.5887   0.340209
 C 0.5096 0.3359 0.5203   -0.409447
 C 0.7411 0.019 0.4113   0.340439
 C 0.8156 0.9893 0.4797   -0.409664
 C 0.269 0.4911 0.9113   0.339517
 C 0.2393 0.5656 0.9797   -0.409676
 C 0.5798 0.3577 0.0887   0.34114
 C 0.5859 0.2596 0.0203   -0.410065
 C 0.7411 0.3298 0.7221   0.3402
 C 0.8156 0.3359 0.8263   -0.409425
 C 0.6077 0.019 0.2779   0.340444
 C 0.5096 0.9893 0.1737   -0.409686
 C 0.6043 0.3998 0.2045   -0.438062
 C 0.6345 0.3553 0.2792   0.685451
 C 0.1953 0.3998 0.7955   -0.438061
 C 0.0761 0.3553 0.7208   0.685458
 C 0.6498 0.3543 0.7045   -0.439565
 C 0.6053 0.3845 0.7792   0.686403
 C 0.6498 0.9453 0.2955   -0.440327
 C 0.6053 0.8261 0.2208   0.684563
 N 0.5489 0.5023 0.1278   -0.28113
 N 0.3745 0.4211 0.8722   -0.289243
 N 0.6711 0.2989 0.5466   -0.291531
 N 0.7523 0.1245 0.4534   -0.290645
 N 0.3745 0.5023 0.9534   -0.28109
 N 0.5489 0.4211 0.0466   -0.289242
 N 0.7523 0.2989 0.6278   -0.2915
 N 0.6711 0.1245 0.3722   -0.290633
 O 0.6496 0.3996 0.3802   -0.532702
 O 0.0194 0.2694 0.6198   -0.532523
 O 0.5194 0.3996 0.75   -0.533837
 O 0.6496 0.7694 0.25   -0.5273
 O 0.0194 0.3996 0.75   -0.532707
 O 0.6496 0.2694 0.25   -0.532508
 O 0.6496 0.3996 0.8802   -0.533847
 O 0.5194 0.7694 0.1198   -0.527294
