{'_ref': 'TBD', '_srcid': 'CAKYAQ_clean', 'submitters': [{'name': 'Dalar Nazarian Jeff Camp and David Sholl', 'email': 'dalar@gatech.edu jcamp6@gatech.edu'}], '_method': 'VASP DFT with PBE;DDEC'}
data_BaHC3SO4
_symmetry_space_group_name_H-M   'P 1'
_cell_length_a   5.87670000
_cell_length_b   7.50119958
_cell_length_c   16.47600000
_cell_angle_alpha   90.00000000
_cell_angle_beta   90.00000000
_cell_angle_gamma   94.47000196
_symmetry_Int_Tables_number   1
_chemical_formula_structural   BaHC3SO4
_chemical_formula_sum   'Ba4 H4 C12 S4 O16'
_cell_volume   724.090763585
_cell_formula_units_Z   4
loop_
 _symmetry_equiv_pos_site_id
 _symmetry_equiv_pos_as_xyz
  1  'x, y, z'
loop_
 _atom_site_label
 _atom_site_fract_x
 _atom_site_fract_y
 _atom_site_fract_z
 _atom_site_charge
 Ba 0.81964 0.71304 0.5328   1.694869
 Ba 0.18036 0.28696 0.0328   1.694869
 Ba 0.18036 0.28696 0.4672   1.69486
 Ba 0.81964 0.71304 0.9672   1.69486
 H 0.4567 0.8475 0.25   0.095731
 H 0.7919 0.4738 0.25   0.164158
 H 0.5433 0.1525 0.75   0.095731
 H 0.2081 0.5262 0.75   0.164158
 C 0.2261 0.7171 0.32316   -0.505476
 C 0.0193 0.6023 0.3249   0.516992
 C 0.7739 0.2829 0.82316   -0.505476
 C 0.9807 0.3977 0.8249   0.516992
 C 0.7739 0.2829 0.67684   -0.505476
 C 0.9807 0.3977 0.6751   0.516991
 C 0.2261 0.7171 0.17684   -0.505476
 C 0.0193 0.6023 0.1751   0.516991
 C 0.3234 0.7721 0.25   0.147742
 C 0.9253 0.5492 0.25   -0.465466
 C 0.6766 0.2279 0.75   0.147742
 C 0.0747 0.4508 0.75   -0.465466
 S 0.33876 0.79912 0.41489   1.465444
 S 0.66124 0.20088 0.91489   1.465444
 S 0.66124 0.20088 0.58511   1.465444
 S 0.33876 0.79912 0.08511   1.465444
 O 0.5573 0.8983 0.39936   -0.686209
 O 0.3665 0.6467 0.46893   -0.826647
 O 0.1695 0.9117 0.44936   -0.815355
 O 0.9258 0.5435 0.39375   -0.814696
 O 0.4427 0.1017 0.89936   -0.686209
 O 0.6335 0.3533 0.96893   -0.826647
 O 0.8305 0.0883 0.94936   -0.815355
 O 0.0742 0.4565 0.89375   -0.814696
 O 0.4427 0.1017 0.60064   -0.686209
 O 0.6335 0.3533 0.53107   -0.826647
 O 0.8305 0.0883 0.55064   -0.815355
 O 0.0742 0.4565 0.60625   -0.814696
 O 0.5573 0.8983 0.10064   -0.686209
 O 0.3665 0.6467 0.03107   -0.826647
 O 0.1695 0.9117 0.05064   -0.815355
 O 0.9258 0.5435 0.10625   -0.814696
