{'_ref': 'TBD', '_srcid': 'CAKYAQ_clean', 'submitters': [{'name': 'Dalar Nazarian Jeff Camp and David Sholl', 'email': 'dalar@gatech.edu jcamp6@gatech.edu'}], '_method': 'VASP DFT with PBE;DDEC'}
data_Nd2Co3H16C40(NO3)8
_symmetry_space_group_name_H-M   'P 1'
_cell_length_a   7.63740000
_cell_length_b   10.46700003
_cell_length_c   30.49200000
_cell_angle_alpha   99.05000194
_cell_angle_beta   90.00000000
_cell_angle_gamma   90.00000000
_symmetry_Int_Tables_number   1
_chemical_formula_structural   Nd2Co3H16C40(NO3)8
_chemical_formula_sum   'Nd4 Co6 H32 C80 N16 O48'
_cell_volume   2407.20680247
_cell_formula_units_Z   2
loop_
 _symmetry_equiv_pos_site_id
 _symmetry_equiv_pos_as_xyz
  1  'x, y, z'
loop_
 _atom_site_label
 _atom_site_fract_x
 _atom_site_fract_y
 _atom_site_fract_z
 _atom_site_charge
 Nd 0.87182 0.55179 0.7681   2.387371
 Nd 0.37182 0.44821 0.7319   2.387371
 Nd 0.12818 0.44821 0.2319   2.387371
 Nd 0.62818 0.55179 0.2681   2.387371
 Co 0.94619 0.71369 0.13011   0.963895
 Co 0.44619 0.28631 0.36989   0.963895
 Co 0.05381 0.28631 0.86989   0.963895
 Co 0.55381 0.71369 0.63011   0.963895
 Co 0.0 0.0 0.0   0.949979
 Co 0.5 0.0 0.5   0.949979
 H 0.0552 0.7565 0.9183   0.149925
 H 0.6509 0.7997 0.8778   0.13559
 H 0.3781 0.1272 0.9858   0.109485
 H 0.3177 0.0777 0.217   0.146729
 H 0.9254 0.0251 0.1861   0.133812
 H 0.5294 0.6895 0.1242   0.113216
 H 0.607 0.0351 0.9377   0.303571
 H 0.3119 0.8346 0.1601   0.310955
 H 0.5552 0.2435 0.5817   0.149925
 H 0.1509 0.2003 0.6222   0.13559
 H 0.8781 0.8728 0.5142   0.109485
 H 0.8177 0.9223 0.283   0.146729
 H 0.4254 0.9749 0.3139   0.133812
 H 0.0294 0.3105 0.3758   0.113216
 H 0.107 0.9649 0.5623   0.303571
 H 0.8119 0.1654 0.3399   0.310955
 H 0.9448 0.2435 0.0817   0.149925
 H 0.3491 0.2003 0.1222   0.13559
 H 0.6219 0.8728 0.0142   0.109484
 H 0.6823 0.9223 0.783   0.146729
 H 0.0746 0.9749 0.8139   0.133812
 H 0.4706 0.3105 0.8758   0.113215
 H 0.393 0.9649 0.0623   0.303571
 H 0.6881 0.1654 0.8399   0.310955
 H 0.4448 0.7565 0.4183   0.149925
 H 0.8491 0.7997 0.3778   0.13559
 H 0.1219 0.1272 0.4858   0.109484
 H 0.1823 0.0777 0.717   0.146729
 H 0.5746 0.0251 0.6861   0.133812
 H 0.9706 0.6895 0.6242   0.113215
 H 0.893 0.0351 0.4377   0.303571
 H 0.1881 0.8346 0.6601   0.310955
 C 0.9704 0.7901 0.04461   0.478506
 C 0.0677 0.8951 0.07721   0.504487
 C 0.1507 0.5553 0.86095   0.775933
 C 0.2552 0.673 0.87909   -0.052061
 C 0.1745 0.7647 0.91042   -0.151603
 C 0.2751 0.8687 0.92973   0.18175
 C 0.4495 0.8822 0.91647   0.090509
 C 0.5319 0.7905 0.88586   -0.110904
 C 0.4332 0.6845 0.86744   -0.140117
 C 0.5135 0.5849 0.8332   0.767746
 C 0.3716 0.0475 0.9661   0.243326
 C 0.4983 0.2622 0.26696   0.764036
 C 0.5601 0.1579 0.23042   -0.0475
 C 0.4396 0.0668 0.21152   -0.165234
 C 0.5052 0.9586 0.18412   0.137576
 C 0.6852 0.9394 0.17557   0.147552
 C 0.8042 0.0346 0.1928   -0.085079
 C 0.7419 0.1432 0.21984   -0.15992
 C 0.8687 0.2486 0.23488   0.745577
 C 0.5521 0.7714 0.14154   0.273205
 C 0.4704 0.2099 0.45539   0.478506
 C 0.5677 0.1049 0.42279   0.504487
 C 0.6507 0.4447 0.63905   0.775933
 C 0.7552 0.327 0.62091   -0.052061
 C 0.6745 0.2353 0.58958   -0.151603
 C 0.7751 0.1313 0.57027   0.18175
 C 0.9495 0.1178 0.58353   0.090509
 C 0.0319 0.2095 0.61414   -0.110904
 C 0.9332 0.3155 0.63256   -0.140117
 C 0.0135 0.4151 0.6668   0.767746
 C 0.8716 0.9525 0.5339   0.243326
 C 0.9983 0.7378 0.23304   0.764036
 C 0.0601 0.8421 0.26958   -0.0475
 C 0.9396 0.9332 0.28848   -0.165234
 C 0.0052 0.0414 0.31588   0.137576
 C 0.1852 0.0606 0.32443   0.147551
 C 0.3042 0.9654 0.3072   -0.085079
 C 0.2419 0.8568 0.28016   -0.15992
 C 0.3687 0.7514 0.26512   0.745577
 C 0.0521 0.2286 0.35846   0.273205
 C 0.0296 0.2099 0.95539   0.478506
 C 0.9323 0.1049 0.92279   0.504487
 C 0.8493 0.4447 0.13905   0.775934
 C 0.7448 0.327 0.12091   -0.052061
 C 0.8255 0.2353 0.08958   -0.151602
 C 0.7249 0.1313 0.07027   0.18175
 C 0.5505 0.1178 0.08353   0.090509
 C 0.4681 0.2095 0.11414   -0.110904
 C 0.5668 0.3155 0.13256   -0.140117
 C 0.4865 0.4151 0.1668   0.767746
 C 0.6284 0.9525 0.0339   0.243326
 C 0.5017 0.7378 0.73304   0.764036
 C 0.4399 0.8421 0.76958   -0.047501
 C 0.5604 0.9332 0.78848   -0.165234
 C 0.4948 0.0414 0.81588   0.137576
 C 0.3148 0.0606 0.82443   0.147552
 C 0.1958 0.9654 0.8072   -0.085079
 C 0.2581 0.8568 0.78016   -0.15992
 C 0.1313 0.7514 0.76512   0.745577
 C 0.4479 0.2286 0.85846   0.273205
 C 0.5296 0.7901 0.54461   0.478506
 C 0.4323 0.8951 0.57721   0.504487
 C 0.3493 0.5553 0.36095   0.775934
 C 0.2448 0.673 0.37909   -0.052061
 C 0.3255 0.7647 0.41042   -0.151602
 C 0.2249 0.8687 0.42973   0.18175
 C 0.0505 0.8822 0.41647   0.090509
 C 0.9681 0.7905 0.38586   -0.110904
 C 0.0668 0.6845 0.36744   -0.140117
 C 0.9865 0.5849 0.3332   0.767746
 C 0.1284 0.0475 0.4661   0.243326
 C 0.0017 0.2622 0.76696   0.764036
 C 0.9399 0.1579 0.73042   -0.047501
 C 0.0604 0.0668 0.71152   -0.165234
 C 0.9948 0.9586 0.68412   0.137576
 C 0.8148 0.9394 0.67557   0.147551
 C 0.6958 0.0346 0.6928   -0.085079
 C 0.7581 0.1432 0.71984   -0.15992
 C 0.6313 0.2486 0.73488   0.745577
 C 0.9479 0.7714 0.64154   0.273205
 N 0.2314 0.9731 0.96174   -0.462815
 N 0.5039 0.9989 0.93977   -0.274874
 N 0.7103 0.8201 0.14869   -0.442578
 N 0.4252 0.85 0.16144   -0.286383
 N 0.7314 0.0269 0.53826   -0.462815
 N 0.0039 0.0011 0.56023   -0.274874
 N 0.2103 0.1799 0.35131   -0.442578
 N 0.9252 0.15 0.33856   -0.286383
 N 0.7686 0.0269 0.03826   -0.462815
 N 0.4961 0.0011 0.06023   -0.274874
 N 0.2897 0.1799 0.85131   -0.442578
 N 0.5748 0.15 0.83856   -0.286383
 N 0.2686 0.9731 0.46174   -0.462815
 N 0.9961 0.9989 0.43977   -0.274874
 N 0.7897 0.8201 0.64869   -0.442578
 N 0.0748 0.85 0.66144   -0.286383
 O 0.1285 0.9903 0.06119   -0.537382
 O 0.9642 0.8031 0.00433   -0.517838
 O 0.0803 0.8778 0.11646   -0.537134
 O 0.9054 0.6996 0.06121   -0.503864
 O 0.1862 0.45508 0.87716   -0.579552
 O 0.0292 0.5656 0.83447   -0.775092
 O 0.4138 0.5087 0.80887   -0.755044
 O 0.6789 0.583 0.83023   -0.735632
 O 0.5393 0.2474 0.30509   -0.592903
 O 0.4101 0.35833 0.25723   -0.86822
 O 0.8146 0.36292 0.24952   -0.86689
 O 0.0313 0.22682 0.23093   -0.691121
 O 0.6285 0.0097 0.43881   -0.537382
 O 0.4642 0.1969 0.49567   -0.517838
 O 0.5803 0.1222 0.38354   -0.537134
 O 0.4054 0.3004 0.43879   -0.503864
 O 0.6862 0.54492 0.62284   -0.579552
 O 0.5292 0.4344 0.66553   -0.775092
 O 0.9138 0.4913 0.69113   -0.755044
 O 0.1789 0.417 0.66977   -0.735632
 O 0.0393 0.7526 0.19491   -0.592903
 O 0.9101 0.64167 0.24277   -0.86822
 O 0.3146 0.63708 0.25048   -0.86689
 O 0.5313 0.77318 0.26907   -0.691121
 O 0.8715 0.0097 0.93881   -0.537382
 O 0.0358 0.1969 0.99567   -0.517838
 O 0.9197 0.1222 0.88354   -0.537134
 O 0.0946 0.3004 0.93879   -0.503866
 O 0.8138 0.54492 0.12284   -0.579553
 O 0.9708 0.4344 0.16553   -0.775092
 O 0.5862 0.4913 0.19113   -0.755044
 O 0.3211 0.417 0.16977   -0.735632
 O 0.4607 0.7526 0.69491   -0.592903
 O 0.5899 0.64167 0.74277   -0.86822
 O 0.1854 0.63708 0.75048   -0.86689
 O 0.9687 0.77318 0.76907   -0.691121
 O 0.3715 0.9903 0.56119   -0.537382
 O 0.5358 0.8031 0.50433   -0.517838
 O 0.4197 0.8778 0.61646   -0.537134
 O 0.5946 0.6996 0.56121   -0.503866
 O 0.3138 0.45508 0.37716   -0.579553
 O 0.4708 0.5656 0.33447   -0.775092
 O 0.0862 0.5087 0.30887   -0.755044
 O 0.8211 0.583 0.33023   -0.735632
 O 0.9607 0.2474 0.80509   -0.592903
 O 0.0899 0.35833 0.75723   -0.86822
 O 0.6854 0.36292 0.74952   -0.86689
 O 0.4687 0.22682 0.73093   -0.691121
