{'_ref': 'TBD', '_srcid': 'CAKYAQ_clean', 'submitters': [{'name': 'Dalar Nazarian Jeff Camp and David Sholl', 'email': 'dalar@gatech.edu jcamp6@gatech.edu'}], '_method': 'VASP DFT with PBE;DDEC'}
data_Y2H27C39(NO5)3
_symmetry_space_group_name_H-M   'P 1'
_cell_length_a   12.72500016
_cell_length_b   13.56999975
_cell_length_c   14.12000000
_cell_angle_alpha   66.22400133
_cell_angle_beta   67.18199984
_cell_angle_gamma   77.11300113
_symmetry_Int_Tables_number   1
_chemical_formula_structural   Y2H27C39(NO5)3
_chemical_formula_sum   'Y4 H54 C78 N6 O30'
_cell_volume   2050.22877237
_cell_formula_units_Z   2
loop_
 _symmetry_equiv_pos_site_id
 _symmetry_equiv_pos_as_xyz
  1  'x, y, z'
loop_
 _atom_site_label
 _atom_site_fract_x
 _atom_site_fract_y
 _atom_site_fract_z
 _atom_site_charge
 Y 0.07138 0.61813 0.48868   1.928621
 Y 0.06814 0.67923 0.83485   1.880893
 Y 0.92862 0.38187 0.51132   1.92862
 Y 0.93186 0.32077 0.16515   1.880893
 H 0.0875 0.7538 0.3618   0.401122
 H 0.1472 0.8327 0.3875   0.463703
 H 0.0222 0.5121 0.7735   0.462152
 H 0.0425 0.5314 0.8642   0.311528
 H 0.0497 0.8103 0.9743   0.578373
 H 0.9779 0.7218 0.9714   0.441784
 H 0.4236 0.6277 0.4158   0.069885
 H 0.6951 0.6302 0.4753   0.052768
 H 0.3923 0.6315 0.7069   0.091551
 H 0.4749 0.7347 0.7381   0.091888
 H 0.5477 0.7638 0.8493   0.100324
 H 0.7249 0.6866 0.8582   0.102876
 H 0.8284 0.5794 0.7567   0.108504
 H 0.0833 0.1557 0.7741   0.073304
 H 0.294 0.1196 0.9245   0.068757
 H 0.2007 0.4174 0.7505   0.087959
 H 0.48 0.2383 0.8033   0.116332
 H 0.6068 0.3219 0.8218   0.105525
 H 0.5449 0.4555 0.894   0.099683
 H 0.3526 0.516 0.9421   0.108761
 H 0.3567 0.8775 0.8222   0.098733
 H 0.4843 0.0035 0.751   0.101551
 H 0.4927 0.1443 0.5843   0.084683
 H 0.3805 0.1469 0.4877   0.089821
 H 0.2767 0.8662 0.5269   0.060838
 H 0.0919 0.0278 0.3435   0.081112
 H 0.1752 0.1725 0.497   0.093812
 H 0.9125 0.2462 0.6382   0.401123
 H 0.8528 0.1673 0.6125   0.463704
 H 0.9778 0.4879 0.2265   0.462152
 H 0.9575 0.4686 0.1358   0.311528
 H 0.9503 0.1897 0.0257   0.578372
 H 0.0221 0.2782 0.0286   0.441784
 H 0.5764 0.3723 0.5842   0.069886
 H 0.3049 0.3698 0.5247   0.052768
 H 0.6077 0.3685 0.2931   0.091551
 H 0.5251 0.2653 0.2619   0.091888
 H 0.4523 0.2362 0.1507   0.100324
 H 0.2751 0.3134 0.1418   0.102876
 H 0.1716 0.4206 0.2433   0.108504
 H 0.9167 0.8443 0.2259   0.073305
 H 0.706 0.8804 0.0755   0.06876
 H 0.7993 0.5826 0.2495   0.087959
 H 0.52 0.7617 0.1967   0.116336
 H 0.3932 0.6781 0.1782   0.105525
 H 0.4551 0.5445 0.106   0.099683
 H 0.6474 0.484 0.0579   0.10876
 H 0.6433 0.1225 0.1778   0.098732
 H 0.5157 0.9965 0.249   0.101552
 H 0.5073 0.8557 0.4157   0.084682
 H 0.6195 0.8531 0.5123   0.089821
 H 0.7233 0.1338 0.4731   0.060838
 H 0.9081 0.9722 0.6565   0.081112
 H 0.8248 0.8275 0.503   0.093812
 C 0.2585 0.6378 0.5978   0.798143
 C 0.3866 0.6335 0.5647   -0.264891
 C 0.4569 0.6298 0.463   0.218732
 C 0.616 0.6302 0.499   0.171421
 C 0.5548 0.6313 0.6042   -0.067848
 C 0.4375 0.632 0.6368   0.031958
 C 0.6078 0.6419 0.6752   0.058255
 C 0.5473 0.7036 0.7401   -0.112983
 C 0.5904 0.7209 0.8077   -0.067501
 C 0.6952 0.6751 0.8132   -0.085925
 C 0.7572 0.6115 0.7518   -0.040158
 C 0.716 0.594 0.6829   -0.165707
 C 0.79 0.5231 0.6228   0.721302
 C 0.0644 0.3685 0.6754   0.772119
 C 0.1311 0.2968 0.7503   -0.277489
 C 0.1287 0.1856 0.792   0.221802
 C 0.2517 0.1652 0.8802   0.178393
 C 0.2605 0.2752 0.8446   -0.067005
 C 0.1979 0.3429 0.7771   0.033425
 C 0.3377 0.3232 0.8685   0.093182
 C 0.4534 0.2924 0.8335   -0.138853
 C 0.5292 0.3434 0.844   -0.037861
 C 0.4927 0.4237 0.8861   -0.102792
 C 0.3777 0.4581 0.9173   -0.027856
 C 0.2999 0.4051 0.911   -0.208229
 C 0.175 0.4359 0.9641   0.769142
 C 0.2159 0.8431 0.7499   0.656797
 C 0.2946 0.9306 0.6973   -0.150088
 C 0.3628 0.931 0.754   -0.026627
 C 0.4374 0.0067 0.7129   -0.100508
 C 0.4436 0.0902 0.6122   -0.046031
 C 0.3764 0.0918 0.5546   -0.137192
 C 0.3016 0.0102 0.5968   0.070764
 C 0.2366 0.0162 0.5254   -0.040935
 C 0.2372 0.9306 0.4971   0.174845
 C 0.1299 0.025 0.3892   0.192841
 C 0.1243 0.118 0.4095   -0.256156
 C 0.1782 0.1123 0.4801   0.019618
 C 0.0598 0.2179 0.3585   0.784644
 C 0.7415 0.3622 0.4022   0.798143
 C 0.6134 0.3665 0.4353   -0.264891
 C 0.5431 0.3702 0.537   0.218733
 C 0.384 0.3698 0.501   0.171422
 C 0.4452 0.3687 0.3958   -0.067848
 C 0.5625 0.368 0.3632   0.031958
 C 0.3922 0.3581 0.3248   0.058255
 C 0.4527 0.2964 0.2599   -0.112983
 C 0.4096 0.2791 0.1923   -0.067501
 C 0.3048 0.3249 0.1868   -0.085926
 C 0.2428 0.3885 0.2482   -0.040159
 C 0.284 0.406 0.3171   -0.165707
 C 0.21 0.4769 0.3772   0.721302
 C 0.9356 0.6315 0.3246   0.772119
 C 0.8689 0.7032 0.2497   -0.277488
 C 0.8713 0.8144 0.208   0.221802
 C 0.7483 0.8348 0.1198   0.178392
 C 0.7395 0.7248 0.1554   -0.067004
 C 0.8021 0.6571 0.2229   0.033425
 C 0.6623 0.6768 0.1315   0.093182
 C 0.5466 0.7076 0.1665   -0.138855
 C 0.4708 0.6566 0.156   -0.03786
 C 0.5073 0.5763 0.1139   -0.102791
 C 0.6223 0.5419 0.0827   -0.027856
 C 0.7001 0.5949 0.089   -0.208229
 C 0.825 0.5641 0.0359   0.769142
 C 0.7841 0.1569 0.2501   0.656797
 C 0.7054 0.0694 0.3027   -0.150088
 C 0.6372 0.069 0.246   -0.026627
 C 0.5626 0.9933 0.2871   -0.100508
 C 0.5564 0.9098 0.3878   -0.04603
 C 0.6236 0.9082 0.4454   -0.137191
 C 0.6984 0.9898 0.4032   0.070764
 C 0.7634 0.9838 0.4746   -0.040935
 C 0.7628 0.0694 0.5029   0.174845
 C 0.8701 0.975 0.6108   0.19284
 C 0.8757 0.882 0.5905   -0.256156
 C 0.8218 0.8877 0.5199   0.019618
 C 0.9402 0.7821 0.6415   0.784642
 N 0.5699 0.629 0.4296   -0.39111
 N 0.1877 0.1191 0.8563   -0.426489
 N 0.1857 0.9323 0.4305   -0.371366
 N 0.4301 0.371 0.5704   -0.39111
 N 0.8123 0.8809 0.1437   -0.426489
 N 0.8143 0.0677 0.5695   -0.371366
 O 0.2205 0.6409 0.528   -0.659129
 O 0.1995 0.641 0.6909   -0.710859
 O 0.8919 0.5461 0.5612   -0.765067
 O 0.7576 0.4366 0.6348   -0.607405
 O 0.0707 0.4687 0.6456   -0.665528
 O 0.0083 0.3234 0.6509   -0.658726
 O 0.1429 0.5326 0.9496   -0.654774
 O 0.1118 0.3603 0.0232   -0.663946
 O 0.121 0.8606 0.7352   -0.646979
 O 0.2409 0.7524 0.8128   -0.637181
 O 0.0255 0.2873 0.4036   -0.7183
 O 0.0466 0.2288 0.2705   -0.656509
 O 0.131 0.7888 0.3675   -0.886711
 O 0.0015 0.5307 0.8293   -0.796789
 O 0.0223 0.762 0.9686   -0.984727
 O 0.7795 0.3591 0.472   -0.659129
 O 0.8005 0.359 0.3091   -0.710859
 O 0.1081 0.4539 0.4388   -0.765067
 O 0.2424 0.5634 0.3652   -0.607405
 O 0.9293 0.5313 0.3544   -0.665528
 O 0.9917 0.6766 0.3491   -0.658726
 O 0.8571 0.4674 0.0504   -0.654773
 O 0.8882 0.6397 0.9768   -0.663946
 O 0.879 0.1394 0.2648   -0.64698
 O 0.7591 0.2476 0.1872   -0.637181
 O 0.9745 0.7127 0.5964   -0.7183
 O 0.9534 0.7712 0.7295   -0.656509
 O 0.869 0.2112 0.6325   -0.886712
 O 0.9985 0.4693 0.1707   -0.796788
 O 0.9777 0.238 0.0314   -0.984727
