{'_ref': 'TBD', '_srcid': 'CAKYAQ_clean', 'submitters': [{'name': 'Dalar Nazarian Jeff Camp and David Sholl', 'email': 'dalar@gatech.edu jcamp6@gatech.edu'}], '_method': 'VASP DFT with PBE;DDEC'}
data_Dy2H23C39N3O13
_symmetry_space_group_name_H-M   'P 1'
_cell_length_a   12.82500026
_cell_length_b   13.67199982
_cell_length_c   14.22700000
_cell_angle_alpha   66.18199939
_cell_angle_beta   66.80000044
_cell_angle_gamma   77.06399898
_symmetry_Int_Tables_number   1
_chemical_formula_structural   Dy2H23C39N3O13
_chemical_formula_sum   'Dy4 H46 C78 N6 O26'
_cell_volume   2091.37286718
_cell_formula_units_Z   2
loop_
 _symmetry_equiv_pos_site_id
 _symmetry_equiv_pos_as_xyz
  1  'x, y, z'
loop_
 _atom_site_label
 _atom_site_fract_x
 _atom_site_fract_y
 _atom_site_fract_z
 _atom_site_charge
 Dy 0.42861 0.38149 0.51149   2.359667
 Dy 0.4319 0.32041 0.16495   2.258412
 Dy 0.57139 0.61851 0.48851   2.359667
 Dy 0.5681 0.67959 0.83505   2.258412
 H 0.5201 0.2791 0.0268   0.414107
 H 0.4485 0.1916 0.0449   0.575896
 H 0.675 0.1735 0.4947   0.094061
 H 0.7794 0.8675 0.5262   0.059335
 H 0.595 0.0276 0.342   0.085226
 H 0.8821 0.1455 0.4874   0.087977
 H 0.9938 0.1424 0.5809   0.08185
 H 0.9822 0.009 0.7489   0.104749
 H 0.86 0.877 0.8189   0.099048
 H 0.9758 0.7365 0.7373   0.09529
 H 0.046 0.7634 0.8501   0.102959
 H 0.224 0.6873 0.8586   0.107558
 H 0.3277 0.5803 0.7559   0.109175
 H 0.8915 0.6285 0.7078   0.096294
 H 0.9257 0.6294 0.4148   0.073075
 H 0.1945 0.6343 0.4743   0.059164
 H 0.1463 0.4873 0.0569   0.110933
 H 0.9553 0.541 0.1111   0.09988
 H 0.8917 0.6805 0.1782   0.109285
 H 0.0196 0.7616 0.1956   0.113507
 H 0.2048 0.8799 0.0776   0.070588
 H 0.4175 0.8426 0.2268   0.078888
 H 0.2985 0.5843 0.2499   0.091943
 H 0.4799 0.7209 0.9732   0.414107
 H 0.5515 0.8084 0.9551   0.575896
 H 0.325 0.8265 0.5053   0.094062
 H 0.2206 0.1325 0.4738   0.059335
 H 0.405 0.9724 0.658   0.085226
 H 0.1179 0.8545 0.5126   0.087978
 H 0.0062 0.8576 0.4191   0.081851
 H 0.0178 0.991 0.2511   0.104753
 H 0.14 0.123 0.1811   0.099049
 H 0.0242 0.2635 0.2627   0.095291
 H 0.954 0.2366 0.1499   0.102959
 H 0.776 0.3127 0.1414   0.107558
 H 0.6723 0.4197 0.2441   0.109175
 H 0.1085 0.3715 0.2922   0.096294
 H 0.0743 0.3706 0.5852   0.073075
 H 0.8055 0.3657 0.5257   0.059164
 H 0.8537 0.5127 0.9431   0.110934
 H 0.0447 0.459 0.8889   0.099881
 H 0.1083 0.3195 0.8218   0.109286
 H 0.9804 0.2384 0.8044   0.113511
 H 0.7952 0.1201 0.9224   0.070595
 H 0.5825 0.1574 0.7732   0.078889
 H 0.7015 0.4157 0.7501   0.091943
 C 0.5611 0.2174 0.3573   0.854823
 C 0.6253 0.1171 0.409   -0.265174
 C 0.6784 0.1131 0.4787   0.015955
 C 0.7375 0.017 0.5251   -0.047749
 C 0.7389 0.9308 0.4977   0.196852
 C 0.6309 0.0249 0.3885   0.224131
 C 0.8021 0.0113 0.5951   0.073692
 C 0.8772 0.0907 0.554   -0.13215
 C 0.9439 0.0892 0.6104   -0.043749
 C 0.9376 0.0094 0.7106   -0.102637
 C 0.8644 0.9312 0.7519   -0.025524
 C 0.7959 0.9308 0.6959   -0.152864
 C 0.7146 0.8443 0.7505   0.660173
 C 0.2903 0.5224 0.6228   0.768572
 C 0.2155 0.596 0.682   -0.152326
 C 0.1071 0.6406 0.6767   0.058974
 C 0.047 0.7043 0.7405   -0.113037
 C 0.0891 0.7213 0.8083   -0.068784
 C 0.1948 0.6758 0.8139   -0.09476
 C 0.257 0.6125 0.7514   -0.042841
 C 0.0549 0.6312 0.6039   -0.075416
 C 0.9367 0.6302 0.6375   0.042101
 C 0.8865 0.632 0.5653   -0.27325
 C 0.9583 0.6302 0.4624   0.221396
 C 0.1161 0.632 0.4985   0.174392
 C 0.7603 0.638 0.5962   0.875666
 C 0.3246 0.5651 0.0371   0.81873
 C 0.2007 0.5943 0.0894   -0.205719
 C 0.1213 0.5435 0.0835   -0.027181
 C 0.0068 0.5752 0.1163   -0.109088
 C 0.9687 0.658 0.1571   -0.033739
 C 0.046 0.7073 0.1664   -0.143986
 C 0.1619 0.6773 0.133   0.096024
 C 0.2395 0.7249 0.1557   -0.066439
 C 0.2472 0.8343 0.1209   0.170756
 C 0.3723 0.8129 0.2093   0.229373
 C 0.3696 0.7024 0.2499   -0.256947
 C 0.3021 0.6582 0.2231   0.036429
 C 0.4365 0.6323 0.3212   0.822214
 C 0.4389 0.7826 0.6427   0.854822
 C 0.3747 0.8829 0.591   -0.265173
 C 0.3216 0.8869 0.5213   0.015955
 C 0.2625 0.983 0.4749   -0.047748
 C 0.2611 0.0692 0.5023   0.196852
 C 0.3691 0.9751 0.6115   0.224129
 C 0.1979 0.9887 0.4049   0.073693
 C 0.1228 0.9093 0.446   -0.132145
 C 0.0561 0.9108 0.3896   -0.043743
 C 0.0624 0.9906 0.2894   -0.102636
 C 0.1356 0.0688 0.2481   -0.025524
 C 0.2041 0.0692 0.3041   -0.152864
 C 0.2854 0.1557 0.2495   0.660173
 C 0.7097 0.4776 0.3772   0.768572
 C 0.7845 0.404 0.318   -0.152326
 C 0.8929 0.3594 0.3233   0.058974
 C 0.953 0.2957 0.2595   -0.113037
 C 0.9109 0.2787 0.1917   -0.068783
 C 0.8052 0.3242 0.1861   -0.094761
 C 0.743 0.3875 0.2486   -0.042842
 C 0.9451 0.3688 0.3961   -0.075415
 C 0.0633 0.3698 0.3625   0.042105
 C 0.1135 0.368 0.4347   -0.273251
 C 0.0417 0.3698 0.5376   0.221397
 C 0.8839 0.368 0.5015   0.174394
 C 0.2397 0.362 0.4038   0.875667
 C 0.6754 0.4349 0.9629   0.81873
 C 0.7993 0.4057 0.9106   -0.205718
 C 0.8787 0.4565 0.9165   -0.027181
 C 0.9932 0.4248 0.8837   -0.109088
 C 0.0313 0.342 0.8429   -0.033737
 C 0.954 0.2927 0.8336   -0.143987
 C 0.8381 0.3227 0.867   0.096025
 C 0.7605 0.2751 0.8443   -0.066438
 C 0.7528 0.1657 0.8791   0.170756
 C 0.6277 0.1871 0.7907   0.229376
 C 0.6304 0.2976 0.7501   -0.256947
 C 0.6979 0.3418 0.7769   0.036429
 C 0.5635 0.3677 0.6788   0.822214
 N 0.6854 0.9323 0.4322   -0.446506
 N 0.0711 0.6295 0.4286   -0.389993
 N 0.3122 0.879 0.1454   -0.434865
 N 0.3146 0.0677 0.5678   -0.446506
 N 0.9289 0.3705 0.5714   -0.389993
 N 0.6878 0.121 0.8546   -0.434865
 O 0.5256 0.2862 0.4035   -0.852553
 O 0.5483 0.2277 0.2707   -0.747293
 O 0.6211 0.8628 0.735   -0.687118
 O 0.7412 0.7533 0.8124   -0.674944
 O 0.2562 0.4383 0.635   -0.678501
 O 0.3913 0.5467 0.5611   -0.880356
 O 0.6996 0.6403 0.6906   -0.822114
 O 0.7216 0.6399 0.5275   -0.765284
 O 0.3562 0.4673 0.0505   -0.785504
 O 0.3882 0.6401 0.9774   -0.763774
 O 0.4311 0.5318 0.3527   -0.735246
 O 0.4924 0.6763 0.3482   -0.788261
 O 0.4758 0.2399 0.0289   -0.993477
 O 0.4744 0.7138 0.5965   -0.852552
 O 0.4517 0.7723 0.7293   -0.747293
 O 0.3789 0.1372 0.265   -0.687118
 O 0.2588 0.2467 0.1876   -0.674944
 O 0.7438 0.5617 0.365   -0.678501
 O 0.6087 0.4533 0.4389   -0.880356
 O 0.3004 0.3597 0.3094   -0.822114
 O 0.2784 0.3601 0.4725   -0.765283
 O 0.6438 0.5327 0.9495   -0.785504
 O 0.6118 0.3599 0.0226   -0.763774
 O 0.5689 0.4682 0.6473   -0.735246
 O 0.5076 0.3237 0.6518   -0.788261
 O 0.5242 0.7601 0.9711   -0.993476
