{'_ref': 'TBD', '_srcid': 'CAKYAQ_clean', 'submitters': [{'name': 'Dalar Nazarian Jeff Camp and David Sholl', 'email': 'dalar@gatech.edu jcamp6@gatech.edu'}], '_method': 'VASP DFT with PBE;DDEC'}
data_SrH18C24(N2O5)2
_symmetry_space_group_name_H-M   'P 1'
_cell_length_a   14.70335241
_cell_length_b   14.70340000
_cell_length_c   14.70340009
_cell_angle_alpha   107.69060158
_cell_angle_beta   110.36867104
_cell_angle_gamma   110.36886881
_symmetry_Int_Tables_number   1
_chemical_formula_structural   SrH18C24(N2O5)2
_chemical_formula_sum   'Sr4 H72 C96 N16 O40'
_cell_volume   2445.21389653
_cell_formula_units_Z   4
loop_
 _symmetry_equiv_pos_site_id
 _symmetry_equiv_pos_as_xyz
  1  'x, y, z'
loop_
 _atom_site_label
 _atom_site_fract_x
 _atom_site_fract_y
 _atom_site_fract_z
 _atom_site_charge
 Sr 0.75 0.27105 0.52105   1.517997
 Sr 0.25 0.52105 0.27105   1.518
 Sr 0.25 0.72895 0.47895   1.517997
 Sr 0.75 0.47895 0.72895   1.517999
 H 0.2823 0.3936 0.9271   0.140034
 H 0.9962 0.2417 0.6355   0.123846
 H 0.2538 0.5349 0.7319   0.100359
 H 0.9368 0.1305 0.7021   0.060535
 H 0.0097 0.0898 0.6651   0.064032
 H 0.9867 0.0692 0.7555   0.085615
 H 0.357 0.539 0.8942   0.088825
 H 0.1679 0.4666 0.5367   0.287818
 H 0.8331 0.3212 0.2295   0.36742
 H 0.2177 0.1448 0.1113   0.140019
 H 0.5038 0.1393 0.2455   0.123847
 H 0.2462 0.9781 0.2811   0.100357
 H 0.5632 0.2653 0.1937   0.060544
 H 0.4903 0.1554 0.0801   0.064042
 H 0.5133 0.2688 0.0825   0.085619
 H 0.143 0.0372 0.182   0.088814
 H 0.3321 0.8688 0.2987   0.287803
 H 0.6669 0.8964 0.4881   0.367417
 H 0.9665 0.1113 0.3936   0.14002
 H 0.1062 0.2455 0.2417   0.12386
 H 0.303 0.2811 0.5349   0.10034
 H 0.9284 0.1937 0.1305   0.060548
 H 0.9247 0.0801 0.0898   0.064041
 H 0.8137 0.0825 0.0692   0.085618
 H 0.1448 0.182 0.539   0.088808
 H 0.4299 0.2987 0.4666   0.287762
 H 0.5917 0.4881 0.3212   0.367457
 H 0.5335 0.9271 0.1448   0.14002
 H 0.3938 0.6355 0.1393   0.123859
 H 0.197 0.7319 0.9781   0.100342
 H 0.5716 0.7021 0.2653   0.060552
 H 0.5753 0.6651 0.1554   0.064056
 H 0.6863 0.7555 0.2688   0.085623
 H 0.3552 0.8942 0.0372   0.088814
 H 0.0701 0.5367 0.8688   0.28776
 H 0.9083 0.2295 0.8964   0.367431
 H 0.7177 0.6064 0.0729   0.140036
 H 0.0038 0.7583 0.3645   0.123846
 H 0.7462 0.4651 0.2681   0.100359
 H 0.0632 0.8695 0.2979   0.060535
 H 0.9903 0.9102 0.3349   0.064035
 H 0.0133 0.9308 0.2445   0.085617
 H 0.643 0.461 0.1058   0.088827
 H 0.8321 0.5334 0.4633   0.287818
 H 0.1669 0.6788 0.7705   0.36742
 H 0.7823 0.8552 0.8887   0.140021
 H 0.4962 0.8607 0.7545   0.123847
 H 0.7538 0.0219 0.7189   0.100357
 H 0.4368 0.7347 0.8063   0.060544
 H 0.5097 0.8446 0.9199   0.064044
 H 0.4867 0.7312 0.9175   0.085621
 H 0.857 0.9628 0.818   0.088816
 H 0.6679 0.1312 0.7013   0.287803
 H 0.3331 0.1036 0.5119   0.367416
 H 0.0335 0.8887 0.6064   0.140022
 H 0.8938 0.7545 0.7583   0.12386
 H 0.697 0.7189 0.4651   0.10034
 H 0.0716 0.8063 0.8695   0.060548
 H 0.0753 0.9199 0.9102   0.064044
 H 0.1863 0.9175 0.9308   0.085621
 H 0.8552 0.818 0.461   0.08881
 H 0.5701 0.7013 0.5334   0.287762
 H 0.4083 0.5119 0.6788   0.367456
 H 0.4665 0.0729 0.8552   0.140021
 H 0.6062 0.3645 0.8607   0.123859
 H 0.803 0.2681 0.0219   0.100342
 H 0.4284 0.2979 0.7347   0.060552
 H 0.4247 0.3349 0.8446   0.064058
 H 0.3137 0.2445 0.7312   0.085625
 H 0.6448 0.1058 0.9628   0.088815
 H 0.9299 0.4633 0.1312   0.28776
 H 0.0917 0.7705 0.1036   0.367431
 C 0.2403 0.3921 0.862   -0.219583
 C 0.1329 0.3033 0.784   0.276803
 C 0.069 0.3011 0.6869   -0.24551
 C 0.1147 0.3883 0.6674   -0.001603
 C 0.2228 0.4768 0.745   -0.137568
 C 0.0497 0.3824 0.5621   0.348495
 C 0.0129 0.3999 0.412   -0.04491
 C 0.0 0.1197 0.7265   0.005983
 C 0.9142 0.3387 0.4067   -0.031007
 C 0.0379 0.4367 0.3352   0.661485
 C 0.7955 0.2832 0.3185   0.643075
 C 0.2848 0.4788 0.842   -0.024356
 C 0.2597 0.1217 0.1518   -0.21956
 C 0.3671 0.1511 0.1704   0.276785
 C 0.431 0.1179 0.2321   -0.245524
 C 0.3853 0.0527 0.2736   -0.001608
 C 0.2772 0.0222 0.254   -0.137544
 C 0.4503 0.0124 0.3327   0.348501
 C 0.4871 0.8991 0.387   -0.04492
 C 0.5 0.2265 0.1197   0.005935
 C 0.5858 0.9925 0.4245   -0.030996
 C 0.4621 0.7973 0.3988   0.661485
 C 0.7045 0.023 0.4877   0.643075
 C 0.2152 0.0572 0.194   -0.024372
 C 0.0301 0.1518 0.3921   -0.219569
 C 0.0193 0.1704 0.3033   0.27679
 C 0.1142 0.2321 0.3011   -0.24554
 C 0.2209 0.2736 0.3883   -0.00159
 C 0.2318 0.254 0.4768   -0.137534
 C 0.3203 0.3327 0.3824   0.348472
 C 0.4879 0.387 0.3999   -0.044903
 C 0.8932 0.1197 0.1197   0.005923
 C 0.432 0.4245 0.3387   -0.031047
 C 0.6015 0.3988 0.4367   0.661459
 C 0.4647 0.4877 0.2832   0.64307
 C 0.1368 0.194 0.4788   -0.024346
 C 0.4699 0.862 0.1217   -0.219561
 C 0.4807 0.784 0.1511   0.276781
 C 0.3858 0.6869 0.1179   -0.245524
 C 0.2791 0.6674 0.0527   -0.001591
 C 0.2682 0.745 0.0222   -0.137562
 C 0.1797 0.5621 0.0124   0.348482
 C 0.0121 0.412 0.8991   -0.044922
 C 0.6068 0.7265 0.2265   0.005921
 C 0.068 0.4067 0.9925   -0.031017
 C 0.8985 0.3352 0.7973   0.66147
 C 0.0353 0.3185 0.023   0.643077
 C 0.3632 0.842 0.0572   -0.024344
 C 0.7597 0.6079 0.138   -0.219583
 C 0.8671 0.6967 0.216   0.276803
 C 0.931 0.6989 0.3131   -0.24551
 C 0.8853 0.6117 0.3326   -0.001602
 C 0.7772 0.5232 0.255   -0.137568
 C 0.9503 0.6176 0.4379   0.348494
 C 0.9871 0.6001 0.588   -0.044912
 C 0.0 0.8803 0.2735   0.005983
 C 0.0858 0.6613 0.5933   -0.031007
 C 0.9621 0.5633 0.6648   0.661485
 C 0.2045 0.7168 0.6815   0.643075
 C 0.7152 0.5212 0.158   -0.024356
 C 0.7403 0.8783 0.8482   -0.21956
 C 0.6329 0.8489 0.8296   0.276785
 C 0.569 0.8821 0.7679   -0.245524
 C 0.6147 0.9473 0.7264   -0.001608
 C 0.7228 0.9778 0.746   -0.137544
 C 0.5497 0.9876 0.6673   0.3485
 C 0.5129 0.1009 0.613   -0.044922
 C 0.5 0.7735 0.8803   0.005935
 C 0.4142 0.0075 0.5755   -0.030996
 C 0.5379 0.2027 0.6012   0.661485
 C 0.2955 0.977 0.5123   0.643075
 C 0.7848 0.9428 0.806   -0.024372
 C 0.9699 0.8482 0.6079   -0.219569
 C 0.9807 0.8296 0.6967   0.27679
 C 0.8858 0.7679 0.6989   -0.24554
 C 0.7791 0.7264 0.6117   -0.00159
 C 0.7682 0.746 0.5232   -0.137534
 C 0.6797 0.6673 0.6176   0.348471
 C 0.5121 0.613 0.6001   -0.044905
 C 0.1068 0.8803 0.8803   0.005922
 C 0.568 0.5755 0.6613   -0.031047
 C 0.3985 0.6012 0.5633   0.661459
 C 0.5353 0.5123 0.7168   0.64307
 C 0.8632 0.806 0.5212   -0.024347
 C 0.5301 0.138 0.8783   -0.219561
 C 0.5193 0.216 0.8489   0.276781
 C 0.6142 0.3131 0.8821   -0.245524
 C 0.7209 0.3326 0.9473   -0.001591
 C 0.7318 0.255 0.9778   -0.137562
 C 0.8203 0.4379 0.9876   0.348481
 C 0.9879 0.588 0.1009   -0.044923
 C 0.3932 0.2735 0.7735   0.005921
 C 0.932 0.5933 0.0075   -0.031017
 C 0.1015 0.6648 0.2027   0.66147
 C 0.9647 0.6815 0.977   0.643077
 C 0.6368 0.158 0.9428   -0.024345
 N 0.93809 0.32934 0.50211   -0.488279
 N 0.0968 0.42729 0.51095   -0.214844
 N 0.56191 0.06402 0.39125   -0.488278
 N 0.4032 0.91415 0.33049   -0.214832
 N 0.32723 0.39125 0.32934   -0.488238
 N 0.41634 0.33049 0.42729   -0.214778
 N 0.17277 0.50211 0.06402   -0.488275
 N 0.08366 0.51095 0.91415   -0.214781
 N 0.06191 0.67066 0.49789   -0.488279
 N 0.9032 0.57271 0.48905   -0.214844
 N 0.43809 0.93598 0.60875   -0.488278
 N 0.5968 0.08585 0.66951   -0.214832
 N 0.67277 0.60875 0.67066   -0.488238
 N 0.58366 0.66951 0.57271   -0.214777
 N 0.82723 0.49789 0.93598   -0.488275
 N 0.91634 0.48905 0.08585   -0.214781
 O 0.097 0.2211 0.8091   -0.276939
 O 0.13874 0.49924 0.37036   -0.702821
 O 0.95597 0.40185 0.242   -0.584922
 O 0.71906 0.23794 0.33368   -0.56904
 O 0.77396 0.28383 0.22533   -0.471926
 O 0.403 0.2121 0.1241   -0.276896
 O 0.36126 0.73162 0.3605   -0.702819
 O 0.54403 0.78603 0.44588   -0.584931
 O 0.78094 0.11462 0.51888   -0.56905
 O 0.72604 0.95137 0.50987   -0.471923
 O 0.912 0.1241 0.2211   -0.276904
 O 0.62888 0.3605 0.49924   -0.702817
 O 0.65985 0.44588 0.40185   -0.584924
 O 0.40426 0.51888 0.23794   -0.569031
 O 0.5585 0.50987 0.28383   -0.471955
 O 0.588 0.8091 0.2121   -0.276917
 O 0.87112 0.37036 0.73162   -0.702806
 O 0.84015 0.242 0.78603   -0.584923
 O 0.09574 0.33368 0.11462   -0.569028
 O 0.9415 0.22533 0.95137   -0.471944
 O 0.903 0.7789 0.1909   -0.276939
 O 0.86126 0.50076 0.62964   -0.702821
 O 0.04403 0.59815 0.758   -0.584922
 O 0.28094 0.76206 0.66632   -0.56904
 O 0.22604 0.71617 0.77467   -0.471926
 O 0.597 0.7879 0.8759   -0.276896
 O 0.63874 0.26838 0.6395   -0.702819
 O 0.45597 0.21397 0.55412   -0.584931
 O 0.21906 0.88538 0.48112   -0.56905
 O 0.27396 0.04863 0.49013   -0.471923
 O 0.088 0.8759 0.7789   -0.276904
 O 0.37112 0.6395 0.50076   -0.702817
 O 0.34015 0.55412 0.59815   -0.584924
 O 0.59574 0.48112 0.76206   -0.569031
 O 0.4415 0.49013 0.71617   -0.471955
 O 0.412 0.1909 0.7879   -0.276916
 O 0.12888 0.62964 0.26838   -0.702806
 O 0.15985 0.758 0.21397   -0.584922
 O 0.90426 0.66632 0.88538   -0.569028
 O 0.0585 0.77467 0.04863   -0.471944
