{'_ref': 'TBD', '_srcid': 'CAKYAQ_clean', 'submitters': [{'name': 'Dalar Nazarian Jeff Camp and David Sholl', 'email': 'dalar@gatech.edu jcamp6@gatech.edu'}], '_method': 'VASP DFT with PBE;DDEC'}
data_Mn3H44C64S2(N5O8)2
_symmetry_space_group_name_H-M   'P 1'
_cell_length_a   12.78100000
_cell_length_b   14.16900058
_cell_length_c   21.58600000
_cell_angle_alpha   90.00000000
_cell_angle_beta   90.00000000
_cell_angle_gamma   114.17300068
_symmetry_Int_Tables_number   1
_chemical_formula_structural   Mn3H44C64S2(N5O8)2
_chemical_formula_sum   'Mn6 H88 C128 S4 N20 O32'
_cell_volume   3566.31890283
_cell_formula_units_Z   2
loop_
 _symmetry_equiv_pos_site_id
 _symmetry_equiv_pos_as_xyz
  1  'x, y, z'
loop_
 _atom_site_label
 _atom_site_fract_x
 _atom_site_fract_y
 _atom_site_fract_z
 _atom_site_charge
 Mn 0.69482 0.79978 0.51313   0.989236
 Mn 0.80518 0.20022 0.01313   0.989236
 Mn 0.30518 0.20022 0.48687   0.989234
 Mn 0.19482 0.79978 0.98687   0.989234
 Mn 0.0 0.0 0.5   1.160626
 Mn 0.5 0.0 0.0   1.160626
 H 0.518 0.8859 0.4373   0.075823
 H 0.434 0.6579 0.3162   0.126153
 H 0.5665 0.6404 0.3922   0.107448
 H 0.3544 0.9033 0.4084   0.105963
 H 0.2612 0.9888 0.3571   0.108053
 H 0.2824 0.8504 0.1988   0.107553
 H 0.3867 0.7732 0.2486   0.110488
 H 0.1172 0.0046 0.3164   0.115717
 H 0.0263 0.0963 0.27   0.115379
 H 0.1691 0.079 0.1072   0.111487
 H 0.2583 0.9853 0.154   0.113086
 H 0.0197 0.2504 0.2238   0.115798
 H 0.9025 0.2954 0.1503   0.100362
 H 0.9944 0.0956 0.0684   0.085312
 H 0.7552 0.607 0.3784   0.106124
 H 0.7946 0.4954 0.3132   0.10351
 H 0.1283 0.6877 0.3154   0.087031
 H 0.0868 0.7997 0.3796   0.087476
 H 0.8553 0.311 0.3157   0.103663
 H 0.8936 0.1905 0.3736   0.090379
 H 0.2306 0.3605 0.3559   0.106626
 H 0.1933 0.4836 0.3002   0.100972
 H 0.982 0.1141 0.9373   0.075823
 H 0.066 0.3421 0.8162   0.126153
 H 0.9335 0.3596 0.8922   0.107448
 H 0.1456 0.0967 0.9084   0.105963
 H 0.2388 0.0112 0.8571   0.108053
 H 0.2176 0.1496 0.6988   0.107553
 H 0.1133 0.2268 0.7486   0.110488
 H 0.3828 0.9954 0.8164   0.115717
 H 0.4737 0.9037 0.77   0.115379
 H 0.3309 0.921 0.6072   0.111487
 H 0.2417 0.0147 0.654   0.113086
 H 0.4803 0.7496 0.7238   0.115798
 H 0.5975 0.7046 0.6503   0.100362
 H 0.5056 0.9044 0.5684   0.085313
 H 0.7448 0.393 0.8784   0.106124
 H 0.7054 0.5046 0.8132   0.10351
 H 0.3717 0.3123 0.8154   0.087031
 H 0.4132 0.2003 0.8796   0.087476
 H 0.6447 0.689 0.8157   0.103663
 H 0.6064 0.8095 0.8736   0.090379
 H 0.2694 0.6395 0.8559   0.106626
 H 0.3067 0.5164 0.8002   0.100972
 H 0.482 0.1141 0.5627   0.075823
 H 0.566 0.3421 0.6838   0.126153
 H 0.4335 0.3596 0.6078   0.107448
 H 0.6456 0.0967 0.5916   0.105963
 H 0.7388 0.0112 0.6429   0.108053
 H 0.7176 0.1496 0.8012   0.107553
 H 0.6133 0.2268 0.7514   0.110488
 H 0.8828 0.9954 0.6836   0.115717
 H 0.9737 0.9037 0.73   0.11538
 H 0.8309 0.921 0.8928   0.111487
 H 0.7417 0.0147 0.846   0.113087
 H 0.9803 0.7496 0.7762   0.115798
 H 0.0975 0.7046 0.8497   0.100363
 H 0.0056 0.9044 0.9316   0.085312
 H 0.2448 0.393 0.6216   0.106125
 H 0.2054 0.5046 0.6868   0.103511
 H 0.8717 0.3123 0.6846   0.087031
 H 0.9132 0.2003 0.6204   0.087476
 H 0.1447 0.689 0.6843   0.103663
 H 0.1064 0.8095 0.6264   0.09038
 H 0.7694 0.6395 0.6441   0.106627
 H 0.8067 0.5164 0.6998   0.100973
 H 0.018 0.8859 0.0627   0.075824
 H 0.934 0.6579 0.1838   0.126153
 H 0.0665 0.6404 0.1078   0.107448
 H 0.8544 0.9033 0.0916   0.105962
 H 0.7612 0.9888 0.1429   0.108053
 H 0.7824 0.8504 0.3012   0.107553
 H 0.8867 0.7732 0.2514   0.110488
 H 0.6172 0.0046 0.1836   0.115717
 H 0.5263 0.0963 0.23   0.11538
 H 0.6691 0.079 0.3928   0.111487
 H 0.7583 0.9853 0.346   0.113087
 H 0.5197 0.2504 0.2762   0.115798
 H 0.4025 0.2954 0.3497   0.100363
 H 0.4944 0.0956 0.4316   0.085313
 H 0.2552 0.607 0.1216   0.106125
 H 0.2946 0.4954 0.1868   0.103511
 H 0.6283 0.6877 0.1846   0.087031
 H 0.5868 0.7997 0.1204   0.087476
 H 0.3553 0.311 0.1843   0.103663
 H 0.3936 0.1905 0.1264   0.09038
 H 0.7306 0.3605 0.1441   0.106627
 H 0.6933 0.4836 0.1998   0.100973
 C 0.514 0.8268 0.4168   0.172116
 C 0.4667 0.7017 0.34955   -0.137433
 C 0.5399 0.6924 0.39183   0.045192
 C 0.3836 0.8328 0.33315   0.112791
 C 0.3429 0.8951 0.36581   -0.155245
 C 0.2851 0.9448 0.3351   -0.074715
 C 0.2619 0.9306 0.27196   0.011786
 C 0.2993 0.8634 0.24063   -0.071992
 C 0.3609 0.816 0.27048   -0.142997
 C 0.1999 0.9862 0.24074   0.010974
 C 0.1284 0.0198 0.27432   -0.075008
 C 0.074 0.0749 0.24676   -0.145887
 C 0.0906 0.0985 0.18393   0.106391
 C 0.159 0.0644 0.14937   -0.15305
 C 0.2127 0.0085 0.17765   -0.082813
 C 0.000599999999999 0.2246 0.18377   -0.139802
 C 0.9361 0.2493 0.14292   0.052414
 C 0.9859 0.14 0.09782   0.170725
 C 0.8918 0.7878 0.42731   0.70619
 C 0.9177 0.71487 0.38528   -0.114139
 C 0.8301 0.6235 0.36549   -0.036505
 C 0.8534 0.5564 0.32666   -0.039685
 C 0.9651 0.5817 0.30839   -0.221627
 C 0.0533 0.6718 0.32782   -0.03539
 C 0.028 0.7384 0.36644   -0.034336
 C 0.0214 0.4088 0.30315   -0.208622
 C 0.9306 0.3213 0.32427   -0.044904
 C 0.9539 0.249 0.35851   -0.039622
 C 0.0657 0.2631 0.37036   -0.121213
 C 0.1552 0.3507 0.34826   -0.037132
 C 0.1331 0.4244 0.31471   -0.039973
 C 0.0913 0.1836 0.40664   0.699568
 C 0.986 0.1732 0.9168   0.172112
 C 0.0333 0.2983 0.84955   -0.137434
 C 0.9601 0.3076 0.89183   0.045192
 C 0.1164 0.1672 0.83315   0.112791
 C 0.1571 0.1049 0.86581   -0.155245
 C 0.2149 0.0552 0.8351   -0.074715
 C 0.2381 0.0694 0.77196   0.011786
 C 0.2007 0.1366 0.74063   -0.071992
 C 0.1391 0.184 0.77048   -0.142997
 C 0.3001 0.0138 0.74074   0.010974
 C 0.3716 0.9802 0.77432   -0.075008
 C 0.426 0.9251 0.74676   -0.145887
 C 0.4094 0.9015 0.68393   0.106391
 C 0.341 0.9356 0.64937   -0.15305
 C 0.2873 0.9915 0.67765   -0.082813
 C 0.4994 0.7754 0.68377   -0.139802
 C 0.5639 0.7507 0.64292   0.052414
 C 0.5141 0.86 0.59782   0.17072
 C 0.6082 0.2122 0.92731   0.70619
 C 0.5823 0.28513 0.88528   -0.114139
 C 0.6699 0.3765 0.86549   -0.036505
 C 0.6466 0.4436 0.82666   -0.039685
 C 0.5349 0.4183 0.80839   -0.221627
 C 0.4467 0.3282 0.82782   -0.03539
 C 0.472 0.2616 0.86644   -0.034336
 C 0.4786 0.5912 0.80315   -0.208622
 C 0.5694 0.6787 0.82427   -0.044904
 C 0.5461 0.751 0.85851   -0.039622
 C 0.4343 0.7369 0.87036   -0.121213
 C 0.3448 0.6493 0.84826   -0.037132
 C 0.3669 0.5756 0.81471   -0.039973
 C 0.4087 0.8164 0.90664   0.699568
 C 0.486 0.1732 0.5832   0.172113
 C 0.5333 0.2983 0.65045   -0.137433
 C 0.4601 0.3076 0.60817   0.045191
 C 0.6164 0.1672 0.66685   0.11279
 C 0.6571 0.1049 0.63419   -0.155246
 C 0.7149 0.0552 0.6649   -0.074716
 C 0.7381 0.0694 0.72804   0.011786
 C 0.7007 0.1366 0.75937   -0.071991
 C 0.6391 0.184 0.72952   -0.142997
 C 0.8001 0.0138 0.75926   0.010974
 C 0.8716 0.9802 0.72568   -0.075007
 C 0.926 0.9251 0.75324   -0.145889
 C 0.9094 0.9015 0.81607   0.10639
 C 0.841 0.9356 0.85063   -0.153051
 C 0.7873 0.9915 0.82235   -0.082814
 C 0.9994 0.7754 0.81623   -0.139803
 C 0.0639 0.7507 0.85708   0.052414
 C 0.0141 0.86 0.90218   0.170721
 C 0.1082 0.2122 0.57269   0.706192
 C 0.0823 0.28513 0.61472   -0.11414
 C 0.1699 0.3765 0.63451   -0.036514
 C 0.1466 0.4436 0.67334   -0.039685
 C 0.0349 0.4183 0.69161   -0.221627
 C 0.9467 0.3282 0.67218   -0.035391
 C 0.972 0.2616 0.63356   -0.034341
 C 0.9786 0.5912 0.69685   -0.208622
 C 0.0694 0.6787 0.67573   -0.044907
 C 0.0461 0.751 0.64149   -0.039628
 C 0.9343 0.7369 0.62964   -0.121213
 C 0.8448 0.6493 0.65174   -0.037137
 C 0.8669 0.5756 0.68529   -0.039973
 C 0.9087 0.8164 0.59336   0.69957
 C 0.014 0.8268 0.0832   0.172109
 C 0.9667 0.7017 0.15045   -0.137433
 C 0.0399 0.6924 0.10817   0.045191
 C 0.8836 0.8328 0.16685   0.11279
 C 0.8429 0.8951 0.13419   -0.155246
 C 0.7851 0.9448 0.1649   -0.074716
 C 0.7619 0.9306 0.22804   0.011786
 C 0.7993 0.8634 0.25937   -0.071991
 C 0.8609 0.816 0.22952   -0.142997
 C 0.6999 0.9862 0.25926   0.010974
 C 0.6284 0.0198 0.22568   -0.075007
 C 0.574 0.0749 0.25324   -0.145889
 C 0.5906 0.0985 0.31607   0.10639
 C 0.659 0.0644 0.35063   -0.153051
 C 0.7127 0.0085 0.32235   -0.082814
 C 0.5006 0.2246 0.31623   -0.139803
 C 0.4361 0.2493 0.35708   0.052414
 C 0.4859 0.14 0.40218   0.170716
 C 0.3918 0.7878 0.07269   0.706192
 C 0.4177 0.71487 0.11472   -0.11414
 C 0.3301 0.6235 0.13451   -0.036514
 C 0.3534 0.5564 0.17334   -0.039685
 C 0.4651 0.5817 0.19161   -0.221627
 C 0.5533 0.6718 0.17218   -0.035391
 C 0.528 0.7384 0.13356   -0.034341
 C 0.5214 0.4088 0.19685   -0.208622
 C 0.4306 0.3213 0.17573   -0.044907
 C 0.4539 0.249 0.14149   -0.039628
 C 0.5657 0.2631 0.12964   -0.121213
 C 0.6552 0.3507 0.15174   -0.037137
 C 0.6331 0.4244 0.18529   -0.039973
 C 0.5913 0.1836 0.09336   0.69957
 S 0.99511 0.4994 0.25616   1.113768
 S 0.50489 0.5006 0.75616   1.113768
 S 0.00489 0.5006 0.74384   1.113767
 S 0.49511 0.4994 0.24384   1.113767
 N 0.5691 0.7717 0.43422   -0.424294
 N 0.4501 0.78809 0.36531   0.040806
 N 0.0328 0.1543 0.15512   0.036333
 N 0.9274 0.19561 0.08853   -0.427923
 N 0.7734 0.0338 0.49904   0.162209
 N 0.9309 0.2283 0.93422   -0.424294
 N 0.0499 0.21191 0.86531   0.040807
 N 0.4672 0.8457 0.65512   0.036334
 N 0.5726 0.80439 0.58853   -0.427923
 N 0.7266 0.9662 0.99904   0.162209
 N 0.4309 0.2283 0.56578   -0.424294
 N 0.5499 0.21191 0.63469   0.040807
 N 0.9672 0.8457 0.84488   0.036334
 N 0.0726 0.80439 0.91147   -0.427922
 N 0.2266 0.9662 0.50096   0.162209
 N 0.0691 0.7717 0.06578   -0.424293
 N 0.9501 0.78809 0.13469   0.040807
 N 0.5328 0.1543 0.34488   0.036334
 N 0.4274 0.19561 0.41147   -0.427922
 N 0.2734 0.0338 0.000959999999999   0.162209
 O 0.79471 0.75449 0.45012   -0.614088
 O 0.9711 0.87538 0.43553   -0.622173
 O 0.8922 0.44417 0.22183   -0.553341
 O 0.0995 0.55977 0.22429   -0.556223
 O 0.00838 0.10681 0.42603   -0.608609
 O 0.19419 0.20125 0.41231   -0.620621
 O 0.80955 0.96377 0.5023   -0.391053
 O 0.67265 0.02205 0.49745   -0.324779
 O 0.70529 0.24551 0.95012   -0.614088
 O 0.5289 0.12462 0.93553   -0.622173
 O 0.6078 0.55583 0.72183   -0.553341
 O 0.4005 0.44023 0.72429   -0.556223
 O 0.49162 0.89319 0.92603   -0.608609
 O 0.30581 0.79875 0.91231   -0.620621
 O 0.69045 0.03623 0.0023   -0.391053
 O 0.82735 0.97795 0.99745   -0.324779
 O 0.20529 0.24551 0.54988   -0.614088
 O 0.0289 0.12462 0.56447   -0.622173
 O 0.1078 0.55583 0.77817   -0.553341
 O 0.9005 0.44023 0.77571   -0.556223
 O 0.99162 0.89319 0.57397   -0.608609
 O 0.80581 0.79875 0.58769   -0.620621
 O 0.19045 0.03623 0.4977   -0.391053
 O 0.32735 0.97795 0.50255   -0.324779
 O 0.29471 0.75449 0.04988   -0.614088
 O 0.4711 0.87538 0.06447   -0.622173
 O 0.3922 0.44417 0.27817   -0.553341
 O 0.5995 0.55977 0.27571   -0.556223
 O 0.50838 0.10681 0.07397   -0.608609
 O 0.69419 0.20125 0.08769   -0.620621
 O 0.30955 0.96377 0.9977   -0.391053
 O 0.17265 0.02205 0.00255   -0.324779
