{'_ref': 'TBD', '_srcid': 'CAKYAQ_clean', 'submitters': [{'name': 'Dalar Nazarian Jeff Camp and David Sholl', 'email': 'dalar@gatech.edu jcamp6@gatech.edu'}], '_method': 'VASP DFT with PBE;DDEC'}
data_Zn3In2H36(C3N2)12
_symmetry_space_group_name_H-M   'P 1'
_cell_length_a   19.01956332
_cell_length_b   19.01956332
_cell_length_c   19.01956332
_cell_angle_alpha   109.47122063
_cell_angle_beta   109.47122063
_cell_angle_gamma   109.47122063
_symmetry_Int_Tables_number   1
_chemical_formula_structural   Zn3In2H36(C3N2)12
_chemical_formula_sum   'Zn12 In8 H144 C144 N96'
_cell_volume   5296.38727548
_cell_formula_units_Z   4
loop_
 _symmetry_equiv_pos_site_id
 _symmetry_equiv_pos_as_xyz
  1  'x, y, z'
loop_
 _atom_site_label
 _atom_site_fract_x
 _atom_site_fract_y
 _atom_site_fract_z
 _atom_site_charge
 Zn 0.125 0.25 0.875   0.734327
 Zn 0.875 0.75 0.125   0.734327
 Zn 0.375 0.75 0.625   0.734327
 Zn 0.625 0.25 0.375   0.734327
 Zn 0.25 0.125 0.375   0.734327
 Zn 0.75 0.875 0.625   0.734327
 Zn 0.75 0.375 0.125   0.734327
 Zn 0.25 0.625 0.875   0.734327
 Zn 0.875 0.625 0.75   0.734327
 Zn 0.125 0.375 0.25   0.734327
 Zn 0.625 0.875 0.25   0.734327
 Zn 0.375 0.125 0.75   0.734327
 In 0.0 0.0 0.0   1.267082
 In 0.5 0.0 0.5   1.267081
 In 0.5 0.5 0.0   1.267082
 In 0.0 0.5 0.5   1.267082
 In 0.0 0.5 0.0   1.267081
 In 0.5 0.0 0.0   1.267082
 In 0.5 0.5 0.5   1.267082
 In 0.0 0.0 0.5   1.267082
 H 0.0556 0.1669 0.9677   0.04799
 H 0.9444 0.8331 0.0323   0.04799
 H 0.4444 0.9121 0.6113   0.047994
 H 0.5556 0.0879 0.3887   0.047994
 H 0.3008 0.3331 0.8887   0.04799
 H 0.6992 0.6669 0.1113   0.04799
 H 0.1992 0.5879 0.5323   0.047989
 H 0.8008 0.4121 0.4677   0.047989
 H 0.0879 0.0323 0.1992   0.047989
 H 0.9121 0.9677 0.8008   0.047989
 H 0.8331 0.3887 0.3008   0.04799
 H 0.1669 0.6113 0.6992   0.04799
 H 0.4121 0.1113 0.4444   0.047994
 H 0.5879 0.8887 0.5556   0.047994
 H 0.6669 0.4677 0.0556   0.04799
 H 0.3331 0.5323 0.9444   0.04799
 H 0.8887 0.8008 0.8331   0.04799
 H 0.1113 0.1992 0.1669   0.04799
 H 0.5323 0.6992 0.0879   0.047989
 H 0.4677 0.3008 0.9121   0.047989
 H 0.9677 0.5556 0.6669   0.04799
 H 0.0323 0.4444 0.3331   0.04799
 H 0.6113 0.9444 0.4121   0.047994
 H 0.3887 0.0556 0.5879   0.047994
 H 0.0556 0.3887 0.0879   0.047994
 H 0.9444 0.6113 0.9121   0.047994
 H 0.4444 0.0323 0.8331   0.04799
 H 0.5556 0.9677 0.1669   0.04799
 H 0.3008 0.4677 0.4121   0.047989
 H 0.6992 0.5323 0.5879   0.047989
 H 0.1992 0.1113 0.6669   0.04799
 H 0.8008 0.8887 0.3331   0.04799
 H 0.0879 0.5556 0.8887   0.047994
 H 0.9121 0.4444 0.1113   0.047994
 H 0.8331 0.9444 0.5323   0.04799
 H 0.1669 0.0556 0.4677   0.04799
 H 0.4121 0.8008 0.9677   0.047989
 H 0.5879 0.1992 0.0323   0.047989
 H 0.6669 0.6992 0.6113   0.04799
 H 0.3331 0.3008 0.3887   0.04799
 H 0.8887 0.5879 0.0556   0.047994
 H 0.1113 0.4121 0.9444   0.047994
 H 0.5323 0.3331 0.4444   0.04799
 H 0.4677 0.6669 0.5556   0.04799
 H 0.9677 0.9121 0.3008   0.047989
 H 0.0323 0.0879 0.6992   0.047989
 H 0.6113 0.1669 0.1992   0.04799
 H 0.3887 0.8331 0.8008   0.04799
 H 0.1044 0.9842 0.8886   0.095765
 H 0.8956 0.0158 0.1114   0.095765
 H 0.3956 0.7842 0.3798   0.095762
 H 0.6044 0.2158 0.6202   0.095762
 H 0.4044 0.5158 0.1202   0.095764
 H 0.5956 0.4842 0.8798   0.095764
 H 0.0956 0.7158 0.6114   0.095768
 H 0.9044 0.2842 0.3886   0.095768
 H 0.2158 0.1114 0.0956   0.095769
 H 0.7842 0.8886 0.9044   0.095769
 H 0.0158 0.6202 0.4044   0.095764
 H 0.9842 0.3798 0.5956   0.095764
 H 0.2842 0.8798 0.3956   0.095762
 H 0.7158 0.1202 0.6044   0.095762
 H 0.4842 0.3886 0.1044   0.095765
 H 0.5158 0.6114 0.8956   0.095765
 H 0.1202 0.9044 0.0158   0.095764
 H 0.8798 0.0956 0.9842   0.095764
 H 0.6114 0.5956 0.2158   0.095769
 H 0.3886 0.4044 0.7842   0.095769
 H 0.8886 0.6044 0.4842   0.095765
 H 0.1114 0.3956 0.5158   0.095765
 H 0.3798 0.8956 0.2842   0.095762
 H 0.6202 0.1044 0.7158   0.095762
 H 0.1044 0.6202 0.2158   0.095761
 H 0.8956 0.3798 0.7842   0.095761
 H 0.3956 0.1114 0.0158   0.095764
 H 0.6044 0.8886 0.9842   0.095764
 H 0.4044 0.3886 0.2842   0.095767
 H 0.5956 0.6114 0.7158   0.095767
 H 0.0956 0.8798 0.4842   0.095763
 H 0.9044 0.1202 0.5158   0.095763
 H 0.2158 0.6044 0.1202   0.095761
 H 0.7842 0.3956 0.8798   0.095761
 H 0.0158 0.8956 0.6114   0.095764
 H 0.9842 0.1044 0.3886   0.095764
 H 0.2842 0.9044 0.8886   0.095767
 H 0.7158 0.0956 0.1114   0.095767
 H 0.4842 0.5956 0.3798   0.095763
 H 0.5158 0.4044 0.6202   0.095763
 H 0.1202 0.7158 0.1044   0.095761
 H 0.8798 0.2842 0.8956   0.095761
 H 0.6114 0.5158 0.3956   0.095764
 H 0.3886 0.4842 0.6044   0.095764
 H 0.8886 0.7842 0.4044   0.095767
 H 0.1114 0.2158 0.5956   0.095767
 H 0.3798 0.9842 0.0956   0.095763
 H 0.6202 0.0158 0.9044   0.095763
 H 0.1496 0.0837 0.8305   0.093073
 H 0.8504 0.9163 0.1695   0.093073
 H 0.3504 0.6809 0.4341   0.093075
 H 0.6496 0.3191 0.5659   0.093075
 H 0.2468 0.4163 0.0659   0.093077
 H 0.7532 0.5837 0.9341   0.093077
 H 0.2532 0.8191 0.6695   0.093076
 H 0.7468 0.1809 0.3305   0.093076
 H 0.3191 0.1695 0.2532   0.093076
 H 0.6809 0.8305 0.7468   0.093076
 H 0.9163 0.5659 0.2468   0.093077
 H 0.0837 0.4341 0.7532   0.093077
 H 0.1809 0.9341 0.3504   0.093075
 H 0.8191 0.0659 0.6496   0.093075
 H 0.5837 0.3305 0.1496   0.093073
 H 0.4163 0.6695 0.8504   0.093073
 H 0.0659 0.7468 0.9163   0.093077
 H 0.9341 0.2532 0.0837   0.093077
 H 0.6695 0.7532 0.3191   0.093076
 H 0.3305 0.2468 0.6809   0.093076
 H 0.8305 0.6496 0.5837   0.093073
 H 0.1695 0.3504 0.4163   0.093073
 H 0.4341 0.8504 0.1809   0.093075
 H 0.5659 0.1496 0.8191   0.093075
 H 0.1496 0.5659 0.3191   0.093076
 H 0.8504 0.4341 0.6809   0.093076
 H 0.3504 0.1695 0.9163   0.093073
 H 0.6496 0.8305 0.0837   0.093073
 H 0.2468 0.3305 0.1809   0.093077
 H 0.7532 0.6695 0.8191   0.093077
 H 0.2532 0.9341 0.5837   0.093078
 H 0.7468 0.0659 0.4163   0.093078
 H 0.3191 0.6496 0.0659   0.093076
 H 0.6809 0.3504 0.9341   0.093076
 H 0.9163 0.8504 0.6695   0.093073
 H 0.0837 0.1496 0.3305   0.093073
 H 0.1809 0.7468 0.8305   0.093077
 H 0.8191 0.2532 0.1695   0.093077
 H 0.5837 0.7532 0.4341   0.093078
 H 0.4163 0.2468 0.5659   0.093078
 H 0.0659 0.8191 0.1496   0.093076
 H 0.9341 0.1809 0.8504   0.093076
 H 0.6695 0.4163 0.3504   0.093073
 H 0.3305 0.5837 0.6496   0.093073
 H 0.8305 0.6809 0.2468   0.093077
 H 0.1695 0.3191 0.7532   0.093077
 H 0.4341 0.0837 0.2532   0.093078
 H 0.5659 0.9163 0.7468   0.093078
 C 0.07281 0.13255 0.94084   0.237447
 C 0.92719 0.86745 0.05916   0.237447
 C 0.42719 0.86803 0.55974   0.237448
 C 0.57281 0.13197 0.44026   0.237448
 C 0.30829 0.36745 0.94026   0.237446
 C 0.69171 0.63255 0.05974   0.237446
 C 0.19171 0.63197 0.55916   0.237445
 C 0.80829 0.36803 0.44084   0.237445
 C 0.13197 0.05916 0.19171   0.237445
 C 0.86803 0.94084 0.80829   0.237445
 C 0.86745 0.44026 0.30829   0.237446
 C 0.13255 0.55974 0.69171   0.237446
 C 0.36803 0.05974 0.42719   0.237448
 C 0.63197 0.94026 0.57281   0.237448
 C 0.63255 0.44084 0.07281   0.237447
 C 0.36745 0.55916 0.92719   0.237447
 C 0.94026 0.80829 0.86745   0.237446
 C 0.05974 0.19171 0.13255   0.237446
 C 0.55916 0.69171 0.13197   0.237445
 C 0.44084 0.30829 0.86803   0.237445
 C 0.94084 0.57281 0.63255   0.237447
 C 0.05916 0.42719 0.36745   0.237447
 C 0.55974 0.92719 0.36803   0.237448
 C 0.44026 0.07281 0.63197   0.237448
 C 0.07281 0.44026 0.13197   0.237448
 C 0.92719 0.55974 0.86803   0.237448
 C 0.42719 0.05916 0.86745   0.237447
 C 0.57281 0.94084 0.13255   0.237447
 C 0.30829 0.44084 0.36803   0.237445
 C 0.69171 0.55916 0.63197   0.237445
 C 0.19171 0.05974 0.63255   0.237446
 C 0.80829 0.94026 0.36745   0.237446
 C 0.13197 0.57281 0.94026   0.237448
 C 0.86803 0.42719 0.05974   0.237448
 C 0.86745 0.92719 0.55916   0.237447
 C 0.13255 0.07281 0.44084   0.237447
 C 0.36803 0.80829 0.94084   0.237445
 C 0.63197 0.19171 0.05916   0.237445
 C 0.63255 0.69171 0.55974   0.237446
 C 0.36745 0.30829 0.44026   0.237446
 C 0.94026 0.63197 0.07281   0.237448
 C 0.05974 0.36803 0.92719   0.237448
 C 0.55916 0.36745 0.42719   0.237447
 C 0.44084 0.63255 0.57281   0.237447
 C 0.94084 0.86803 0.30829   0.237444
 C 0.05916 0.13197 0.69171   0.237444
 C 0.55974 0.13255 0.19171   0.237446
 C 0.44026 0.86745 0.80829   0.237446
 C 0.10395 0.03382 0.89709   -0.014164
 C 0.89605 0.96618 0.10291   -0.014164
 C 0.39605 0.79314 0.42987   -0.014166
 C 0.60395 0.20686 0.57013   -0.014166
 C 0.36327 0.46618 0.07013   -0.014162
 C 0.63673 0.53382 0.92987   -0.014162
 C 0.13673 0.70686 0.60291   -0.01417
 C 0.86327 0.29314 0.39709   -0.01417
 C 0.20686 0.10291 0.13673   -0.014171
 C 0.79314 0.89709 0.86327   -0.014171
 C 0.96618 0.57013 0.36327   -0.014163
 C 0.03382 0.42987 0.63673   -0.014163
 C 0.29314 0.92987 0.39605   -0.014166
 C 0.70686 0.07013 0.60395   -0.014166
 C 0.53382 0.39709 0.10395   -0.014164
 C 0.46618 0.60291 0.89605   -0.014164
 C 0.07013 0.86327 0.96618   -0.014163
 C 0.92987 0.13673 0.03382   -0.014163
 C 0.60291 0.63673 0.20686   -0.014171
 C 0.39709 0.36327 0.79314   -0.014171
 C 0.89709 0.60395 0.53382   -0.014164
 C 0.10291 0.39605 0.46618   -0.014164
 C 0.42987 0.89605 0.29314   -0.014166
 C 0.57013 0.10395 0.70686   -0.014166
 C 0.10395 0.57013 0.20686   -0.014165
 C 0.89605 0.42987 0.79314   -0.014165
 C 0.39605 0.10291 0.96618   -0.014163
 C 0.60395 0.89709 0.03382   -0.014163
 C 0.36327 0.39709 0.29314   -0.01417
 C 0.63673 0.60291 0.70686   -0.01417
 C 0.13673 0.92987 0.53382   -0.014162
 C 0.86327 0.07013 0.46618   -0.014162
 C 0.20686 0.60395 0.07013   -0.014165
 C 0.79314 0.39605 0.92987   -0.014165
 C 0.96618 0.89605 0.60291   -0.014163
 C 0.03382 0.10395 0.39709   -0.014163
 C 0.29314 0.86327 0.89709   -0.01417
 C 0.70686 0.13673 0.10291   -0.01417
 C 0.53382 0.63673 0.42987   -0.014162
 C 0.46618 0.36327 0.57013   -0.014162
 C 0.07013 0.70686 0.10395   -0.014165
 C 0.92987 0.29314 0.89605   -0.014165
 C 0.60291 0.46618 0.39605   -0.014163
 C 0.39709 0.53382 0.60395   -0.014163
 C 0.89709 0.79314 0.36327   -0.01417
 C 0.10291 0.20686 0.63673   -0.01417
 C 0.42987 0.03382 0.13673   -0.014162
 C 0.57013 0.96618 0.86327   -0.014162
 C 0.12709 0.08676 0.86597   -0.0161
 C 0.87291 0.91324 0.13403   -0.0161
 C 0.37291 0.73888 0.45967   -0.016113
 C 0.62709 0.26112 0.54033   -0.016113
 C 0.27921 0.41324 0.04033   -0.016108
 C 0.72079 0.58676 0.95967   -0.016108
 C 0.22079 0.76112 0.63403   -0.016111
 C 0.77921 0.23888 0.36597   -0.016111
 C 0.26112 0.13403 0.22079   -0.016111
 C 0.73888 0.86597 0.77921   -0.016111
 C 0.91324 0.54033 0.27921   -0.016108
 C 0.08676 0.45967 0.72079   -0.016108
 C 0.23888 0.95967 0.37291   -0.016113
 C 0.76112 0.04033 0.62709   -0.016113
 C 0.58676 0.36597 0.12709   -0.0161
 C 0.41324 0.63403 0.87291   -0.0161
 C 0.04033 0.77921 0.91324   -0.016108
 C 0.95967 0.22079 0.08676   -0.016108
 C 0.63403 0.72079 0.26112   -0.016111
 C 0.36597 0.27921 0.73888   -0.016111
 C 0.86597 0.62709 0.58676   -0.0161
 C 0.13403 0.37291 0.41324   -0.0161
 C 0.45967 0.87291 0.23888   -0.016113
 C 0.54033 0.12709 0.76112   -0.016113
 C 0.12709 0.54033 0.26112   -0.016114
 C 0.87291 0.45967 0.73888   -0.016114
 C 0.37291 0.13403 0.91324   -0.016101
 C 0.62709 0.86597 0.08676   -0.016101
 C 0.27921 0.36597 0.23888   -0.016112
 C 0.72079 0.63403 0.76112   -0.016112
 C 0.22079 0.95967 0.58676   -0.016108
 C 0.77921 0.04033 0.41324   -0.016108
 C 0.26112 0.62709 0.04033   -0.016114
 C 0.73888 0.37291 0.95967   -0.016114
 C 0.91324 0.87291 0.63403   -0.016101
 C 0.08676 0.12709 0.36597   -0.016101
 C 0.23888 0.77921 0.86597   -0.016112
 C 0.76112 0.22079 0.13403   -0.016112
 C 0.58676 0.72079 0.45967   -0.016108
 C 0.41324 0.27921 0.54033   -0.016108
 C 0.04033 0.76112 0.12709   -0.016114
 C 0.95967 0.23888 0.87291   -0.016114
 C 0.63403 0.41324 0.37291   -0.016101
 C 0.36597 0.58676 0.62709   -0.016101
 C 0.86597 0.73888 0.27921   -0.016112
 C 0.13403 0.26112 0.72079   -0.016112
 C 0.45967 0.08676 0.22079   -0.016108
 C 0.54033 0.91324 0.77921   -0.016108
 N 0.107 0.15015 0.89357   -0.401872
 N 0.893 0.84985 0.10643   -0.401872
 N 0.393 0.78657 0.54315   -0.401875
 N 0.607 0.21343 0.45685   -0.401875
 N 0.24342 0.34985 0.95685   -0.401874
 N 0.75658 0.65015 0.04315   -0.401874
 N 0.25658 0.71343 0.60643   -0.401878
 N 0.74342 0.28657 0.39357   -0.401878
 N 0.21343 0.10643 0.25658   -0.401878
 N 0.78657 0.89357 0.74342   -0.401878
 N 0.84985 0.45685 0.24342   -0.401874
 N 0.15015 0.54315 0.75658   -0.401874
 N 0.28657 0.04315 0.393   -0.401875
 N 0.71343 0.95685 0.607   -0.401875
 N 0.65015 0.39357 0.107   -0.401872
 N 0.34985 0.60643 0.893   -0.401872
 N 0.95685 0.74342 0.84985   -0.401874
 N 0.04315 0.25658 0.15015   -0.401874
 N 0.60643 0.75658 0.21343   -0.401878
 N 0.39357 0.24342 0.78657   -0.401878
 N 0.89357 0.607 0.65015   -0.401872
 N 0.10643 0.393 0.34985   -0.401872
 N 0.54315 0.893 0.28657   -0.401875
 N 0.45685 0.107 0.71343   -0.401875
 N 0.107 0.45685 0.21343   -0.401875
 N 0.893 0.54315 0.78657   -0.401875
 N 0.393 0.10643 0.84985   -0.401872
 N 0.607 0.89357 0.15015   -0.401872
 N 0.24342 0.39357 0.28657   -0.401878
 N 0.75658 0.60643 0.71343   -0.401878
 N 0.25658 0.04315 0.65015   -0.401874
 N 0.74342 0.95685 0.34985   -0.401874
 N 0.21343 0.607 0.95685   -0.401875
 N 0.78657 0.393 0.04315   -0.401875
 N 0.84985 0.893 0.60643   -0.401872
 N 0.15015 0.107 0.39357   -0.401872
 N 0.28657 0.74342 0.89357   -0.401878
 N 0.71343 0.25658 0.10643   -0.401878
 N 0.65015 0.75658 0.54315   -0.401874
 N 0.34985 0.24342 0.45685   -0.401874
 N 0.95685 0.71343 0.107   -0.401875
 N 0.04315 0.28657 0.893   -0.401875
 N 0.60643 0.34985 0.393   -0.401872
 N 0.39357 0.65015 0.607   -0.401872
 N 0.89357 0.78657 0.24342   -0.401878
 N 0.10643 0.21343 0.75658   -0.401878
 N 0.54315 0.15015 0.25658   -0.401874
 N 0.45685 0.84985 0.74342   -0.401874
 N 0.06922 0.063 0.94512   -0.436895
 N 0.93078 0.937 0.05488   -0.436895
 N 0.43078 0.8759 0.49378   -0.436888
 N 0.56922 0.1241 0.50622   -0.436888
 N 0.38212 0.437 0.00622   -0.43689
 N 0.61788 0.563 0.99378   -0.43689
 N 0.11788 0.6241 0.55488   -0.436889
 N 0.88212 0.3759 0.44512   -0.436889
 N 0.1241 0.05488 0.11788   -0.436889
 N 0.8759 0.94512 0.88212   -0.436889
 N 0.937 0.50622 0.38212   -0.43689
 N 0.063 0.49378 0.61788   -0.43689
 N 0.3759 0.99378 0.43078   -0.436888
 N 0.6241 0.00622 0.56922   -0.436888
 N 0.563 0.44512 0.06922   -0.436895
 N 0.437 0.55488 0.93078   -0.436895
 N 0.00622 0.88212 0.937   -0.43689
 N 0.99378 0.11788 0.063   -0.43689
 N 0.55488 0.61788 0.1241   -0.436888
 N 0.44512 0.38212 0.8759   -0.436888
 N 0.94512 0.56922 0.563   -0.436895
 N 0.05488 0.43078 0.437   -0.436895
 N 0.49378 0.93078 0.3759   -0.436888
 N 0.50622 0.06922 0.6241   -0.436888
 N 0.06922 0.50622 0.1241   -0.436888
 N 0.93078 0.49378 0.8759   -0.436888
 N 0.43078 0.05488 0.937   -0.436895
 N 0.56922 0.94512 0.063   -0.436895
 N 0.38212 0.44512 0.3759   -0.436889
 N 0.61788 0.55488 0.6241   -0.436889
 N 0.11788 0.99378 0.563   -0.436891
 N 0.88212 0.00622 0.437   -0.436891
 N 0.1241 0.56922 0.00622   -0.436888
 N 0.8759 0.43078 0.99378   -0.436888
 N 0.937 0.93078 0.55488   -0.436895
 N 0.063 0.06922 0.44512   -0.436895
 N 0.3759 0.88212 0.94512   -0.436889
 N 0.6241 0.11788 0.05488   -0.436889
 N 0.563 0.61788 0.49378   -0.436891
 N 0.437 0.38212 0.50622   -0.436891
 N 0.00622 0.6241 0.06922   -0.436888
 N 0.99378 0.3759 0.93078   -0.436888
 N 0.55488 0.437 0.43078   -0.436895
 N 0.44512 0.563 0.56922   -0.436895
 N 0.94512 0.8759 0.38212   -0.436889
 N 0.05488 0.1241 0.61788   -0.436889
 N 0.49378 0.063 0.11788   -0.436891
 N 0.50622 0.937 0.88212   -0.436891
