{'_ref': 'TBD', '_srcid': 'CAKYAQ_clean', 'submitters': [{'name': 'Dalar Nazarian Jeff Camp and David Sholl', 'email': 'dalar@gatech.edu jcamp6@gatech.edu'}], '_method': 'VASP DFT with PBE;DDEC'}
data_ZnH10(C7N2)2
_symmetry_space_group_name_H-M   'P 1'
_cell_length_a   14.27489848
_cell_length_b   14.27489848
_cell_length_c   14.27489801
_cell_angle_alpha   107.26391384
_cell_angle_beta   107.26391384
_cell_angle_gamma   107.26391134
_symmetry_Int_Tables_number   1
_chemical_formula_structural   ZnH10(C7N2)2
_chemical_formula_sum   'Zn6 H60 C84 N24'
_cell_volume   2404.85217329
_cell_formula_units_Z   6
loop_
 _symmetry_equiv_pos_site_id
 _symmetry_equiv_pos_as_xyz
  1  'x, y, z'
loop_
 _atom_site_label
 _atom_site_fract_x
 _atom_site_fract_y
 _atom_site_fract_z
 _atom_site_charge
 Zn 0.9865 0.25983 0.72887   0.796261
 Zn 0.0135 0.74017 0.27113   0.796261
 Zn 0.72887 0.9865 0.25983   0.796261
 Zn 0.27113 0.0135 0.74017   0.796261
 Zn 0.25983 0.72887 0.9865   0.796261
 Zn 0.74017 0.27113 0.0135   0.796261
 H 0.0898 0.4959 0.8983   0.051748
 H 0.9102 0.5041 0.1017   0.051748
 H 0.8983 0.0898 0.4959   0.051748
 H 0.1017 0.9102 0.5041   0.051748
 H 0.4959 0.8983 0.0898   0.051748
 H 0.5041 0.1017 0.9102   0.051748
 H 0.1316 0.3057 0.5883   0.104988
 H 0.8684 0.6943 0.4117   0.104988
 H 0.5883 0.1316 0.3057   0.104988
 H 0.4117 0.8684 0.6943   0.104988
 H 0.3057 0.5883 0.1316   0.104988
 H 0.6943 0.4117 0.8684   0.104988
 H 0.2595 0.3984 0.542   0.088892
 H 0.7405 0.6016 0.458   0.088892
 H 0.542 0.2595 0.3984   0.088893
 H 0.458 0.7405 0.6016   0.088893
 H 0.3984 0.542 0.2595   0.088893
 H 0.6016 0.458 0.7405   0.088893
 H 0.3695 0.5825 0.6445   0.087873
 H 0.6305 0.4175 0.3555   0.087873
 H 0.6445 0.3695 0.5825   0.087875
 H 0.3555 0.6305 0.4175   0.087875
 H 0.5825 0.6445 0.3695   0.087876
 H 0.4175 0.3555 0.6305   0.087876
 H 0.7974 0.3547 0.6779   0.11136
 H 0.2026 0.6453 0.3221   0.11136
 H 0.6779 0.7974 0.3547   0.111359
 H 0.3221 0.2026 0.6453   0.111359
 H 0.3547 0.6779 0.7974   0.11136
 H 0.6453 0.3221 0.2026   0.11136
 H 0.1974 0.2115 0.7523   0.057589
 H 0.8026 0.7885 0.2477   0.057589
 H 0.7523 0.1974 0.2115   0.057589
 H 0.2477 0.8026 0.7885   0.057589
 H 0.2115 0.7523 0.1974   0.057589
 H 0.7885 0.2477 0.8026   0.057589
 H 0.8218 0.0202 0.6553   0.115871
 H 0.1782 0.9798 0.3447   0.115871
 H 0.6553 0.8218 0.0202   0.115871
 H 0.3447 0.1782 0.9798   0.115871
 H 0.0202 0.6553 0.8218   0.115871
 H 0.9798 0.3447 0.1782   0.115871
 H 0.1663 0.3284 0.9557   0.116506
 H 0.8337 0.6716 0.0443   0.116506
 H 0.9557 0.1663 0.3284   0.116506
 H 0.0443 0.8337 0.6716   0.116506
 H 0.3284 0.9557 0.1663   0.116506
 H 0.6716 0.0443 0.8337   0.116506
 H 0.752 0.8416 0.6205   0.097264
 H 0.248 0.1584 0.3795   0.097264
 H 0.6205 0.752 0.8416   0.097264
 H 0.3795 0.248 0.1584   0.097264
 H 0.8416 0.6205 0.752   0.097264
 H 0.1584 0.3795 0.248   0.097264
 H 0.2537 0.3719 0.1404   0.096567
 H 0.7463 0.6281 0.8596   0.096567
 H 0.1404 0.2537 0.3719   0.096567
 H 0.8596 0.7463 0.6281   0.096567
 H 0.3719 0.1404 0.2537   0.096567
 H 0.6281 0.8596 0.7463   0.096567
 C 0.1242 0.4947 0.8522   0.30403
 C 0.8758 0.5053 0.1478   0.30403
 C 0.8522 0.1242 0.4947   0.30403
 C 0.1478 0.8758 0.5053   0.30403
 C 0.4947 0.8522 0.1242   0.30403
 C 0.5053 0.1478 0.8758   0.30403
 C 0.1648 0.4372 0.7188   0.161208
 C 0.8352 0.5628 0.2812   0.161208
 C 0.7188 0.1648 0.4372   0.161208
 C 0.2812 0.8352 0.5628   0.161208
 C 0.4372 0.7188 0.1648   0.161208
 C 0.5628 0.2812 0.8352   0.161208
 C 0.1749 0.3793 0.6292   -0.174187
 C 0.8251 0.6207 0.3708   -0.174187
 C 0.6292 0.1749 0.3793   -0.174187
 C 0.3708 0.8251 0.6207   -0.174187
 C 0.3793 0.6292 0.1749   -0.174188
 C 0.6207 0.3708 0.8251   -0.174188
 C 0.2513 0.4351 0.6026   -0.097144
 C 0.7487 0.5649 0.3974   -0.097144
 C 0.6026 0.2513 0.4351   -0.097144
 C 0.3974 0.7487 0.5649   -0.097144
 C 0.4351 0.6026 0.2513   -0.097143
 C 0.5649 0.3974 0.7487   -0.097143
 C 0.3186 0.5473 0.6652   -0.08854
 C 0.6814 0.4527 0.3348   -0.08854
 C 0.6652 0.3186 0.5473   -0.08854
 C 0.3348 0.6814 0.4527   -0.08854
 C 0.5473 0.6652 0.3186   -0.08854
 C 0.4527 0.3348 0.6814   -0.08854
 C 0.7811 0.2315 0.5486   0.163631
 C 0.2189 0.7685 0.4514   0.163631
 C 0.5486 0.7811 0.2315   0.163631
 C 0.4514 0.2189 0.7685   0.163631
 C 0.2315 0.5486 0.7811   0.163631
 C 0.7685 0.4514 0.2189   0.163631
 C 0.7553 0.3099 0.6046   -0.18197
 C 0.2447 0.6901 0.3954   -0.18197
 C 0.6046 0.7553 0.3099   -0.18197
 C 0.3954 0.2447 0.6901   -0.18197
 C 0.3099 0.6046 0.7553   -0.18197
 C 0.6901 0.3954 0.2447   -0.18197
 C 0.1386 0.148 0.7327   0.315904
 C 0.8614 0.852 0.2673   0.315904
 C 0.7327 0.1386 0.148   0.315904
 C 0.2673 0.8614 0.852   0.315904
 C 0.148 0.7327 0.1386   0.315904
 C 0.852 0.2673 0.8614   0.315904
 C 0.9791 0.0395 0.6896   0.156476
 C 0.0209 0.9605 0.3104   0.156476
 C 0.6896 0.9791 0.0395   0.156476
 C 0.3104 0.0209 0.9605   0.156476
 C 0.0395 0.6896 0.9791   0.156476
 C 0.9605 0.3104 0.0209   0.156476
 C 0.8662 0.9841 0.6599   -0.177977
 C 0.1338 0.0159 0.3401   -0.177977
 C 0.6599 0.8662 0.9841   -0.177977
 C 0.3401 0.1338 0.0159   -0.177977
 C 0.9841 0.6599 0.8662   -0.177977
 C 0.0159 0.3401 0.1338   -0.177977
 C 0.0157 0.3071 0.9572   0.136776
 C 0.9843 0.6929 0.0428   0.136776
 C 0.9572 0.0157 0.3071   0.136775
 C 0.0428 0.9843 0.6929   0.136775
 C 0.3071 0.9572 0.0157   0.136775
 C 0.6929 0.0428 0.9843   0.136775
 C 0.1293 0.3306 0.9995   -0.179714
 C 0.8707 0.6694 0.000500000000002   -0.179714
 C 0.9995 0.1293 0.3306   -0.179714
 C 0.000500000000002 0.8707 0.6694   -0.179714
 C 0.3306 0.9995 0.1293   -0.179713
 C 0.6694 0.000500000000002 0.8707   -0.179713
 C 0.8252 0.8775 0.6386   -0.09037
 C 0.1748 0.1225 0.3614   -0.09037
 C 0.6386 0.8252 0.8775   -0.090371
 C 0.3614 0.1748 0.1225   -0.090371
 C 0.8775 0.6386 0.8252   -0.090371
 C 0.1225 0.3614 0.1748   -0.090371
 C 0.1808 0.3571 0.1096   -0.090428
 C 0.8192 0.6429 0.8904   -0.090428
 C 0.1096 0.1808 0.3571   -0.090429
 C 0.8904 0.8192 0.6429   -0.090429
 C 0.3571 0.1096 0.1808   -0.090429
 C 0.6429 0.8904 0.8192   -0.090429
 N 0.0978 0.4043 0.768   -0.472221
 N 0.9022 0.5957 0.232   -0.472221
 N 0.768 0.0978 0.4043   -0.472222
 N 0.232 0.9022 0.5957   -0.472222
 N 0.4043 0.768 0.0978   -0.472222
 N 0.5957 0.232 0.9022   -0.472222
 N 0.9428 0.2784 0.8512   -0.467511
 N 0.0572 0.7216 0.1488   -0.467511
 N 0.8512 0.9428 0.2784   -0.467511
 N 0.1488 0.0572 0.7216   -0.467511
 N 0.2784 0.8512 0.9428   -0.467511
 N 0.7216 0.1488 0.0572   -0.467511
 N 0.8667 0.2036 0.5842   -0.476079
 N 0.1333 0.7964 0.4158   -0.476079
 N 0.5842 0.8667 0.2036   -0.476079
 N 0.4158 0.1333 0.7964   -0.476079
 N 0.2036 0.5842 0.8667   -0.476079
 N 0.7964 0.4158 0.1333   -0.476079
 N 0.0416 0.1451 0.715   -0.466801
 N 0.9584 0.8549 0.285   -0.466801
 N 0.715 0.0416 0.1451   -0.466801
 N 0.285 0.9584 0.8549   -0.466801
 N 0.1451 0.715 0.0416   -0.466801
 N 0.8549 0.285 0.9584   -0.466801
