{'_ref': 'TBD', '_srcid': 'CAKYAQ_clean', 'submitters': [{'name': 'Dalar Nazarian Jeff Camp and David Sholl', 'email': 'dalar@gatech.edu jcamp6@gatech.edu'}], '_method': 'VASP DFT with PBE;DDEC'}
data_ZnH6(C3N2)2
_symmetry_space_group_name_H-M   'P 1'
_cell_length_a   16.74000000
_cell_length_b   18.97010000
_cell_length_c   18.97010000
_cell_angle_alpha   90.00000000
_cell_angle_beta   90.00000000
_cell_angle_gamma   90.00000000
_symmetry_Int_Tables_number   1
_chemical_formula_structural   ZnH6(C3N2)2
_chemical_formula_sum   'Zn16 H96 C96 N64'
_cell_volume   6024.13497773
_cell_formula_units_Z   16
loop_
 _symmetry_equiv_pos_site_id
 _symmetry_equiv_pos_as_xyz
  1  'x, y, z'
loop_
 _atom_site_label
 _atom_site_fract_x
 _atom_site_fract_y
 _atom_site_fract_z
 _atom_site_charge
 Zn 0.17924 0.60549 0.17336   0.733435
 Zn 0.82076 0.39451 0.82664   0.733435
 Zn 0.17924 0.39451 0.82664   0.733435
 Zn 0.82076 0.60549 0.17336   0.733435
 Zn 0.67924 0.32664 0.10549   0.733435
 Zn 0.32076 0.67336 0.89451   0.733435
 Zn 0.67924 0.67336 0.89451   0.733435
 Zn 0.32076 0.32664 0.10549   0.733435
 Zn 0.32076 0.89451 0.67336   0.733436
 Zn 0.67924 0.10549 0.32664   0.733436
 Zn 0.32076 0.10549 0.32664   0.733436
 Zn 0.67924 0.89451 0.67336   0.733436
 Zn 0.82076 0.17336 0.60549   0.733436
 Zn 0.17924 0.82664 0.39451   0.733436
 Zn 0.82076 0.82664 0.39451   0.733436
 Zn 0.17924 0.17336 0.60549   0.733436
 H 0.1305 0.7332 0.2668   0.049997
 H 0.8695 0.2668 0.7332   0.049997
 H 0.1305 0.2668 0.7332   0.049996
 H 0.8695 0.7332 0.2668   0.049996
 H 0.6305 0.2332 0.2332   0.049997
 H 0.3695 0.7668 0.7668   0.049997
 H 0.6305 0.7668 0.7668   0.049996
 H 0.3695 0.2332 0.2332   0.049996
 H 0.3018 0.6027 0.3058   0.09872
 H 0.6982 0.3973 0.6942   0.09872
 H 0.3018 0.3973 0.6942   0.098719
 H 0.6982 0.6027 0.3058   0.098719
 H 0.8018 0.1942 0.1027   0.09872
 H 0.1982 0.8058 0.8973   0.09872
 H 0.8018 0.8058 0.8973   0.098719
 H 0.1982 0.1942 0.1027   0.098719
 H 0.1982 0.8973 0.8058   0.098716
 H 0.8018 0.1027 0.1942   0.098716
 H 0.1982 0.1027 0.1942   0.098715
 H 0.8018 0.8973 0.8058   0.098715
 H 0.6982 0.3058 0.6027   0.098716
 H 0.3018 0.6942 0.3973   0.098716
 H 0.6982 0.6942 0.3973   0.098715
 H 0.3018 0.3058 0.6027   0.098715
 H 0.2184 0.6047 0.0106   0.051759
 H 0.7816 0.3953 0.9894   0.051759
 H 0.2184 0.3953 0.9894   0.051759
 H 0.7816 0.6047 0.0106   0.051759
 H 0.7184 0.4894 0.1047   0.051759
 H 0.2816 0.5106 0.8953   0.051759
 H 0.7184 0.5106 0.8953   0.051759
 H 0.2816 0.4894 0.1047   0.051759
 H 0.2816 0.8953 0.5106   0.051759
 H 0.7184 0.1047 0.4894   0.051759
 H 0.2816 0.1047 0.4894   0.051759
 H 0.7184 0.8953 0.5106   0.051759
 H 0.7816 0.0106 0.6047   0.051759
 H 0.2184 0.9894 0.3953   0.051759
 H 0.7816 0.9894 0.3953   0.051759
 H 0.2184 0.0106 0.6047   0.051759
 H 0.3221 0.718 0.1525   0.090832
 H 0.6779 0.282 0.8475   0.090832
 H 0.3221 0.282 0.8475   0.090832
 H 0.6779 0.718 0.1525   0.090832
 H 0.8221 0.3475 0.218   0.090832
 H 0.1779 0.6525 0.782   0.090832
 H 0.8221 0.6525 0.782   0.090832
 H 0.1779 0.3475 0.218   0.090832
 H 0.1779 0.782 0.6525   0.090831
 H 0.8221 0.218 0.3475   0.090831
 H 0.1779 0.218 0.3475   0.090832
 H 0.8221 0.782 0.6525   0.090832
 H 0.6779 0.1525 0.718   0.090831
 H 0.3221 0.8475 0.282   0.090831
 H 0.6779 0.8475 0.282   0.090832
 H 0.3221 0.1525 0.718   0.090832
 H 0.0748 0.7125 0.0845   0.101046
 H 0.9252 0.2875 0.9155   0.101046
 H 0.0748 0.2875 0.9155   0.101046
 H 0.9252 0.7125 0.0845   0.101046
 H 0.5748 0.4155 0.2125   0.101046
 H 0.4252 0.5845 0.7875   0.101046
 H 0.5748 0.5845 0.7875   0.101046
 H 0.4252 0.4155 0.2125   0.101046
 H 0.4252 0.7875 0.5845   0.101046
 H 0.5748 0.2125 0.4155   0.101046
 H 0.4252 0.2125 0.4155   0.101046
 H 0.5748 0.7875 0.5845   0.101046
 H 0.9252 0.0845 0.7125   0.101046
 H 0.0748 0.9155 0.2875   0.101046
 H 0.9252 0.9155 0.2875   0.101046
 H 0.0748 0.0845 0.7125   0.101046
 H 0.0 0.5567 0.1989   0.049379
 H 0.0 0.4433 0.8011   0.049379
 H 0.5 0.3011 0.0567   0.049379
 H 0.5 0.6989 0.9433   0.049379
 H 0.5 0.9433 0.6989   0.049379
 H 0.5 0.0567 0.3011   0.049379
 H 0.0 0.1989 0.5567   0.049379
 H 0.0 0.8011 0.4433   0.049379
 H 0.1227 0.4604 0.2508   0.103395
 H 0.8773 0.5396 0.7492   0.103395
 H 0.1227 0.5396 0.7492   0.103395
 H 0.8773 0.4604 0.2508   0.103395
 H 0.6227 0.2492 0.9604   0.103395
 H 0.3773 0.7508 0.0396   0.103395
 H 0.6227 0.7508 0.0396   0.103395
 H 0.3773 0.2492 0.9604   0.103395
 H 0.3773 0.0396 0.7508   0.103395
 H 0.6227 0.9604 0.2492   0.103395
 H 0.3773 0.9604 0.2492   0.103395
 H 0.6227 0.0396 0.7508   0.103395
 H 0.8773 0.2508 0.4604   0.103395
 H 0.1227 0.7492 0.5396   0.103395
 H 0.8773 0.7492 0.5396   0.103395
 H 0.1227 0.2508 0.4604   0.103395
 C 0.1727 0.7107 0.2893   0.233411
 C 0.8273 0.2893 0.7107   0.233411
 C 0.1727 0.2893 0.7107   0.233411
 C 0.8273 0.7107 0.2893   0.233411
 C 0.6727 0.2107 0.2107   0.233411
 C 0.3273 0.7893 0.7893   0.233411
 C 0.6727 0.7893 0.7893   0.233411
 C 0.3273 0.2107 0.2107   0.233411
 C 0.2656 0.6398 0.3092   -0.043346
 C 0.7344 0.3602 0.6908   -0.043346
 C 0.2656 0.3602 0.6908   -0.043346
 C 0.7344 0.6398 0.3092   -0.043346
 C 0.7656 0.1908 0.1398   -0.043346
 C 0.2344 0.8092 0.8602   -0.043346
 C 0.7656 0.8092 0.8602   -0.043346
 C 0.2344 0.1908 0.1398   -0.043346
 C 0.2344 0.8602 0.8092   -0.043325
 C 0.7656 0.1398 0.1908   -0.043325
 C 0.2344 0.1398 0.1908   -0.043325
 C 0.7656 0.8602 0.8092   -0.043325
 C 0.7344 0.3092 0.6398   -0.043325
 C 0.2656 0.6908 0.3602   -0.043325
 C 0.7344 0.6908 0.3602   -0.043325
 C 0.2656 0.3092 0.6398   -0.043325
 C 0.2505 0.6382 0.0326   0.239759
 C 0.7495 0.3618 0.9674   0.239759
 C 0.2505 0.3618 0.9674   0.239759
 C 0.7495 0.6382 0.0326   0.239759
 C 0.7505 0.4674 0.1382   0.239759
 C 0.2495 0.5326 0.8618   0.239759
 C 0.7505 0.5326 0.8618   0.239759
 C 0.2495 0.4674 0.1382   0.239759
 C 0.2495 0.8618 0.5326   0.239759
 C 0.7505 0.1382 0.4674   0.239759
 C 0.2495 0.1382 0.4674   0.239759
 C 0.7505 0.8618 0.5326   0.239759
 C 0.7495 0.0326 0.6382   0.239759
 C 0.2505 0.9674 0.3618   0.239759
 C 0.7495 0.9674 0.3618   0.239759
 C 0.2505 0.0326 0.6382   0.239759
 C 0.3066 0.6992 0.1093   -0.034377
 C 0.6934 0.3008 0.8907   -0.034377
 C 0.3066 0.3008 0.8907   -0.034376
 C 0.6934 0.6992 0.1093   -0.034376
 C 0.8066 0.3907 0.1992   -0.034377
 C 0.1934 0.6093 0.8008   -0.034377
 C 0.8066 0.6093 0.8008   -0.034376
 C 0.1934 0.3907 0.1992   -0.034376
 C 0.1934 0.8008 0.6093   -0.034376
 C 0.8066 0.1992 0.3907   -0.034376
 C 0.1934 0.1992 0.3907   -0.034376
 C 0.8066 0.8008 0.6093   -0.034376
 C 0.6934 0.1093 0.6992   -0.034377
 C 0.3066 0.8907 0.3008   -0.034377
 C 0.6934 0.8907 0.3008   -0.034376
 C 0.3066 0.1093 0.6992   -0.034376
 C 0.0422 0.6812 0.1088   -0.048609
 C 0.9578 0.3188 0.8912   -0.048609
 C 0.0422 0.3188 0.8912   -0.048605
 C 0.9578 0.6812 0.1088   -0.048605
 C 0.5422 0.3912 0.1812   -0.048609
 C 0.4578 0.6088 0.8188   -0.048609
 C 0.5422 0.6088 0.8188   -0.048605
 C 0.4578 0.3912 0.1812   -0.048605
 C 0.4578 0.8188 0.6088   -0.048609
 C 0.5422 0.1812 0.3912   -0.048609
 C 0.4578 0.1812 0.3912   -0.048605
 C 0.5422 0.8188 0.6088   -0.048605
 C 0.9578 0.1088 0.6812   -0.048609
 C 0.0422 0.8912 0.3188   -0.048609
 C 0.9578 0.8912 0.3188   -0.048605
 C 0.0422 0.1088 0.6812   -0.048605
 C 0.0 0.5971 0.1711   0.215855
 C 0.0 0.4029 0.8289   0.215855
 C 0.5 0.3289 0.0971   0.215855
 C 0.5 0.6711 0.9029   0.215855
 C 0.5 0.9029 0.6711   0.215855
 C 0.5 0.0971 0.3289   0.215855
 C 0.0 0.1711 0.5971   0.215855
 C 0.0 0.8289 0.4029   0.215855
 C 0.1623 0.4527 0.2173   -0.028021
 C 0.8377 0.5473 0.7827   -0.028021
 C 0.1623 0.5473 0.7827   -0.028021
 C 0.8377 0.4527 0.2173   -0.028021
 C 0.6623 0.2827 0.9527   -0.028021
 C 0.3377 0.7173 0.0473   -0.028021
 C 0.6623 0.7173 0.0473   -0.028021
 C 0.3377 0.2827 0.9527   -0.028021
 C 0.3377 0.0473 0.7173   -0.028021
 C 0.6623 0.9527 0.2827   -0.028021
 C 0.3377 0.9527 0.2827   -0.028021
 C 0.6623 0.0473 0.7173   -0.028021
 C 0.8377 0.2173 0.4527   -0.028021
 C 0.1623 0.7827 0.5473   -0.028021
 C 0.8377 0.7827 0.5473   -0.028021
 C 0.1623 0.2173 0.4527   -0.028021
 N 0.2044 0.6522 0.2646   -0.38445
 N 0.7956 0.3478 0.7354   -0.38445
 N 0.2044 0.3478 0.7354   -0.38445
 N 0.7956 0.6522 0.2646   -0.38445
 N 0.7044 0.2354 0.1522   -0.38445
 N 0.2956 0.7646 0.8478   -0.38445
 N 0.7044 0.7646 0.8478   -0.38445
 N 0.2956 0.2354 0.1522   -0.38445
 N 0.2956 0.8478 0.7646   -0.384453
 N 0.7044 0.1522 0.2354   -0.384453
 N 0.2956 0.1522 0.2354   -0.384454
 N 0.7044 0.8478 0.7646   -0.384454
 N 0.7956 0.2646 0.6522   -0.384453
 N 0.2044 0.7354 0.3478   -0.384453
 N 0.7956 0.7354 0.3478   -0.384454
 N 0.2044 0.2646 0.6522   -0.384454
 N 0.2488 0.6492 0.1006   -0.384525
 N 0.7512 0.3508 0.8994   -0.384525
 N 0.2488 0.3508 0.8994   -0.384525
 N 0.7512 0.6492 0.1006   -0.384525
 N 0.7488 0.3994 0.1492   -0.384525
 N 0.2512 0.6006 0.8508   -0.384525
 N 0.7488 0.6006 0.8508   -0.384525
 N 0.2512 0.3994 0.1492   -0.384525
 N 0.2512 0.8508 0.6006   -0.384525
 N 0.7488 0.1492 0.3994   -0.384525
 N 0.2512 0.1492 0.3994   -0.384525
 N 0.7488 0.8508 0.6006   -0.384525
 N 0.7512 0.1006 0.6492   -0.384525
 N 0.2488 0.8994 0.3508   -0.384525
 N 0.7512 0.8994 0.3508   -0.384525
 N 0.2488 0.1006 0.6492   -0.384525
 N 0.0671 0.628 0.1499   -0.371143
 N 0.9329 0.372 0.8501   -0.371143
 N 0.0671 0.372 0.8501   -0.371144
 N 0.9329 0.628 0.1499   -0.371144
 N 0.5671 0.3501 0.128   -0.371143
 N 0.4329 0.6499 0.872   -0.371143
 N 0.5671 0.6499 0.872   -0.371144
 N 0.4329 0.3501 0.128   -0.371144
 N 0.4329 0.872 0.6499   -0.371143
 N 0.5671 0.128 0.3501   -0.371143
 N 0.4329 0.128 0.3501   -0.371144
 N 0.5671 0.872 0.6499   -0.371144
 N 0.9329 0.1499 0.628   -0.371143
 N 0.0671 0.8501 0.372   -0.371143
 N 0.9329 0.8501 0.372   -0.371144
 N 0.0671 0.1499 0.628   -0.371144
 N 0.1992 0.5021 0.1779   -0.398804
 N 0.8008 0.4979 0.8221   -0.398804
 N 0.1992 0.4979 0.8221   -0.398804
 N 0.8008 0.5021 0.1779   -0.398804
 N 0.6992 0.3221 0.0021   -0.398804
 N 0.3008 0.6779 0.9979   -0.398804
 N 0.6992 0.6779 0.9979   -0.398804
 N 0.3008 0.3221 0.0021   -0.398804
 N 0.3008 0.9979 0.6779   -0.398804
 N 0.6992 0.0021 0.3221   -0.398804
 N 0.3008 0.0021 0.3221   -0.398804
 N 0.6992 0.9979 0.6779   -0.398804
 N 0.8008 0.1779 0.5021   -0.398804
 N 0.1992 0.8221 0.4979   -0.398804
 N 0.8008 0.8221 0.4979   -0.398804
 N 0.1992 0.1779 0.5021   -0.398804
