{'_ref': 'TBD', '_srcid': 'CAKYAQ_clean', 'submitters': [{'name': 'Dalar Nazarian Jeff Camp and David Sholl', 'email': 'dalar@gatech.edu jcamp6@gatech.edu'}], '_method': 'VASP DFT with PBE;DDEC'}
data_ZnH10(C2N)4
_symmetry_space_group_name_H-M   'P 1'
_cell_length_a   16.99100000
_cell_length_b   16.99100000
_cell_length_c   16.99100000
_cell_angle_alpha   90.00000000
_cell_angle_beta   90.00000000
_cell_angle_gamma   90.00000000
_symmetry_Int_Tables_number   1
_chemical_formula_structural   ZnH10(C2N)4
_chemical_formula_sum   'Zn12 H120 C96 N48'
_cell_volume   4905.20113027
_cell_formula_units_Z   12
loop_
 _symmetry_equiv_pos_site_id
 _symmetry_equiv_pos_as_xyz
  1  'x, y, z'
loop_
 _atom_site_label
 _atom_site_fract_x
 _atom_site_fract_y
 _atom_site_fract_z
 _atom_site_charge
 Zn 0.5 0.0 0.75   0.763912
 Zn 0.0 0.5 0.25   0.769637
 Zn 0.5 0.0 0.25   0.757844
 Zn 0.0 0.5 0.75   0.763726
 Zn 0.75 0.5 0.0   0.751951
 Zn 0.5 0.25 0.0   0.775353
 Zn 0.25 0.5 0.0   0.758145
 Zn 0.5 0.75 0.0   0.769593
 Zn 0.0 0.75 0.5   0.775389
 Zn 0.0 0.25 0.5   0.763695
 Zn 0.25 0.0 0.5   0.76408
 Zn 0.75 0.0 0.5   0.751794
 H 0.3777 0.8589 0.7234   0.095672
 H 0.8589 0.6223 0.2766   0.095577
 H 0.6223 0.1411 0.7234   0.096979
 H 0.5413 0.9202 0.5743   0.145723
 H 0.5942 0.8772 0.6364   0.135044
 H 0.6276 0.8961 0.5525   0.13812
 H 0.1411 0.3777 0.2766   0.095234
 H 0.9202 0.4587 0.4257   0.145803
 H 0.8772 0.4058 0.3636   0.13546
 H 0.8961 0.3724 0.4475   0.138087
 H 0.3777 0.1411 0.2766   0.097371
 H 0.1411 0.6223 0.7234   0.097265
 H 0.6223 0.8589 0.2766   0.096783
 H 0.5413 0.0798 0.4257   0.145681
 H 0.5942 0.1228 0.3636   0.135097
 H 0.6276 0.1039 0.4475   0.138138
 H 0.8589 0.3777 0.7234   0.095064
 H 0.0798 0.4587 0.5743   0.145827
 H 0.1228 0.4058 0.6364   0.135436
 H 0.1039 0.3724 0.5525   0.137926
 H 0.7234 0.3777 0.8589   0.097177
 H 0.3777 0.2766 0.1411   0.095169
 H 0.4587 0.4257 0.9202   0.146825
 H 0.4058 0.3636 0.8772   0.13618
 H 0.3724 0.4475 0.8961   0.138104
 H 0.2766 0.6223 0.8589   0.09575
 H 0.6223 0.7234 0.1411   0.095088
 H 0.5413 0.5743 0.9202   0.146743
 H 0.5942 0.6364 0.8772   0.135996
 H 0.6276 0.5525 0.8961   0.138156
 H 0.7234 0.6223 0.1411   0.097343
 H 0.6223 0.2766 0.8589   0.095254
 H 0.5413 0.4257 0.0798   0.146829
 H 0.5942 0.3636 0.1228   0.135994
 H 0.6276 0.4475 0.1039   0.138157
 H 0.2766 0.3777 0.1411   0.097344
 H 0.3777 0.7234 0.8589   0.096769
 H 0.4587 0.5743 0.0798   0.146749
 H 0.4058 0.6364 0.1228   0.136156
 H 0.3724 0.5525 0.1039   0.138049
 H 0.8589 0.7234 0.3777   0.09532
 H 0.0798 0.5743 0.4587   0.144758
 H 0.1228 0.6364 0.4058   0.136117
 H 0.1039 0.5525 0.3724   0.138409
 H 0.8589 0.2766 0.6223   0.095471
 H 0.2766 0.1411 0.3777   0.097021
 H 0.4257 0.9202 0.4587   0.14459
 H 0.3636 0.8772 0.4058   0.135808
 H 0.4475 0.8961 0.3724   0.138403
 H 0.1411 0.7234 0.6223   0.095306
 H 0.9202 0.5743 0.5413   0.144607
 H 0.8772 0.6364 0.5942   0.13614
 H 0.8961 0.5525 0.6276   0.138435
 H 0.7234 0.8589 0.3777   0.097174
 H 0.1411 0.2766 0.3777   0.095449
 H 0.2766 0.8589 0.6223   0.09701
 H 0.4257 0.0798 0.5413   0.144728
 H 0.3636 0.1228 0.5942   0.13612
 H 0.4475 0.1039 0.6276   0.138357
 H 0.7234 0.1411 0.6223   0.09717
 H 0.8777 0.3589 0.2234   0.095084
 H 0.9587 0.5798 0.0743   0.145028
 H 0.9058 0.6228 0.1364   0.13559
 H 0.8724 0.6039 0.0525   0.138518
 H 0.3589 0.1223 0.7766   0.097352
 H 0.1223 0.6411 0.2234   0.09708
 H 0.0413 0.4202 0.0743   0.146419
 H 0.0942 0.3772 0.1364   0.136257
 H 0.1276 0.3961 0.0525   0.138046
 H 0.6411 0.8777 0.7766   0.095268
 H 0.4202 0.9587 0.9257   0.145523
 H 0.3772 0.9058 0.8636   0.135886
 H 0.3961 0.8724 0.9475   0.138029
 H 0.8777 0.6411 0.7766   0.096979
 H 0.9587 0.4202 0.9257   0.147455
 H 0.9058 0.3772 0.8636   0.135473
 H 0.8724 0.3961 0.9475   0.137728
 H 0.6411 0.1223 0.2234   0.095606
 H 0.1223 0.3589 0.7766   0.09534
 H 0.3589 0.8777 0.2234   0.097142
 H 0.2234 0.8777 0.3589   0.095724
 H 0.8777 0.7766 0.6411   0.095215
 H 0.9587 0.9257 0.4202   0.146721
 H 0.9058 0.8636 0.3772   0.135998
 H 0.8724 0.9475 0.3961   0.138308
 H 0.7766 0.1223 0.3589   0.097276
 H 0.1223 0.2234 0.6411   0.096679
 H 0.0413 0.0743 0.4202   0.146811
 H 0.0942 0.1364 0.3772   0.136026
 H 0.1276 0.0525 0.3961   0.137922
 H 0.2234 0.1223 0.6411   0.095816
 H 0.1223 0.7766 0.3589   0.095186
 H 0.0413 0.9257 0.5798   0.146943
 H 0.0942 0.8636 0.6228   0.136302
 H 0.1276 0.9475 0.6039   0.138064
 H 0.7766 0.8777 0.6411   0.097153
 H 0.8777 0.2234 0.3589   0.096701
 H 0.9587 0.0743 0.5798   0.146614
 H 0.9058 0.1364 0.6228   0.135849
 H 0.8724 0.0525 0.6039   0.138067
 H 0.3589 0.2234 0.8777   0.095277
 H 0.5798 0.0743 0.9587   0.146427
 H 0.6228 0.1364 0.9058   0.136545
 H 0.6039 0.0525 0.8724   0.138087
 H 0.3589 0.7766 0.1223   0.095204
 H 0.5798 0.9257 0.0413   0.147446
 H 0.6228 0.8636 0.0942   0.135759
 H 0.6039 0.9475 0.1276   0.137786
 H 0.7766 0.6411 0.8777   0.097214
 H 0.6411 0.2234 0.1223   0.095046
 H 0.4202 0.0743 0.0413   0.145015
 H 0.3772 0.1364 0.0942   0.135826
 H 0.3961 0.0525 0.1276   0.138492
 H 0.2234 0.3589 0.8777   0.097102
 H 0.0743 0.5798 0.9587   0.145458
 H 0.1364 0.6228 0.9058   0.135787
 H 0.0525 0.6039 0.8724   0.138037
 H 0.6411 0.7766 0.8777   0.095402
 H 0.7766 0.3589 0.1223   0.097358
 H 0.2234 0.6411 0.1223   0.097373
 C 0.37705 0.0079 0.62295   0.424166
 C 0.36851 0.89914 0.6875   -0.038919
 C 0.4061 0.0855 0.5939   -0.443985
 C 0.0079 0.62295 0.37705   0.425093
 C 0.89914 0.63149 0.3125   -0.036552
 C 0.0855 0.5939 0.4061   -0.444382
 C 0.62295 0.9921 0.62295   0.43068
 C 0.63149 0.10086 0.6875   -0.032394
 C 0.5939 0.9145 0.5939   -0.443838
 C 0.9921 0.37705 0.37705   0.431948
 C 0.10086 0.36851 0.3125   -0.032964
 C 0.9145 0.4061 0.4061   -0.444354
 C 0.37705 0.9921 0.37705   0.423593
 C 0.36851 0.10086 0.3125   -0.036412
 C 0.4061 0.9145 0.4061   -0.443768
 C 0.9921 0.62295 0.62295   0.424664
 C 0.10086 0.63149 0.6875   -0.03396
 C 0.9145 0.5939 0.5939   -0.444304
 C 0.62295 0.0079 0.37705   0.430463
 C 0.63149 0.89914 0.3125   -0.032724
 C 0.5939 0.0855 0.4061   -0.443646
 C 0.0079 0.37705 0.62295   0.431618
 C 0.89914 0.36851 0.6875   -0.033315
 C 0.0855 0.4061 0.5939   -0.444161
 C 0.62295 0.37705 0.0079   0.428075
 C 0.6875 0.36851 0.89914   -0.036464
 C 0.5939 0.4061 0.0855   -0.446274
 C 0.37705 0.37705 0.9921   0.428418
 C 0.36851 0.3125 0.10086   -0.032834
 C 0.4061 0.4061 0.9145   -0.446442
 C 0.37705 0.62295 0.0079   0.428153
 C 0.3125 0.63149 0.89914   -0.041045
 C 0.4061 0.5939 0.0855   -0.446157
 C 0.62295 0.62295 0.9921   0.427837
 C 0.63149 0.6875 0.10086   -0.032993
 C 0.5939 0.5939 0.9145   -0.44607
 C 0.6875 0.63149 0.10086   -0.036532
 C 0.63149 0.3125 0.89914   -0.032683
 C 0.3125 0.36851 0.10086   -0.036022
 C 0.36851 0.6875 0.89914   -0.028232
 C 0.89914 0.6875 0.36851   -0.031776
 C 0.89914 0.3125 0.63149   -0.037349
 C 0.3125 0.10086 0.36851   -0.031597
 C 0.10086 0.6875 0.63149   -0.033859
 C 0.6875 0.89914 0.36851   -0.037316
 C 0.10086 0.3125 0.36851   -0.037473
 C 0.3125 0.89914 0.63149   -0.029743
 C 0.6875 0.10086 0.63149   -0.037245
 C 0.87705 0.5079 0.12295   0.4275
 C 0.86851 0.39914 0.1875   -0.03311
 C 0.9061 0.5855 0.0939   -0.443944
 C 0.5079 0.12295 0.87705   0.425016
 C 0.39914 0.13149 0.8125   -0.034085
 C 0.5855 0.0939 0.9061   -0.446506
 C 0.12295 0.4921 0.12295   0.424214
 C 0.13149 0.60086 0.1875   -0.031418
 C 0.0939 0.4145 0.0939   -0.446115
 C 0.4921 0.87705 0.87705   0.428145
 C 0.60086 0.86851 0.8125   -0.034382
 C 0.4145 0.9061 0.9061   -0.444351
 C 0.87705 0.4921 0.87705   0.431042
 C 0.86851 0.60086 0.8125   -0.032344
 C 0.9061 0.4145 0.9061   -0.445981
 C 0.4921 0.12295 0.12295   0.428238
 C 0.60086 0.13149 0.1875   -0.038937
 C 0.4145 0.0939 0.0939   -0.444237
 C 0.12295 0.5079 0.87705   0.427433
 C 0.13149 0.39914 0.8125   -0.037769
 C 0.0939 0.5855 0.9061   -0.444003
 C 0.5079 0.87705 0.12295   0.431849
 C 0.39914 0.86851 0.1875   -0.035046
 C 0.5855 0.9061 0.0939   -0.446382
 C 0.12295 0.87705 0.5079   0.428908
 C 0.1875 0.86851 0.39914   -0.038588
 C 0.0939 0.9061 0.5855   -0.446594
 C 0.87705 0.87705 0.4921   0.428118
 C 0.86851 0.8125 0.60086   -0.032795
 C 0.9061 0.9061 0.4145   -0.446283
 C 0.87705 0.12295 0.5079   0.427317
 C 0.8125 0.13149 0.39914   -0.038328
 C 0.9061 0.0939 0.5855   -0.445755
 C 0.12295 0.12295 0.4921   0.428096
 C 0.13149 0.1875 0.60086   -0.028688
 C 0.0939 0.0939 0.4145   -0.446004
 C 0.1875 0.13149 0.60086   -0.040547
 C 0.13149 0.8125 0.39914   -0.030911
 C 0.8125 0.86851 0.60086   -0.036415
 C 0.86851 0.1875 0.39914   -0.030614
 C 0.39914 0.1875 0.86851   -0.033826
 C 0.39914 0.8125 0.13149   -0.034886
 C 0.8125 0.60086 0.86851   -0.03732
 C 0.60086 0.1875 0.13149   -0.030771
 C 0.1875 0.39914 0.86851   -0.031795
 C 0.60086 0.8125 0.86851   -0.035314
 C 0.8125 0.39914 0.13149   -0.036356
 C 0.1875 0.60086 0.13149   -0.036259
 N 0.40973 0.96832 0.68278   -0.452256
 N 0.96832 0.59027 0.31722   -0.4542
 N 0.59027 0.03168 0.68278   -0.455636
 N 0.03168 0.40973 0.31722   -0.455621
 N 0.40973 0.03168 0.31722   -0.452271
 N 0.03168 0.59027 0.68278   -0.454291
 N 0.59027 0.96832 0.31722   -0.453832
 N 0.96832 0.40973 0.68278   -0.453793
 N 0.68278 0.40973 0.96832   -0.450364
 N 0.40973 0.31722 0.03168   -0.457644
 N 0.31722 0.59027 0.96832   -0.45004
 N 0.59027 0.68278 0.03168   -0.455978
 N 0.68278 0.59027 0.03168   -0.450327
 N 0.59027 0.31722 0.96832   -0.457698
 N 0.31722 0.40973 0.03168   -0.452235
 N 0.40973 0.68278 0.96832   -0.457998
 N 0.96832 0.68278 0.40973   -0.457415
 N 0.96832 0.31722 0.59027   -0.452534
 N 0.31722 0.03168 0.40973   -0.455492
 N 0.03168 0.68278 0.59027   -0.457166
 N 0.68278 0.96832 0.40973   -0.45037
 N 0.03168 0.31722 0.40973   -0.452377
 N 0.31722 0.96832 0.59027   -0.455571
 N 0.68278 0.03168 0.59027   -0.450392
 N 0.90973 0.46832 0.18278   -0.45591
 N 0.46832 0.09027 0.81722   -0.45423
 N 0.09027 0.53168 0.18278   -0.457361
 N 0.53168 0.90973 0.81722   -0.453443
 N 0.90973 0.53168 0.81722   -0.455647
 N 0.53168 0.09027 0.18278   -0.450173
 N 0.09027 0.46832 0.81722   -0.452707
 N 0.46832 0.90973 0.18278   -0.452439
 N 0.18278 0.90973 0.46832   -0.452133
 N 0.90973 0.81722 0.53168   -0.457831
 N 0.81722 0.09027 0.46832   -0.450084
 N 0.09027 0.18278 0.53168   -0.45621
 N 0.18278 0.09027 0.53168   -0.451909
 N 0.09027 0.81722 0.46832   -0.457819
 N 0.81722 0.90973 0.53168   -0.450197
 N 0.90973 0.18278 0.46832   -0.456131
 N 0.46832 0.18278 0.90973   -0.457201
 N 0.46832 0.81722 0.09027   -0.455518
 N 0.81722 0.53168 0.90973   -0.450488
 N 0.53168 0.18278 0.09027   -0.457844
 N 0.18278 0.46832 0.90973   -0.453504
 N 0.53168 0.81722 0.90973   -0.454734
 N 0.81722 0.46832 0.09027   -0.450334
 N 0.18278 0.53168 0.09027   -0.452234
