{'_ref': 'TBD', '_srcid': 'CAKYAQ_clean', 'submitters': [{'name': 'Dalar Nazarian Jeff Camp and David Sholl', 'email': 'dalar@gatech.edu jcamp6@gatech.edu'}], '_method': 'VASP DFT with PBE;DDEC'}
data_CoH10(C7N2)2
_symmetry_space_group_name_H-M   'P 1'
_cell_length_a   14.24861847
_cell_length_b   14.24861847
_cell_length_c   14.24861798
_cell_angle_alpha   107.24372540
_cell_angle_beta   107.24372540
_cell_angle_gamma   107.24372305
_symmetry_Int_Tables_number   1
_chemical_formula_structural   CoH10(C7N2)2
_chemical_formula_sum   'Co6 H60 C84 N24'
_cell_volume   2392.95269878
_cell_formula_units_Z   6
loop_
 _symmetry_equiv_pos_site_id
 _symmetry_equiv_pos_as_xyz
  1  'x, y, z'
loop_
 _atom_site_label
 _atom_site_fract_x
 _atom_site_fract_y
 _atom_site_fract_z
 _atom_site_charge
 Co 0.2604 0.98804 0.72931   0.845056
 Co 0.7396 0.01196 0.27069   0.845056
 Co 0.72931 0.2604 0.98804   0.845056
 Co 0.27069 0.7396 0.01196   0.845056
 Co 0.98804 0.72931 0.2604   0.845056
 Co 0.01196 0.27069 0.7396   0.845056
 H 0.495267 0.090933 0.8996   0.04948
 H 0.504733 0.909067 0.1004   0.04948
 H 0.8996 0.495267 0.090933   0.04948
 H 0.1004 0.504733 0.909067   0.04948
 H 0.090933 0.8996 0.495267   0.04948
 H 0.909067 0.1004 0.504733   0.04948
 H 0.3076 0.1309 0.5868   0.107805
 H 0.6924 0.8691 0.4132   0.107805
 H 0.5868 0.3076 0.1309   0.107805
 H 0.4132 0.6924 0.8691   0.107805
 H 0.1309 0.5868 0.3076   0.107805
 H 0.8691 0.4132 0.6924   0.107805
 H 0.4019 0.2626 0.545   0.084334
 H 0.5981 0.7374 0.455   0.084334
 H 0.545 0.4019 0.2626   0.084335
 H 0.455 0.5981 0.7374   0.084335
 H 0.2626 0.545 0.4019   0.084337
 H 0.7374 0.455 0.5981   0.084337
 H 0.2463 0.789 0.8013   0.058559
 H 0.7537 0.211 0.1987   0.058559
 H 0.8013 0.2463 0.789   0.058559
 H 0.1987 0.7537 0.211   0.058559
 H 0.789 0.8013 0.2463   0.058559
 H 0.211 0.1987 0.7537   0.058559
 H 0.3308 0.1649 0.9556   0.112371
 H 0.6692 0.8351 0.0444   0.112371
 H 0.9556 0.3308 0.1649   0.112371
 H 0.0444 0.6692 0.8351   0.112371
 H 0.1649 0.9556 0.3308   0.112371
 H 0.8351 0.0444 0.6692   0.112371
 H 0.3735 0.252 0.1378   0.093348
 H 0.6265 0.748 0.8622   0.093348
 H 0.1378 0.3735 0.252   0.093348
 H 0.8622 0.6265 0.748   0.093348
 H 0.252 0.1378 0.3735   0.093349
 H 0.748 0.8622 0.6265   0.093349
 H 0.022 0.8224 0.6571   0.119466
 H 0.978 0.1776 0.3429   0.119466
 H 0.6571 0.022 0.8224   0.119466
 H 0.3429 0.978 0.1776   0.119466
 H 0.8224 0.6571 0.022   0.119466
 H 0.1776 0.3429 0.978   0.119466
 H 0.839 0.753 0.6155   0.09438
 H 0.161 0.247 0.3845   0.09438
 H 0.6155 0.839 0.753   0.094381
 H 0.3845 0.161 0.247   0.094381
 H 0.753 0.6155 0.839   0.094383
 H 0.247 0.3845 0.161   0.094383
 H 0.3518 0.7955 0.6794   0.105838
 H 0.6482 0.2045 0.3206   0.105838
 H 0.6794 0.3518 0.7955   0.105838
 H 0.3206 0.6482 0.2045   0.105838
 H 0.7955 0.6794 0.3518   0.105837
 H 0.2045 0.3206 0.6482   0.105837
 H 0.3686 0.6435 0.5836   0.089475
 H 0.6314 0.3565 0.4164   0.089475
 H 0.5836 0.3686 0.6435   0.089486
 H 0.4164 0.6314 0.3565   0.089486
 H 0.6435 0.5836 0.3686   0.089495
 H 0.3565 0.4164 0.6314   0.089495
 C 0.495 0.125 0.8532   0.318493
 C 0.505 0.875 0.1468   0.318494
 C 0.8532 0.495 0.125   0.318493
 C 0.1468 0.505 0.875   0.318494
 C 0.125 0.8532 0.495   0.318493
 C 0.875 0.1468 0.505   0.318494
 C 0.4399 0.1677 0.7222   0.167779
 C 0.5601 0.8323 0.2778   0.167779
 C 0.7222 0.4399 0.1677   0.167779
 C 0.2778 0.5601 0.8323   0.167779
 C 0.1677 0.7222 0.4399   0.167778
 C 0.8323 0.2778 0.5601   0.167778
 C 0.381 0.1756 0.6292   -0.179483
 C 0.619 0.8244 0.3708   -0.179483
 C 0.6292 0.381 0.1756   -0.179483
 C 0.3708 0.619 0.8244   -0.179483
 C 0.1756 0.6292 0.381   -0.179482
 C 0.8244 0.3708 0.619   -0.179482
 C 0.4385 0.2531 0.6049   -0.086314
 C 0.5615 0.7469 0.3951   -0.086314
 C 0.6049 0.4385 0.2531   -0.086313
 C 0.3951 0.5615 0.7469   -0.086313
 C 0.2531 0.6049 0.4385   -0.086316
 C 0.7469 0.3951 0.5615   -0.086316
 C 0.268 0.8526 0.8612   0.325646
 C 0.732 0.1474 0.1388   0.325646
 C 0.8612 0.268 0.8526   0.325646
 C 0.1388 0.732 0.1474   0.325646
 C 0.8526 0.8612 0.268   0.325646
 C 0.1474 0.1388 0.732   0.325646
 C 0.3101 0.0188 0.958   0.171606
 C 0.6899 0.9812 0.042   0.171606
 C 0.958 0.3101 0.0188   0.171606
 C 0.042 0.6899 0.9812   0.171606
 C 0.0188 0.958 0.3101   0.171607
 C 0.9812 0.042 0.6899   0.171607
 C 0.333 0.1276 0.9994   -0.180856
 C 0.667 0.8724 0.000599999999999   -0.180856
 C 0.9994 0.333 0.1276   -0.180856
 C 0.000599999999999 0.667 0.8724   -0.180856
 C 0.1276 0.9994 0.333   -0.180856
 C 0.8724 0.000599999999999 0.667   -0.180856
 C 0.3591 0.1789 0.1077   -0.082505
 C 0.6409 0.8211 0.8923   -0.082505
 C 0.1077 0.3591 0.1789   -0.082505
 C 0.8923 0.6409 0.8211   -0.082505
 C 0.1789 0.1077 0.3591   -0.082505
 C 0.8211 0.8923 0.6409   -0.082505
 C 0.037 0.9761 0.6852   0.158682
 C 0.963 0.0239 0.3148   0.158682
 C 0.6852 0.037 0.9761   0.158683
 C 0.3148 0.963 0.0239   0.158683
 C 0.9761 0.6852 0.037   0.158683
 C 0.0239 0.3148 0.963   0.158683
 C 0.9852 0.8664 0.6589   -0.178727
 C 0.0148 0.1336 0.3411   -0.178727
 C 0.6589 0.9852 0.8664   -0.178726
 C 0.3411 0.0148 0.1336   -0.178726
 C 0.8664 0.6589 0.9852   -0.178726
 C 0.1336 0.3411 0.0148   -0.178726
 C 0.8766 0.8265 0.6355   -0.094008
 C 0.1234 0.1735 0.3645   -0.094008
 C 0.6355 0.8766 0.8265   -0.094009
 C 0.3645 0.1234 0.1735   -0.094009
 C 0.8265 0.6355 0.8766   -0.094009
 C 0.1735 0.3645 0.1234   -0.094009
 C 0.231 0.7823 0.5506   0.17214
 C 0.769 0.2177 0.4494   0.17214
 C 0.5506 0.231 0.7823   0.17214
 C 0.4494 0.769 0.2177   0.17214
 C 0.7823 0.5506 0.231   0.172139
 C 0.2177 0.4494 0.769   0.172139
 C 0.308 0.7546 0.6057   -0.179386
 C 0.692 0.2454 0.3943   -0.179386
 C 0.6057 0.308 0.7546   -0.179384
 C 0.3943 0.692 0.2454   -0.179384
 C 0.7546 0.6057 0.308   -0.179383
 C 0.2454 0.3943 0.692   -0.179383
 C 0.318 0.6645 0.5484   -0.090548
 C 0.682 0.3355 0.4516   -0.090548
 C 0.5484 0.318 0.6645   -0.090553
 C 0.4516 0.682 0.3355   -0.090553
 C 0.6645 0.5484 0.318   -0.090556
 C 0.3355 0.4516 0.682   -0.090556
 N 0.4047 0.0987 0.7685   -0.500113
 N 0.5953 0.9013 0.2315   -0.500113
 N 0.7685 0.4047 0.0987   -0.500113
 N 0.2315 0.5953 0.9013   -0.500113
 N 0.0987 0.7685 0.4047   -0.500113
 N 0.9013 0.2315 0.5953   -0.500113
 N 0.2813 0.9464 0.8534   -0.508139
 N 0.7187 0.0536 0.1466   -0.508139
 N 0.8534 0.2813 0.9464   -0.508139
 N 0.1466 0.7187 0.0536   -0.508139
 N 0.9464 0.8534 0.2813   -0.508139
 N 0.0536 0.1466 0.7187   -0.508139
 N 0.1452 0.0416 0.7128   -0.495532
 N 0.8548 0.9584 0.2872   -0.495532
 N 0.7128 0.1452 0.0416   -0.495532
 N 0.2872 0.8548 0.9584   -0.495532
 N 0.0416 0.7128 0.1452   -0.495532
 N 0.9584 0.2872 0.8548   -0.495532
 N 0.2031 0.8676 0.5847   -0.498859
 N 0.7969 0.1324 0.4153   -0.498859
 N 0.5847 0.2031 0.8676   -0.498859
 N 0.4153 0.7969 0.1324   -0.498859
 N 0.8676 0.5847 0.2031   -0.498859
 N 0.1324 0.4153 0.7969   -0.498859
