{'_ref': 'TBD', '_srcid': 'CAKYAQ_clean', 'submitters': [{'name': 'Dalar Nazarian Jeff Camp and David Sholl', 'email': 'dalar@gatech.edu jcamp6@gatech.edu'}], '_method': 'VASP DFT with PBE;DDEC'}
data_Li3CoH21C14N8O3
_symmetry_space_group_name_H-M   'P 1'
_cell_length_a   8.11800045
_cell_length_b   11.56799955
_cell_length_c   14.24400000
_cell_angle_alpha   94.64000066
_cell_angle_beta   97.44000223
_cell_angle_gamma   102.99999815
_symmetry_Int_Tables_number   1
_chemical_formula_structural   Li3CoH21C14N8O3
_chemical_formula_sum   'Li6 Co2 H42 C28 N16 O6'
_cell_volume   1283.97658254
_cell_formula_units_Z   2
loop_
 _symmetry_equiv_pos_site_id
 _symmetry_equiv_pos_as_xyz
  1  'x, y, z'
loop_
 _atom_site_label
 _atom_site_fract_x
 _atom_site_fract_y
 _atom_site_fract_z
 _atom_site_charge
 Li 0.461 0.921 0.414   0.851064
 Li 0.842 0.413 0.228   0.926077
 Li 0.931 0.239 0.106   0.860639
 Li 0.539 0.079 0.586   0.85107
 Li 0.158 0.587 0.772   0.926079
 Li 0.069 0.761 0.894   0.860639
 Co 0.8869 0.8329 0.2057   -0.378269
 Co 0.1131 0.1671 0.7943   -0.37827
 H 0.6649 0.1122 0.1934   0.034831
 H 0.369 0.9923 0.1949   0.107694
 H 0.2574 0.9829 0.0963   0.130459
 H 0.431 0.9467 0.1034   0.101405
 H 0.4297 0.2067 0.0115   0.098575
 H 0.2585 0.1454 0.0431   0.119102
 H 0.3737 0.2605 0.102   0.091745
 H 0.361 0.1132 0.3361   0.036032
 H 0.5868 0.425 0.4818   0.091458
 H 0.5335 0.3205 0.5418   0.109833
 H 0.689 0.3268 0.4879   0.111798
 H 0.4195 0.3237 0.2713   0.090353
 H 0.2651 0.316 0.3263   0.111581
 H 0.423 0.4233 0.3518   0.102212
 H 0.1354 0.4222 0.0425   0.05052
 H 0.3657 0.6818 0.2293   0.121675
 H 0.1724 0.6331 0.2326   0.115048
 H 0.3029 0.5609 0.2685   0.091497
 H 0.4302 0.5709 0.0483   0.106068
 H 0.2936 0.6427 0.0232   0.103237
 H 0.4358 0.6886 0.1105   0.121512
 H 0.3351 0.8878 0.8066   0.034831
 H 0.631 0.0077 0.8051   0.107694
 H 0.7426 0.0171 0.9037   0.130459
 H 0.569 0.0533 0.8966   0.101405
 H 0.5703 0.7933 0.9885   0.098576
 H 0.7415 0.8546 0.9569   0.119102
 H 0.6263 0.7395 0.898   0.091746
 H 0.639 0.8868 0.6639   0.036032
 H 0.4132 0.575 0.5182   0.091459
 H 0.4665 0.6795 0.4582   0.109834
 H 0.311 0.6732 0.5121   0.111798
 H 0.5805 0.6763 0.7287   0.090353
 H 0.7349 0.684 0.6737   0.111581
 H 0.577 0.5767 0.6482   0.102212
 H 0.8646 0.5778 0.9575   0.05052
 H 0.6343 0.3182 0.7707   0.121675
 H 0.8276 0.3669 0.7674   0.115048
 H 0.6971 0.4391 0.7315   0.091497
 H 0.5698 0.4291 0.9517   0.106072
 H 0.7064 0.3573 0.9768   0.103237
 H 0.5642 0.3114 0.8895   0.121513
 C 0.933 0.999 0.1846   0.234305
 C 0.986 0.8 0.099   0.238813
 C 0.814 0.665 0.211   0.276376
 C 0.738 0.863 0.2932   0.21013
 C 0.101 0.857 0.298   0.204988
 C 0.614 0.164 0.157   0.419947
 C 0.371 0.0 0.129   -0.203174
 C 0.373 0.188 0.065   -0.196419
 C 0.435 0.155 0.392   0.461314
 C 0.579 0.342 0.486   -0.168583
 C 0.386 0.34 0.332   -0.172324
 C 0.144 0.458 0.106   0.403973
 C 0.276 0.612 0.223   -0.201228
 C 0.363 0.62 0.074   -0.21255
 C 0.067 0.000999999999998 0.8154   0.234306
 C 0.014 0.2 0.901   0.238813
 C 0.186 0.335 0.789   0.276376
 C 0.262 0.137 0.7068   0.21013
 C 0.899 0.143 0.702   0.204988
 C 0.386 0.836 0.843   0.419947
 C 0.629 0.0 0.871   -0.203175
 C 0.627 0.812 0.935   -0.196419
 C 0.565 0.845 0.608   0.461314
 C 0.421 0.658 0.514   -0.168584
 C 0.614 0.66 0.668   -0.172324
 C 0.856 0.542 0.894   0.403973
 C 0.724 0.388 0.777   -0.201228
 C 0.637 0.38 0.926   -0.212552
 N 0.966 0.098 0.1695   -0.65466
 N 0.039 0.778 0.0294   -0.661995
 N 0.772 0.564 0.2134   -0.742282
 N 0.643 0.881 0.3435   -0.623547
 N 0.228 0.868 0.3463   -0.64845
 N 0.456 0.121 0.119   0.001335
 N 0.466 0.273 0.4026   -0.113369
 N 0.256 0.553 0.1333   0.054877
 N 0.034 0.902 0.8305   -0.65466
 N 0.961 0.222 0.9706   -0.661995
 N 0.228 0.436 0.7866   -0.742282
 N 0.357 0.119 0.6565   -0.623548
 N 0.772 0.132 0.6537   -0.648452
 N 0.544 0.879 0.881   0.001335
 N 0.534 0.727 0.5974   -0.113369
 N 0.744 0.447 0.8667   0.054878
 O 0.707 0.2624 0.1527   -0.754443
 O 0.494 0.0972 0.4485   -0.653745
 O 0.04 0.406 0.1615   -0.805439
 O 0.293 0.7376 0.8473   -0.754444
 O 0.506 0.9028 0.5515   -0.653745
 O 0.96 0.594 0.8385   -0.805439
