{'_ref': 'TBD', '_srcid': 'CAKYAQ_clean', 'submitters': [{'name': 'Dalar Nazarian Jeff Camp and David Sholl', 'email': 'dalar@gatech.edu jcamp6@gatech.edu'}], '_method': 'VASP DFT with PBE;DDEC'}
data_Cu2H15C24NO8
_symmetry_space_group_name_H-M   'P 1'
_cell_length_a   11.42689954
_cell_length_b   11.42690048
_cell_length_c   18.87310000
_cell_angle_alpha   94.75840174
_cell_angle_beta   94.75840214
_cell_angle_gamma   96.72190069
_symmetry_Int_Tables_number   1
_chemical_formula_structural   Cu2H15C24NO8
_chemical_formula_sum   'Cu4 H30 C48 N2 O16'
_cell_volume   2428.24795397
_cell_formula_units_Z   2
loop_
 _symmetry_equiv_pos_site_id
 _symmetry_equiv_pos_as_xyz
  1  'x, y, z'
loop_
 _atom_site_label
 _atom_site_fract_x
 _atom_site_fract_y
 _atom_site_fract_z
 _atom_site_charge
 Cu 0.97181 0.0955 0.47205   0.882648
 Cu 0.9045 0.02819 0.02795   0.882648
 Cu 0.02819 0.9045 0.52795   0.882643
 Cu 0.0955 0.97181 0.97205   0.882643
 H 0.7706 0.215 0.6417   0.114856
 H 0.3058 0.3242 0.5307   0.108292
 H 0.4844 0.4256 0.5859   0.114005
 H 0.5299 0.1499 0.7017   0.110177
 H 0.6251 0.4493 0.6975   0.100413
 H 0.6994 0.3658 0.6515   0.107191
 H 0.3541 0.0469 0.6456   0.110818
 H 0.785 0.2294 0.8583   0.114856
 H 0.6758 0.6942 0.9693   0.108292
 H 0.5744 0.5156 0.9141   0.114005
 H 0.8501 0.4701 0.7983   0.110178
 H 0.5507 0.3749 0.8025   0.100417
 H 0.6342 0.3006 0.8485   0.107192
 H 0.9531 0.6459 0.8544   0.110818
 H 0.2294 0.785 0.3583   0.114856
 H 0.6942 0.6758 0.4693   0.108298
 H 0.5156 0.5744 0.4141   0.114013
 H 0.4701 0.8501 0.2983   0.110177
 H 0.3749 0.5507 0.3025   0.100414
 H 0.3006 0.6342 0.3485   0.107192
 H 0.6459 0.9531 0.3544   0.110818
 H 0.215 0.7706 0.1417   0.114856
 H 0.3242 0.3058 0.0307   0.108297
 H 0.4256 0.4844 0.0859   0.114013
 H 0.1499 0.5299 0.2017   0.110178
 H 0.4493 0.6251 0.1975   0.100418
 H 0.3658 0.6994 0.1515   0.107193
 H 0.0469 0.3541 0.1456   0.110818
 H 0.9836 0.0164 0.75   0.122837
 H 0.0164 0.9836 0.25   0.122837
 C 0.80062 0.19068 0.6858   -0.170942
 C 0.88149 0.10947 0.686   -0.067138
 C 0.19727 0.10959 0.54992   0.67832
 C 0.52389 0.29779 0.64991   0.070776
 C 0.31135 0.17607 0.58353   -0.142449
 C 0.35104 0.28852 0.56552   -0.026174
 C 0.45734 0.34904 0.59854   -0.177159
 C 0.48461 0.18559 0.66696   -0.169031
 C 0.63809 0.36605 0.68569   -0.086234
 C 0.37958 0.12446 0.63386   -0.017462
 C 0.9217 0.06366 0.61677   0.676569
 C 0.80932 0.19938 0.8142   -0.170941
 C 0.89053 0.11851 0.814   -0.067138
 C 0.89041 0.80273 0.95008   0.67832
 C 0.70221 0.47611 0.85009   0.070777
 C 0.82393 0.68865 0.91647   -0.14245
 C 0.71148 0.64896 0.93448   -0.026172
 C 0.65096 0.54266 0.90146   -0.17716
 C 0.81441 0.51539 0.83304   -0.169031
 C 0.63395 0.36191 0.81431   -0.086235
 C 0.87554 0.62042 0.86614   -0.017462
 C 0.93634 0.0783 0.88323   0.676569
 C 0.19938 0.80932 0.3142   -0.170941
 C 0.11851 0.89053 0.314   -0.067138
 C 0.80273 0.89041 0.45008   0.678321
 C 0.47611 0.70221 0.35009   0.070777
 C 0.68865 0.82393 0.41647   -0.142447
 C 0.64896 0.71148 0.43448   -0.026174
 C 0.54266 0.65096 0.40146   -0.177161
 C 0.51539 0.81441 0.33304   -0.169031
 C 0.36191 0.63395 0.31431   -0.086235
 C 0.62042 0.87554 0.36614   -0.017459
 C 0.0783 0.93634 0.38323   0.67657
 C 0.19068 0.80062 0.1858   -0.170941
 C 0.10947 0.88149 0.186   -0.067138
 C 0.10959 0.19727 0.04992   0.678321
 C 0.29779 0.52389 0.14991   0.070778
 C 0.17607 0.31135 0.08353   -0.142448
 C 0.28852 0.35104 0.06552   -0.026172
 C 0.34904 0.45734 0.09854   -0.177162
 C 0.18559 0.48461 0.16696   -0.169031
 C 0.36605 0.63809 0.18569   -0.086237
 C 0.12446 0.37958 0.13386   -0.017458
 C 0.06366 0.9217 0.11677   0.67657
 C 0.76216 0.23784 0.75   0.135105
 C 0.92797 0.07203 0.75   -0.097982
 C 0.23784 0.76216 0.25   0.135104
 C 0.07203 0.92797 0.25   -0.097982
 N 0.6814 0.3186 0.75   -0.078086
 N 0.3186 0.6814 0.25   -0.078086
 O 0.91231 0.12765 0.56597   -0.570487
 O 0.13085 0.16683 0.5126   -0.570254
 O 0.17632 0.00316 0.56135   -0.561921
 O 0.96285 0.96631 0.61469   -0.55576
 O 0.87235 0.08769 0.93403   -0.570487
 O 0.83317 0.86915 0.9874   -0.570254
 O 0.99684 0.82368 0.93865   -0.561921
 O 0.03369 0.03715 0.88531   -0.55576
 O 0.08769 0.87235 0.43403   -0.570487
 O 0.86915 0.83317 0.4874   -0.570255
 O 0.82368 0.99684 0.43865   -0.561922
 O 0.03715 0.03369 0.38531   -0.555761
 O 0.12765 0.91231 0.06597   -0.570487
 O 0.16683 0.13085 0.0126   -0.570255
 O 0.00316 0.17632 0.06135   -0.561922
 O 0.96631 0.96285 0.11469   -0.555761
