{'_ref': 'TBD', '_srcid': 'CAKYAQ_clean', 'submitters': [{'name': 'Dalar Nazarian Jeff Camp and David Sholl', 'email': 'dalar@gatech.edu jcamp6@gatech.edu'}], '_method': 'VASP DFT with PBE;DDEC'}
data_Ce2H11C20(NO6)3
_symmetry_space_group_name_H-M   'P 1'
_cell_length_a   11.79920056
_cell_length_b   11.86059980
_cell_length_c   13.63010000
_cell_angle_alpha   95.26300074
_cell_angle_beta   108.54700108
_cell_angle_gamma   108.08100118
_symmetry_Int_Tables_number   1
_chemical_formula_structural   Ce2H11C20(NO6)3
_chemical_formula_sum   'Ce4 H22 C40 N6 O36'
_cell_volume   1680.28156831
_cell_formula_units_Z   2
loop_
 _symmetry_equiv_pos_site_id
 _symmetry_equiv_pos_as_xyz
  1  'x, y, z'
loop_
 _atom_site_label
 _atom_site_fract_x
 _atom_site_fract_y
 _atom_site_fract_z
 _atom_site_charge
 Ce 0.00139 0.9978 0.7498   2.142929
 Ce 0.37253 0.35864 0.61235   1.950571
 Ce 0.99861 0.0022 0.2502   2.142929
 Ce 0.62747 0.64136 0.38765   1.950572
 H 0.6192 0.1952 0.6937   0.109037
 H 0.469 0.8331 0.584   0.114541
 H 0.5337 0.1699 0.8637   0.132691
 H 0.3966 0.8156 0.8697   0.130047
 H 0.2321 0.9254 0.5121   0.416585
 H 0.7057 0.8975 0.9541   0.412683
 H 0.1309 0.5033 0.3995   0.146785
 H 0.1683 0.3886 0.3843   0.10001
 H 0.4433 0.608 0.5333   0.404707
 H 0.159 0.419 0.223   0.307328
 H 0.127 0.517 0.232   0.297626
 H 0.3808 0.8048 0.3063   0.109037
 H 0.531 0.1669 0.416   0.114541
 H 0.4663 0.8301 0.1363   0.132692
 H 0.6034 0.1844 0.1303   0.130048
 H 0.7679 0.0746 0.4879   0.416585
 H 0.2943 0.1025 0.0459   0.412683
 H 0.8691 0.4967 0.6005   0.146786
 H 0.8317 0.6114 0.6157   0.10001
 H 0.5567 0.392 0.4667   0.404707
 H 0.841 0.581 0.777   0.307328
 H 0.873 0.483 0.768   0.297626
 C 0.7481 0.1105 0.71523   0.151297
 C 0.6281 0.1204 0.68231   -0.042229
 C 0.5222 0.0152 0.63184   -0.142697
 C 0.5391 0.9051 0.61514   -0.077013
 C 0.663 0.905 0.646   0.095384
 C 0.8696 0.2171 0.77721   0.604345
 C 0.3912 0.0234 0.5921   0.715675
 C 0.6953 0.7946 0.62085   0.662412
 C 0.341 0.096 0.82179   0.109376
 C 0.466 0.0988 0.85472   -0.083284
 C 0.4876 0.993 0.8739   -0.10072
 C 0.3847 0.8882 0.85929   -0.087119
 C 0.263 0.8949 0.8286   0.136348
 C 0.304 0.2022 0.79193   0.674639
 C 0.6238 0.9973 0.91392   0.606593
 C 0.1437 0.789 0.81363   0.61153
 C 0.0692 0.0462 0.02386   0.578645
 C 0.0417 0.9604 0.50853   0.517822
 C 0.3161 0.5472 0.4091   0.737005
 C 0.1772 0.4676 0.3668   -0.172067
 C 0.2519 0.8895 0.28477   0.151297
 C 0.3719 0.8796 0.31769   -0.042229
 C 0.4778 0.9848 0.36816   -0.142698
 C 0.4609 0.0949 0.38486   -0.077013
 C 0.337 0.095 0.354   0.095384
 C 0.1304 0.7829 0.22279   0.604346
 C 0.6088 0.9766 0.4079   0.715675
 C 0.3047 0.2054 0.37915   0.662412
 C 0.659 0.904 0.17821   0.109377
 C 0.534 0.9012 0.14528   -0.083285
 C 0.5124 0.007 0.1261   -0.10072
 C 0.6153 0.1118 0.14071   -0.08712
 C 0.737 0.1051 0.1714   0.136348
 C 0.696 0.7978 0.20807   0.674639
 C 0.3762 0.0027 0.08608   0.606593
 C 0.8563 0.211 0.18637   0.61153
 C 0.9308 0.9538 0.97614   0.578646
 C 0.9583 0.0396 0.49147   0.517823
 C 0.6839 0.4528 0.5909   0.737005
 C 0.8228 0.5324 0.6332   -0.172067
 N 0.76529 0.0061 0.69559   -0.36376
 N 0.24206 0.99663 0.81087   -0.382506
 N 0.1224 0.4533 0.2513   -0.498728
 N 0.23471 0.9939 0.30441   -0.36376
 N 0.75794 0.00337 0.18913   -0.382506
 N 0.8776 0.5467 0.7487   -0.498727
 O 0.97146 0.19405 0.8064   -0.630005
 O 0.86206 0.31774 0.79852   -0.531322
 O 0.3023 0.9182 0.5325   -0.494787
 O 0.37323 0.11745 0.59987   -0.649043
 O 0.60704 0.69379 0.58055   -0.7352
 O 0.81129 0.81277 0.63949   -0.642569
 O 0.18645 0.18515 0.75972   -0.655773
 O 0.38938 0.29929 0.79795   -0.695334
 O 0.63057 0.89201 0.93243   -0.523156
 O 0.71394 0.08856 0.92992   -0.444957
 O 0.15311 0.68762 0.82109   -0.479376
 O 0.04216 0.80995 0.79442   -0.637699
 O 0.12415 0.07717 0.95997   -0.634293
 O 0.11602 0.08231 0.12216   -0.634028
 O 0.06959 0.92908 0.59519   -0.636029
 O 0.0761 0.93507 0.43381   -0.649164
 O 0.36759 0.56417 0.51282   -0.650332
 O 0.37202 0.58897 0.3537   -0.593424
 O 0.02854 0.80595 0.1936   -0.630005
 O 0.13794 0.68226 0.20148   -0.531323
 O 0.6977 0.0818 0.4675   -0.494787
 O 0.62677 0.88255 0.40013   -0.649043
 O 0.39296 0.30621 0.41945   -0.7352
 O 0.18871 0.18723 0.36051   -0.642569
 O 0.81355 0.81485 0.24028   -0.655773
 O 0.61062 0.70071 0.20205   -0.695333
 O 0.36943 0.10799 0.06757   -0.523156
 O 0.28606 0.91144 0.07008   -0.444957
 O 0.84689 0.31238 0.17891   -0.479376
 O 0.95784 0.19005 0.20558   -0.637698
 O 0.87585 0.92283 0.04003   -0.634293
 O 0.88398 0.91769 0.87784   -0.634028
 O 0.93041 0.07092 0.40481   -0.636029
 O 0.9239 0.06493 0.56619   -0.649164
 O 0.63241 0.43583 0.48718   -0.650332
 O 0.62798 0.41103 0.6463   -0.593424
