{'_ref': 'TBD', '_srcid': 'CAKYAQ_clean', 'submitters': [{'name': 'Dalar Nazarian Jeff Camp and David Sholl', 'email': 'dalar@gatech.edu jcamp6@gatech.edu'}], '_method': 'VASP DFT with PBE;DDEC'}
data_ZnH4(C2O)4
_symmetry_space_group_name_H-M   'P 1'
_cell_length_a   6.72300042
_cell_length_b   12.43500000
_cell_length_c   15.48100000
_cell_angle_alpha   90.00000000
_cell_angle_beta   90.00000000
_cell_angle_gamma   102.82499945
_symmetry_Int_Tables_number   1
_chemical_formula_structural   ZnH4(C2O)4
_chemical_formula_sum   'Zn4 H16 C32 O16'
_cell_volume   1261.93207966
_cell_formula_units_Z   4
loop_
 _symmetry_equiv_pos_site_id
 _symmetry_equiv_pos_as_xyz
  1  'x, y, z'
loop_
 _atom_site_label
 _atom_site_fract_x
 _atom_site_fract_y
 _atom_site_fract_z
 _atom_site_charge
 Zn 0.20028 0.07717 0.00508   1.171406
 Zn 0.29972 0.42283 0.50508   1.171406
 Zn 0.79972 0.92283 0.99492   1.171406
 Zn 0.70028 0.57717 0.49492   1.171406
 H 0.0771 0.264 0.2278   0.105182
 H 0.4229 0.236 0.7278   0.105182
 H 0.9229 0.736 0.7722   0.105182
 H 0.5771 0.764 0.2722   0.105182
 H 0.963 0.3686 0.3306   0.099457
 H 0.537 0.1314 0.8306   0.099457
 H 0.037 0.6314 0.6694   0.099457
 H 0.463 0.8686 0.1694   0.099457
 H 0.3971 0.1818 0.3055   0.108264
 H 0.1029 0.3182 0.8055   0.108264
 H 0.6029 0.8182 0.6945   0.108264
 H 0.8971 0.6818 0.1945   0.108264
 H 0.5109 0.0796 0.1999   0.102181
 H 0.9891 0.4204 0.6999   0.102181
 H 0.4891 0.9204 0.8001   0.102181
 H 0.0109 0.5796 0.3001   0.102181
 C 0.8799 0.101 0.12906   0.732325
 C 0.6201 0.399 0.62906   0.732325
 C 0.1201 0.899 0.87094   0.732325
 C 0.3799 0.601 0.37094   0.732325
 C 0.8054 0.1624 0.20112   -0.135911
 C 0.6946 0.3376 0.70112   -0.135911
 C 0.1946 0.8376 0.79888   -0.135911
 C 0.3054 0.6624 0.29888   -0.135911
 C 0.9395 0.2484 0.2424   -0.046836
 C 0.5605 0.2516 0.7424   -0.046836
 C 0.0605 0.7516 0.7576   -0.046836
 C 0.4395 0.7484 0.2576   -0.046836
 C 0.8717 0.3106 0.3044   -0.053919
 C 0.6283 0.1894 0.8044   -0.053919
 C 0.1283 0.6894 0.6956   -0.053919
 C 0.3717 0.8106 0.1956   -0.053919
 C 0.6672 0.2873 0.32845   -0.135503
 C 0.8328 0.2127 0.82845   -0.135503
 C 0.3328 0.7127 0.67155   -0.135503
 C 0.1672 0.7873 0.17155   -0.135503
 C 0.5336 0.1994 0.2891   -0.050649
 C 0.9664 0.3006 0.7891   -0.050649
 C 0.4664 0.8006 0.7109   -0.050649
 C 0.0336 0.6994 0.2109   -0.050649
 C 0.6019 0.1378 0.2259   -0.059492
 C 0.8981 0.3622 0.7259   -0.059492
 C 0.3981 0.8622 0.7741   -0.059492
 C 0.1019 0.6378 0.2741   -0.059492
 C 0.592 0.357 0.3944   0.733461
 C 0.908 0.143 0.8944   0.733461
 C 0.408 0.643 0.6056   0.733461
 C 0.092 0.857 0.1056   0.733461
 O 0.0605 0.1332 0.10507   -0.642859
 O 0.4395 0.3668 0.60507   -0.642859
 O 0.9395 0.8668 0.89493   -0.642859
 O 0.5605 0.6332 0.39493   -0.642859
 O 0.7566 0.02082 0.09709   -0.637545
 O 0.7434 0.47918 0.59709   -0.637545
 O 0.2434 0.97918 0.90291   -0.637545
 O 0.2566 0.52082 0.40291   -0.637545
 O 0.7158 0.44117 0.42057   -0.661508
 O 0.7842 0.05883 0.92057   -0.661508
 O 0.2842 0.55883 0.57943   -0.661508
 O 0.2158 0.94117 0.07943   -0.661508
 O 0.4124 0.3278 0.42002   -0.628055
 O 0.0876 0.1722 0.92002   -0.628055
 O 0.5876 0.6722 0.57998   -0.628055
 O 0.9124 0.8278 0.07998   -0.628055
