{'_ref': 'TBD', '_srcid': 'CAKYAQ_clean', 'submitters': [{'name': 'Dalar Nazarian Jeff Camp and David Sholl', 'email': 'dalar@gatech.edu jcamp6@gatech.edu'}], '_method': 'VASP DFT with PBE;DDEC'}
data_ZnH7C5NO4
_symmetry_space_group_name_H-M   'P 1'
_cell_length_a   7.17700000
_cell_length_b   10.39600000
_cell_length_c   11.12100000
_cell_angle_alpha   90.00000000
_cell_angle_beta   90.00000000
_cell_angle_gamma   90.00000000
_symmetry_Int_Tables_number   1
_chemical_formula_structural   ZnH7C5NO4
_chemical_formula_sum   'Zn4 H28 C20 N4 O16'
_cell_volume   829.761075132
_cell_formula_units_Z   4
loop_
 _symmetry_equiv_pos_site_id
 _symmetry_equiv_pos_as_xyz
  1  'x, y, z'
loop_
 _atom_site_label
 _atom_site_fract_x
 _atom_site_fract_y
 _atom_site_fract_z
 _atom_site_charge
 Zn 0.37744 0.07091 0.04091   0.910902
 Zn 0.12256 0.92909 0.54091   0.910902
 Zn 0.62256 0.57091 0.45909   0.910902
 Zn 0.87744 0.42909 0.95909   0.910902
 H 0.7879 0.1236 0.8194   0.129952
 H 0.6519 0.0032 0.802   0.12283
 H 0.6203 0.2403 0.6743   0.096248
 H 0.4877 0.1192 0.6513   0.085009
 H 0.3416 0.2771 0.7723   0.10293
 H 0.313 0.041 0.816   0.32625
 H 0.199 0.129 0.866   0.325314
 H 0.7121 0.8764 0.3194   0.129952
 H 0.8481 0.9968 0.302   0.12283
 H 0.8797 0.7597 0.1743   0.096248
 H 0.0123 0.8808 0.1513   0.085009
 H 0.1584 0.7229 0.2723   0.10293
 H 0.187 0.959 0.316   0.32625
 H 0.301 0.871 0.366   0.325314
 H 0.2121 0.6236 0.6806   0.129952
 H 0.3481 0.5032 0.698   0.12283
 H 0.3797 0.7403 0.8257   0.096249
 H 0.5123 0.6192 0.8487   0.085009
 H 0.6584 0.7771 0.7277   0.102929
 H 0.687 0.541 0.684   0.32625
 H 0.801 0.629 0.634   0.325314
 H 0.2879 0.3764 0.1806   0.129952
 H 0.1519 0.4968 0.198   0.12283
 H 0.1203 0.2597 0.3257   0.096249
 H 0.9877 0.3808 0.3487   0.085009
 H 0.8416 0.2229 0.2277   0.102929
 H 0.813 0.459 0.184   0.32625
 H 0.699 0.371 0.134   0.325314
 C 0.8378 0.0246 0.66171   0.691186
 C 0.7112 0.0765 0.75991   -0.316428
 C 0.5606 0.1652 0.71338   -0.134419
 C 0.5365 0.2826 0.90942   0.638543
 C 0.428 0.2134 0.81014   0.04355
 C 0.6622 0.9754 0.16171   0.691186
 C 0.7888 0.9235 0.25991   -0.316428
 C 0.9394 0.8348 0.21338   -0.134419
 C 0.9635 0.7174 0.40942   0.638543
 C 0.072 0.7866 0.31014   0.04355
 C 0.1622 0.5246 0.83829   0.691186
 C 0.2888 0.5765 0.74009   -0.316428
 C 0.4394 0.6652 0.78662   -0.134419
 C 0.4635 0.7826 0.59058   0.638543
 C 0.572 0.7134 0.68986   0.04355
 C 0.3378 0.4754 0.33829   0.691186
 C 0.2112 0.4235 0.24009   -0.316428
 C 0.0606 0.3348 0.28662   -0.134419
 C 0.0365 0.2174 0.09058   0.638543
 C 0.928 0.2866 0.18986   0.04355
 N 0.3144 0.10852 0.86095   -0.655336
 N 0.1856 0.89148 0.36095   -0.655336
 N 0.6856 0.60852 0.63905   -0.655336
 N 0.8144 0.39148 0.13905   -0.655336
 O 0.9839 0.96448 0.69676   -0.611231
 O 0.8024 0.03898 0.55321   -0.607762
 O 0.5204 0.24491 0.01569   -0.557103
 O 0.64 0.373 0.87486   -0.590434
 O 0.5161 0.03552 0.19676   -0.611232
 O 0.6976 0.96102 0.05321   -0.607763
 O 0.9796 0.75509 0.51569   -0.557103
 O 0.86 0.627 0.37486   -0.590434
 O 0.0161 0.46448 0.80324   -0.611231
 O 0.1976 0.53898 0.94679   -0.607762
 O 0.4796 0.74491 0.48431   -0.557103
 O 0.36 0.873 0.62514   -0.590434
 O 0.4839 0.53552 0.30324   -0.611232
 O 0.3024 0.46102 0.44679   -0.607763
 O 0.0204 0.25509 0.98431   -0.557103
 O 0.14 0.127 0.12514   -0.590434
