{'_ref': 'TBD', '_srcid': 'CAKYAQ_clean', 'submitters': [{'name': 'Dalar Nazarian Jeff Camp and David Sholl', 'email': 'dalar@gatech.edu jcamp6@gatech.edu'}], '_method': 'VASP DFT with PBE;DDEC'}
data_CoH8C12(NO2)2
_symmetry_space_group_name_H-M   'P 1'
_cell_length_a   9.80640000
_cell_length_b   10.66850046
_cell_length_c   13.97111424
_cell_angle_alpha   84.69760361
_cell_angle_beta   69.45493869
_cell_angle_gamma   74.73289894
_symmetry_Int_Tables_number   1
_chemical_formula_structural   CoH8C12(NO2)2
_chemical_formula_sum   'Co4 H32 C48 N8 O16'
_cell_volume   1320.38330825
_cell_formula_units_Z   4
loop_
 _symmetry_equiv_pos_site_id
 _symmetry_equiv_pos_as_xyz
  1  'x, y, z'
loop_
 _atom_site_label
 _atom_site_fract_x
 _atom_site_fract_y
 _atom_site_fract_z
 _atom_site_charge
 Co 0.37361 0.88012 0.24882   1.019811
 Co 0.12696 0.38395 0.74792   1.025431
 Co 0.62243 0.38012 0.75118   1.018569
 Co 0.87488 0.88395 0.25208   1.025348
 H 0.7072 0.7673 0.1258   0.065572
 H 0.8594 0.6398 0.9834   0.106371
 H 0.4824 0.6146 0.9356   0.11225
 H 0.3423 0.742 0.0808   0.063131
 H 0.3425 0.4907 0.5622   0.071017
 H 0.3464 0.6119 0.4152   0.121054
 H 0.9013 0.6369 0.4894   0.114035
 H 0.9117 0.511 0.6336   0.070471
 H 0.1978 0.1669 0.3084   0.089344
 H 0.0536 0.2963 0.4512   0.119234
 H 0.1139 0.9827 0.6296   0.131161
 H 0.2443 0.8581 0.4846   0.067164
 H 0.9927 0.4065 0.9862   0.067786
 H 0.9807 0.2822 0.1326   0.134633
 H 0.2714 0.9802 0.9526   0.125058
 H 0.2564 0.1074 0.8112   0.08621
 H 0.833 0.2673 0.8742   0.064855
 H 0.8428 0.1398 0.0166   0.107263
 H 0.418 0.1146 0.0644   0.111394
 H 0.4231 0.242 0.9192   0.063785
 H 0.9047 0.9907 0.4378   0.070954
 H 0.7616 0.1119 0.5848   0.118542
 H 0.3907 0.1369 0.5106   0.112053
 H 0.5453 0.011 0.3664   0.070814
 H 0.5062 0.6669 0.6916   0.088564
 H 0.5048 0.7963 0.5488   0.119536
 H 0.7435 0.4827 0.3704   0.131939
 H 0.7289 0.3581 0.5154   0.068106
 H 0.9789 0.9065 0.0138   0.067543
 H 0.1133 0.7822 0.8674   0.134354
 H 0.224 0.4802 0.0474   0.12463
 H 0.0676 0.6074 0.1888   0.085311
 C 0.66122 0.7353 0.08696   0.156775
 C 0.75319 0.6602 0.00142   -0.155452
 C 0.68715 0.6152 0.9423   -0.038626
 C 0.53139 0.6451 0.97322   -0.145553
 C 0.44881 0.7206 0.06038   0.151452
 C 0.784 0.5335 0.8478   0.664157
 C 0.25209 0.521 0.54722   0.156873
 C 0.25514 0.594 0.45972   -0.150817
 C 0.12445 0.6404 0.4379   -0.041703
 C 0.99286 0.6083 0.50328   -0.153475
 C 0.000410000000002 0.5334 0.58898   0.149918
 C 0.1192 0.7261 0.346   0.659528
 C 0.17895 0.1285 0.3743   0.165743
 C 0.09349 0.2062 0.45922   -0.180208
 C 0.06621 0.1519 0.55618   0.025186
 C 0.12711 0.022 0.56418   -0.177224
 C 0.20739 0.9489 0.47742   0.165406
 C 0.969 0.2333 0.6506   0.662658
 C 0.04712 0.3179 0.97916   0.162086
 C 0.04141 0.2448 0.06758   -0.180813
 C 0.1256 0.1162 0.06   0.015622
 C 0.21003 0.0665 0.96154   -0.184399
 C 0.20332 0.1444 0.87736   0.16543
 C 0.1285 0.0323 0.1522   0.655658
 C 0.74818 0.2353 0.91304   0.160479
 C 0.75461 0.1602 0.99858   -0.158747
 C 0.62945 0.1152 0.0577   -0.033842
 C 0.50461 0.1451 0.02678   -0.146235
 C 0.50919 0.2206 0.93962   0.151393
 C 0.6318 0.0335 0.1522   0.660089
 C 0.79931 0.021 0.45278   0.155485
 C 0.71486 0.094 0.54028   -0.148201
 C 0.56235 0.1404 0.5621   -0.042647
 C 0.49614 0.1083 0.49672   -0.150764
 C 0.58939 0.0334 0.41102   0.147473
 C 0.4652 0.2261 0.654   0.658882
 C 0.55325 0.6285 0.6257   0.167066
 C 0.55271 0.7062 0.54078   -0.180539
 C 0.62239 0.6519 0.44382   0.026136
 C 0.69129 0.522 0.43582   -0.178395
 C 0.68481 0.4489 0.52258   0.165373
 C 0.6196 0.7333 0.3494   0.661034
 C 0.02628 0.8179 0.02084   0.162577
 C 0.10899 0.7448 0.93242   -0.181557
 C 0.1856 0.6162 0.94   0.014575
 C 0.17157 0.5665 0.03846   -0.182105
 C 0.08068 0.6444 0.12264   0.166766
 C 0.2807 0.5323 0.8478   0.660895
 N 0.51236 0.7647 0.11708   -0.331091
 N 0.12663 0.4913 0.61174   -0.337702
 N 0.23669 0.9993 0.38222   -0.358255
 N 0.12501 0.2705 0.88438   -0.35123
 N 0.62944 0.2647 0.88292   -0.332876
 N 0.73837 0.9913 0.38826   -0.334298
 N 0.61891 0.4993 0.61778   -0.359011
 N 0.00939 0.7705 0.11562   -0.352287
 O 0.92236 0.5032 0.83188   -0.580759
 O 0.7159 0.5088 0.7932   -0.604852
 O 0.23897 0.7494 0.28586   -0.604807
 O 0.99183 0.7672 0.33674   -0.598231
 O 0.02509 0.2512 0.71422   -0.601518
 O 0.83234 0.273 0.65812   -0.588997
 O 0.00361 0.0223 0.21578   -0.610499
 O 0.25596 0.9854 0.15648   -0.570998
 O 0.75424 0.0032 0.16812   -0.578843
 O 0.5091 0.0088 0.2068   -0.604178
 O 0.52483 0.2494 0.71414   -0.603121
 O 0.32857 0.2672 0.66326   -0.598315
 O 0.73931 0.7512 0.28578   -0.601104
 O 0.49046 0.773 0.34188   -0.588754
 O 0.21939 0.5223 0.78422   -0.611536
 O 0.41244 0.4854 0.84352   -0.573446
