{'_ref': 'TBD', '_srcid': 'CAKYAQ_clean', 'submitters': [{'name': 'Dalar Nazarian Jeff Camp and David Sholl', 'email': 'dalar@gatech.edu jcamp6@gatech.edu'}], '_method': 'VASP DFT with PBE;DDEC'}
data_NdH2C7(NO3)2
_symmetry_space_group_name_H-M   'P 1'
_cell_length_a   10.98900000
_cell_length_b   11.94600000
_cell_length_c   19.40200000
_cell_angle_alpha   90.00000000
_cell_angle_beta   90.00000000
_cell_angle_gamma   90.00000000
_symmetry_Int_Tables_number   1
_chemical_formula_structural   NdH2C7(NO3)2
_chemical_formula_sum   'Nd8 H16 C56 N16 O48'
_cell_volume   2546.98967279
_cell_formula_units_Z   8
loop_
 _symmetry_equiv_pos_site_id
 _symmetry_equiv_pos_as_xyz
  1  'x, y, z'
loop_
 _atom_site_label
 _atom_site_fract_x
 _atom_site_fract_y
 _atom_site_fract_z
 _atom_site_charge
 Nd 0.13672 0.34181 0.01438   2.216903
 Nd 0.61797 0.524 0.22855   2.177399
 Nd 0.86328 0.65819 0.51438   2.216903
 Nd 0.38203 0.476 0.72855   2.177399
 Nd 0.36328 0.84181 0.01438   2.216904
 Nd 0.88203 0.024 0.22855   2.1774
 Nd 0.63672 0.15819 0.51438   2.216904
 Nd 0.11797 0.976 0.72855   2.1774
 H 0.3493 0.4933 0.1218   0.048349
 H 0.2318 0.2403 0.2821   0.168853
 H 0.8701 0.3983 0.1257   0.056878
 H 0.0054 0.7564 0.1148   0.142306
 H 0.6507 0.5067 0.6218   0.048349
 H 0.7682 0.7597 0.7821   0.168853
 H 0.1299 0.6017 0.6257   0.056878
 H 0.9946 0.2436 0.6148   0.142306
 H 0.1507 0.9933 0.1218   0.048349
 H 0.2682 0.7403 0.2821   0.168853
 H 0.6299 0.8983 0.1257   0.056878
 H 0.4946 0.2564 0.1148   0.142306
 H 0.8493 0.0067 0.6218   0.048349
 H 0.7318 0.2597 0.7821   0.168853
 H 0.3701 0.1017 0.6257   0.056878
 H 0.5054 0.7436 0.6148   0.142306
 C 0.3279 0.4383 0.1534   0.441233
 C 0.3642 0.3518 0.2558   0.233509
 C 0.2577 0.2896 0.2481   -0.146082
 C 0.193 0.304 0.1887   0.185766
 C 0.0862 0.2294 0.1704   0.68533
 C 0.4473 0.3326 0.3167   0.621465
 C 0.8982 0.4717 0.124   0.489204
 C 0.8736 0.6549 0.1537   0.197034
 C 0.9786 0.6827 0.118   -0.141269
 C 0.0413 0.5961 0.0876   0.214558
 C 0.1605 0.616 0.0501   0.672632
 C 0.796 0.7446 0.1879   0.699706
 C 0.7992 0.5649 0.3599   0.602624
 C 0.6774 0.6174 0.3837   0.563111
 C 0.6721 0.5617 0.6534   0.441233
 C 0.6358 0.6482 0.7558   0.233509
 C 0.7423 0.7104 0.7481   -0.146082
 C 0.807 0.696 0.6887   0.185766
 C 0.9138 0.7706 0.6704   0.68533
 C 0.5527 0.6674 0.8167   0.621465
 C 0.1018 0.5283 0.624   0.489204
 C 0.1264 0.3451 0.6537   0.197034
 C 0.0214 0.3173 0.618   -0.141269
 C 0.9587 0.4039 0.5876   0.214558
 C 0.8395 0.384 0.5501   0.672632
 C 0.204 0.2554 0.6879   0.699706
 C 0.2008 0.4351 0.8599   0.602624
 C 0.3226 0.3826 0.8837   0.563111
 C 0.1721 0.9383 0.1534   0.441233
 C 0.1358 0.8518 0.2558   0.233509
 C 0.2423 0.7896 0.2481   -0.146082
 C 0.307 0.804 0.1887   0.185766
 C 0.4138 0.7294 0.1704   0.68533
 C 0.0527 0.8326 0.3167   0.621464
 C 0.6018 0.9717 0.124   0.489204
 C 0.6264 0.1549 0.1537   0.197034
 C 0.5214 0.1827 0.118   -0.141269
 C 0.4587 0.0961 0.0876   0.214558
 C 0.3395 0.116 0.0501   0.672632
 C 0.704 0.2446 0.1879   0.699706
 C 0.7008 0.0649 0.3599   0.602624
 C 0.8226 0.1174 0.3837   0.563111
 C 0.8279 0.0617 0.6534   0.441233
 C 0.8642 0.1482 0.7558   0.233509
 C 0.7577 0.2104 0.7481   -0.146082
 C 0.693 0.196 0.6887   0.185766
 C 0.5862 0.2706 0.6704   0.68533
 C 0.9473 0.1674 0.8167   0.621464
 C 0.3982 0.0283 0.624   0.489204
 C 0.3736 0.8451 0.6537   0.197034
 C 0.4786 0.8173 0.618   -0.141269
 C 0.5413 0.9039 0.5876   0.214558
 C 0.6605 0.884 0.5501   0.672632
 C 0.296 0.7554 0.6879   0.699706
 C 0.2992 0.9351 0.8599   0.602624
 C 0.1774 0.8826 0.8837   0.563111
 N 0.2276 0.3788 0.14   -0.51771
 N 0.3999 0.4257 0.2082   -0.537234
 N 0.000500000000002 0.4909 0.0887   -0.555367
 N 0.8329 0.5492 0.1571   -0.514164
 N 0.7724 0.6212 0.64   -0.51771
 N 0.6001 0.5743 0.7082   -0.537234
 N 0.9995 0.5091 0.5887   -0.555367
 N 0.1671 0.4508 0.6571   -0.514164
 N 0.2724 0.8788 0.14   -0.51771
 N 0.1001 0.9257 0.2082   -0.537234
 N 0.4995 0.9909 0.0887   -0.555367
 N 0.6671 0.0492 0.1571   -0.514164
 N 0.7276 0.1212 0.64   -0.51771
 N 0.8999 0.0743 0.7082   -0.537234
 N 0.5005 0.0091 0.5887   -0.555367
 N 0.3329 0.9508 0.6571   -0.514164
 O 0.0447 0.2387 0.11006   -0.770098
 O 0.0503 0.1622 0.21588   -0.633218
 O 0.5429 0.3919 0.31907   -0.701043
 O 0.4148 0.2617 0.3581   -0.591896
 O 0.2084 0.5345 0.0186   -0.670786
 O 0.2057 0.7114 0.05666   -0.672088
 O 0.7005 0.7131 0.21651   -0.638584
 O 0.8341 0.8427 0.1838   -0.741571
 O 0.8893 0.579 0.3976   -0.684168
 O 0.7952 0.5109 0.3044   -0.641222
 O 0.6741 0.6515 0.44458   -0.657434
 O 0.5918 0.6204 0.34009   -0.602928
 O 0.9553 0.7613 0.61006   -0.770098
 O 0.9497 0.8378 0.71588   -0.633218
 O 0.4571 0.6081 0.81907   -0.701043
 O 0.5852 0.7383 0.8581   -0.591896
 O 0.7916 0.4655 0.5186   -0.670786
 O 0.7943 0.2886 0.55666   -0.672088
 O 0.2995 0.2869 0.71651   -0.638584
 O 0.1659 0.1573 0.6838   -0.741571
 O 0.1107 0.421 0.8976   -0.684168
 O 0.2048 0.4891 0.8044   -0.641222
 O 0.3259 0.3485 0.94458   -0.657434
 O 0.4082 0.3796 0.84009   -0.602928
 O 0.4553 0.7387 0.11006   -0.770098
 O 0.4497 0.6622 0.21588   -0.633218
 O 0.9571 0.8919 0.31907   -0.701043
 O 0.0852 0.7617 0.3581   -0.591896
 O 0.2916 0.0345 0.0186   -0.670786
 O 0.2943 0.2114 0.05666   -0.672088
 O 0.7995 0.2131 0.21651   -0.638584
 O 0.6659 0.3427 0.1838   -0.741571
 O 0.6107 0.079 0.3976   -0.684168
 O 0.7048 0.0109 0.3044   -0.641222
 O 0.8259 0.1515 0.44458   -0.657434
 O 0.9082 0.1204 0.34009   -0.602928
 O 0.5447 0.2613 0.61006   -0.770098
 O 0.5503 0.3378 0.71588   -0.633218
 O 0.0429 0.1081 0.81907   -0.701043
 O 0.9148 0.2383 0.8581   -0.591896
 O 0.7084 0.9655 0.5186   -0.670786
 O 0.7057 0.7886 0.55666   -0.672088
 O 0.2005 0.7869 0.71651   -0.638584
 O 0.3341 0.6573 0.6838   -0.741571
 O 0.3893 0.921 0.8976   -0.684168
 O 0.2952 0.9891 0.8044   -0.641222
 O 0.1741 0.8485 0.94458   -0.657434
 O 0.0918 0.8796 0.84009   -0.602928
