{'_ref': 'TBD', '_srcid': 'CAKYAQ_clean', 'submitters': [{'name': 'Dalar Nazarian Jeff Camp and David Sholl', 'email': 'dalar@gatech.edu jcamp6@gatech.edu'}], '_method': 'VASP DFT with PBE;DDEC'}
data_Co3H28C40(N5O4)2
_symmetry_space_group_name_H-M   'P 1'
_cell_length_a   11.10400000
_cell_length_b   19.88340000
_cell_length_c   21.30250000
_cell_angle_alpha   90.00000000
_cell_angle_beta   90.00000000
_cell_angle_gamma   90.00000000
_symmetry_Int_Tables_number   1
_chemical_formula_structural   Co3H28C40(N5O4)2
_chemical_formula_sum   'Co12 H112 C160 N40 O32'
_cell_volume   4703.27829086
_cell_formula_units_Z   4
loop_
 _symmetry_equiv_pos_site_id
 _symmetry_equiv_pos_as_xyz
  1  'x, y, z'
loop_
 _atom_site_label
 _atom_site_fract_x
 _atom_site_fract_y
 _atom_site_fract_z
 _atom_site_charge
 Co 0.69405 0.46297 0.22352   0.864026
 Co 0.80595 0.03703 0.22352   0.864026
 Co 0.30595 0.96297 0.27648   0.864026
 Co 0.19405 0.53703 0.27648   0.864026
 Co 0.30595 0.53703 0.77648   0.864026
 Co 0.19405 0.96297 0.77648   0.864026
 Co 0.69405 0.03703 0.72352   0.864026
 Co 0.80595 0.46297 0.72352   0.864026
 Co 0.0 0.5 0.0   0.55343
 Co 0.5 0.0 0.0   0.55343
 Co 0.0 0.0 0.5   0.55343
 Co 0.5 0.5 0.5   0.55343
 H 0.9543 0.3474 0.9709   0.090242
 H 0.7919 0.5808 0.3107   0.080446
 H 0.6836 0.5854 0.1351   0.083036
 H 0.2438 0.4416 0.029   0.095653
 H 0.6921 0.701 0.1334   0.110093
 H 0.6259 0.3405 0.3075   0.067691
 H 0.206 0.5513 0.1149   0.08319
 H 0.0533 0.2453 0.9708   0.132955
 H 0.8033 0.6967 0.3139   0.11526
 H 0.3529 0.3426 0.0308   0.132982
 H 0.5707 0.2286 0.3025   0.123662
 H 0.5694 0.2432 0.1142   0.115551
 H 0.6262 0.3554 0.1241   0.084772
 H 0.5452 0.1773 0.2047   0.099555
 H 0.5457 0.1526 0.9709   0.090241
 H 0.7081 0.9192 0.3107   0.080446
 H 0.8164 0.9146 0.1351   0.083036
 H 0.2562 0.0584 0.029   0.095653
 H 0.8079 0.799 0.1334   0.110094
 H 0.8741 0.1595 0.3075   0.067691
 H 0.294 0.9487 0.1149   0.08319
 H 0.4467 0.2547 0.9708   0.132954
 H 0.6967 0.8033 0.3139   0.115261
 H 0.1471 0.1574 0.0308   0.132982
 H 0.9293 0.2714 0.3025   0.123661
 H 0.9306 0.2568 0.1142   0.115551
 H 0.8738 0.1446 0.1241   0.084772
 H 0.9548 0.3227 0.2047   0.099555
 H 0.0457 0.8474 0.5291   0.090242
 H 0.2081 0.0808 0.1893   0.080446
 H 0.3164 0.0854 0.3649   0.083036
 H 0.7562 0.9416 0.471   0.095653
 H 0.3079 0.201 0.3666   0.110094
 H 0.3741 0.8405 0.1925   0.067691
 H 0.794 0.0513 0.3851   0.08319
 H 0.9467 0.7453 0.5292   0.132955
 H 0.1967 0.1967 0.1861   0.115261
 H 0.6471 0.8426 0.4692   0.132982
 H 0.4293 0.7286 0.1975   0.123661
 H 0.4306 0.7432 0.3858   0.115551
 H 0.3738 0.8554 0.3759   0.084772
 H 0.4548 0.6773 0.2953   0.099555
 H 0.4543 0.6526 0.5291   0.090241
 H 0.2919 0.4192 0.1893   0.080446
 H 0.1836 0.4146 0.3649   0.083035
 H 0.7438 0.5584 0.471   0.095653
 H 0.1921 0.299 0.3666   0.110094
 H 0.1259 0.6595 0.1925   0.067691
 H 0.706 0.4487 0.3851   0.08319
 H 0.5533 0.7547 0.5292   0.132954
 H 0.3033 0.3033 0.1861   0.115261
 H 0.8529 0.6574 0.4692   0.132982
 H 0.0707 0.7714 0.1975   0.123661
 H 0.0694 0.7568 0.3858   0.115551
 H 0.1262 0.6446 0.3759   0.084772
 H 0.0452 0.8227 0.2953   0.099555
 H 0.0457 0.6526 0.0291   0.090241
 H 0.2081 0.4192 0.6893   0.080446
 H 0.3164 0.4146 0.8649   0.083035
 H 0.7562 0.5584 0.971   0.095652
 H 0.3079 0.299 0.8666   0.110094
 H 0.3741 0.6595 0.6925   0.067691
 H 0.794 0.4487 0.8851   0.083189
 H 0.9467 0.7547 0.0292   0.132955
 H 0.1967 0.3033 0.6861   0.11526
 H 0.6471 0.6574 0.9692   0.132982
 H 0.4293 0.7714 0.6975   0.123661
 H 0.4306 0.7568 0.8858   0.115551
 H 0.3738 0.6446 0.8759   0.084772
 H 0.4548 0.8227 0.7953   0.099555
 H 0.4543 0.8474 0.0291   0.09024
 H 0.2919 0.0808 0.6893   0.080446
 H 0.1836 0.0854 0.8649   0.083035
 H 0.7438 0.9416 0.971   0.095652
 H 0.1921 0.201 0.8666   0.110094
 H 0.1259 0.8405 0.6925   0.067691
 H 0.706 0.0513 0.8851   0.083189
 H 0.5533 0.7453 0.0292   0.132954
 H 0.3033 0.1967 0.6861   0.115261
 H 0.8529 0.8426 0.9692   0.132981
 H 0.0707 0.7286 0.6975   0.123661
 H 0.0694 0.7432 0.8858   0.115551
 H 0.1262 0.8554 0.8759   0.084772
 H 0.0452 0.6773 0.7953   0.099555
 H 0.9543 0.1526 0.4709   0.090241
 H 0.7919 0.9192 0.8107   0.080446
 H 0.6836 0.9146 0.6351   0.083035
 H 0.2438 0.0584 0.529   0.095653
 H 0.6921 0.799 0.6334   0.110094
 H 0.6259 0.1595 0.8075   0.067691
 H 0.206 0.9487 0.6149   0.083189
 H 0.0533 0.2547 0.4708   0.132955
 H 0.8033 0.8033 0.8139   0.115261
 H 0.3529 0.1574 0.5308   0.132982
 H 0.5707 0.2714 0.8025   0.123661
 H 0.5694 0.2568 0.6142   0.115551
 H 0.6262 0.1446 0.6241   0.084772
 H 0.5452 0.3227 0.7047   0.099555
 H 0.5457 0.3474 0.4709   0.09024
 H 0.7081 0.5808 0.8107   0.080446
 H 0.8164 0.5854 0.6351   0.083035
 H 0.2562 0.4416 0.529   0.095653
 H 0.8079 0.701 0.6334   0.110094
 H 0.8741 0.3405 0.8075   0.067691
 H 0.294 0.5513 0.6149   0.083189
 H 0.4467 0.2453 0.4708   0.132954
 H 0.6967 0.6967 0.8139   0.115261
 H 0.1471 0.3426 0.5308   0.132982
 H 0.9293 0.2286 0.8025   0.123661
 H 0.9306 0.2432 0.6142   0.115551
 H 0.8738 0.3554 0.6241   0.084772
 H 0.9548 0.1773 0.7047   0.099555
 C 0.8434 0.46437 0.10307   0.622688
 C 0.7471 0.71258 0.22423   0.09338
 C 0.0366 0.34603 0.98317   0.144473
 C 0.7712 0.60567 0.27411   0.17753
 C 0.9561 0.48836 0.13278   -0.056145
 C 0.7083 0.60849 0.172   0.175136
 C 0.2052 0.40099 0.017   0.149579
 C 0.7126 0.67742 0.17064   -0.214642
 C 0.2166 0.28192 0.0002   0.080296
 C 0.6156 0.32029 0.26745   0.154979
 C 0.133 0.53256 0.13024   0.214474
 C 0.095 0.285 0.98277   -0.221507
 C 0.7778 0.67489 0.27654   -0.213288
 C 0.2709 0.34209 0.01803   -0.202931
 C 0.5824 0.2535 0.2649   -0.187959
 C 0.5818 0.2621 0.1546   -0.201676
 C 0.6157 0.3292 0.16099   0.160291
 C 0.5663 0.2235 0.2077   0.032476
 C 0.9974 0.49567 0.19412   -0.0303
 C 0.9545 0.47847 0.25811   0.627013
 C 0.6566 0.03563 0.10307   0.622688
 C 0.7529 0.78742 0.22423   0.093381
 C 0.4634 0.15397 0.98317   0.144473
 C 0.7288 0.89433 0.27411   0.17753
 C 0.5439 0.01164 0.13278   -0.056145
 C 0.7917 0.89151 0.172   0.175136
 C 0.2948 0.09901 0.017   0.149579
 C 0.7874 0.82258 0.17064   -0.214642
 C 0.2834 0.21808 0.0002   0.080298
 C 0.8844 0.17971 0.26745   0.154979
 C 0.367 0.96744 0.13024   0.214474
 C 0.405 0.215 0.98277   -0.221507
 C 0.7222 0.82511 0.27654   -0.213288
 C 0.2291 0.15791 0.01803   -0.202931
 C 0.9176 0.2465 0.2649   -0.187959
 C 0.9182 0.2379 0.1546   -0.201675
 C 0.8843 0.1708 0.16099   0.160291
 C 0.9337 0.2765 0.2077   0.032476
 C 0.5026 0.00433 0.19412   -0.0303
 C 0.5455 0.02153 0.25811   0.627013
 C 0.1566 0.96437 0.39693   0.622688
 C 0.2529 0.21258 0.27577   0.09338
 C 0.9634 0.84603 0.51683   0.144473
 C 0.2288 0.10567 0.22589   0.17753
 C 0.0439 0.98836 0.36722   -0.056145
 C 0.2917 0.10849 0.328   0.175136
 C 0.7948 0.90099 0.483   0.149579
 C 0.2874 0.17742 0.32936   -0.214642
 C 0.7834 0.78192 0.4998   0.080296
 C 0.3844 0.82029 0.23255   0.154979
 C 0.867 0.03256 0.36976   0.214474
 C 0.905 0.785 0.51723   -0.221507
 C 0.2222 0.17489 0.22346   -0.213287
 C 0.7291 0.84209 0.48197   -0.202931
 C 0.4176 0.7535 0.2351   -0.187958
 C 0.4182 0.7621 0.3454   -0.201676
 C 0.3843 0.8292 0.33901   0.160291
 C 0.4337 0.7235 0.2923   0.032477
 C 0.0026 0.99567 0.30588   -0.0303
 C 0.0455 0.97847 0.24189   0.627013
 C 0.3434 0.53563 0.39693   0.622688
 C 0.2471 0.28742 0.27577   0.093381
 C 0.5366 0.65397 0.51683   0.144473
 C 0.2712 0.39433 0.22589   0.177531
 C 0.4561 0.51164 0.36722   -0.056145
 C 0.2083 0.39151 0.328   0.175136
 C 0.7052 0.59901 0.483   0.149579
 C 0.2126 0.32258 0.32936   -0.214642
 C 0.7166 0.71808 0.4998   0.080298
 C 0.1156 0.67971 0.23255   0.154979
 C 0.633 0.46744 0.36976   0.214474
 C 0.595 0.715 0.51723   -0.221507
 C 0.2778 0.32511 0.22346   -0.213288
 C 0.7709 0.65791 0.48197   -0.202931
 C 0.0824 0.7465 0.2351   -0.187958
 C 0.0818 0.7379 0.3454   -0.201675
 C 0.1157 0.6708 0.33901   0.160291
 C 0.0663 0.7765 0.2923   0.032476
 C 0.4974 0.50433 0.30588   -0.0303
 C 0.4545 0.52153 0.24189   0.627013
 C 0.1566 0.53563 0.89693   0.622688
 C 0.2529 0.28742 0.77577   0.09338
 C 0.9634 0.65397 0.01683   0.144473
 C 0.2288 0.39433 0.72589   0.17753
 C 0.0439 0.51164 0.86722   -0.056145
 C 0.2917 0.39151 0.828   0.175136
 C 0.7948 0.59901 0.983   0.149579
 C 0.2874 0.32258 0.82936   -0.214642
 C 0.7834 0.71808 0.9998   0.080296
 C 0.3844 0.67971 0.73255   0.154979
 C 0.867 0.46744 0.86976   0.214474
 C 0.905 0.715 0.01723   -0.221507
 C 0.2222 0.32511 0.72346   -0.213288
 C 0.7291 0.65791 0.98197   -0.202931
 C 0.4176 0.7465 0.7351   -0.187959
 C 0.4182 0.7379 0.8454   -0.201676
 C 0.3843 0.6708 0.83901   0.160291
 C 0.4337 0.7765 0.7923   0.032476
 C 0.0026 0.50433 0.80588   -0.0303
 C 0.0455 0.52153 0.74189   0.627013
 C 0.3434 0.96437 0.89693   0.622688
 C 0.2471 0.21258 0.77577   0.093381
 C 0.5366 0.84603 0.01683   0.144473
 C 0.2712 0.10567 0.72589   0.17753
 C 0.4561 0.98836 0.86722   -0.056145
 C 0.2083 0.10849 0.828   0.175136
 C 0.7052 0.90099 0.983   0.149579
 C 0.2126 0.17742 0.82936   -0.214642
 C 0.7166 0.78192 0.9998   0.080298
 C 0.1156 0.82029 0.73255   0.154979
 C 0.633 0.03256 0.86976   0.214474
 C 0.595 0.785 0.01723   -0.221507
 C 0.2778 0.17489 0.72346   -0.213288
 C 0.7709 0.84209 0.98197   -0.202931
 C 0.0824 0.7535 0.7351   -0.187959
 C 0.0818 0.7621 0.8454   -0.201676
 C 0.1157 0.8292 0.83901   0.160291
 C 0.0663 0.7235 0.7923   0.032476
 C 0.4974 0.99567 0.80588   -0.0303
 C 0.4545 0.97847 0.74189   0.627013
 C 0.8434 0.03563 0.60307   0.622688
 C 0.7471 0.78742 0.72423   0.09338
 C 0.0366 0.15397 0.48317   0.144473
 C 0.7712 0.89433 0.77411   0.17753
 C 0.9561 0.01164 0.63278   -0.056145
 C 0.7083 0.89151 0.672   0.175136
 C 0.2052 0.09901 0.517   0.149579
 C 0.7126 0.82258 0.67064   -0.214642
 C 0.2166 0.21808 0.5002   0.080296
 C 0.6156 0.17971 0.76745   0.154979
 C 0.133 0.96744 0.63024   0.214474
 C 0.095 0.215 0.48277   -0.221507
 C 0.7778 0.82511 0.77654   -0.213287
 C 0.2709 0.15791 0.51803   -0.202931
 C 0.5824 0.2465 0.7649   -0.187958
 C 0.5818 0.2379 0.6546   -0.201676
 C 0.6157 0.1708 0.66099   0.160291
 C 0.5663 0.2765 0.7077   0.032476
 C 0.9974 0.00433 0.69412   -0.0303
 C 0.9545 0.02153 0.75811   0.627013
 C 0.6566 0.46437 0.60307   0.622688
 C 0.7529 0.71258 0.72423   0.093381
 C 0.4634 0.34603 0.48317   0.144473
 C 0.7288 0.60567 0.77411   0.177531
 C 0.5439 0.48836 0.63278   -0.056145
 C 0.7917 0.60849 0.672   0.175136
 C 0.2948 0.40099 0.517   0.149579
 C 0.7874 0.67742 0.67064   -0.214642
 C 0.2834 0.28192 0.5002   0.080298
 C 0.8844 0.32029 0.76745   0.154979
 C 0.367 0.53256 0.63024   0.214474
 C 0.405 0.285 0.48277   -0.221507
 C 0.7222 0.67489 0.77654   -0.213288
 C 0.2291 0.34209 0.51803   -0.202931
 C 0.9176 0.2535 0.7649   -0.187958
 C 0.9182 0.2621 0.6546   -0.201675
 C 0.8843 0.3292 0.66099   0.160291
 C 0.9337 0.2235 0.7077   0.032476
 C 0.5026 0.49567 0.69412   -0.0303
 C 0.5455 0.47847 0.75811   0.627013
 N 0.0434 0.51193 0.09282   -0.308433
 N 0.634 0.3582 0.21639   -0.325085
 N 0.7374 0.57186 0.22295   -0.336147
 N 0.0896 0.40326 0.99991   -0.241257
 N 0.1098 0.52414 0.19119   -0.384811
 N 0.4566 0.98807 0.09282   -0.308433
 N 0.866 0.1418 0.21639   -0.325085
 N 0.7626 0.92814 0.22295   -0.336147
 N 0.4104 0.09674 0.99991   -0.241257
 N 0.3902 0.97586 0.19119   -0.384811
 N 0.9566 0.01193 0.40718   -0.308433
 N 0.366 0.8582 0.28361   -0.325085
 N 0.2626 0.07186 0.27705   -0.336147
 N 0.9104 0.90326 0.50009   -0.241257
 N 0.8902 0.02414 0.30881   -0.384811
 N 0.5434 0.48807 0.40718   -0.308433
 N 0.134 0.6418 0.28361   -0.325085
 N 0.2374 0.42814 0.27705   -0.336147
 N 0.5896 0.59674 0.50009   -0.241257
 N 0.6098 0.47586 0.30881   -0.384811
 N 0.9566 0.48807 0.90718   -0.308433
 N 0.366 0.6418 0.78361   -0.325085
 N 0.2626 0.42814 0.77705   -0.336147
 N 0.9104 0.59674 9.00000000001e-05   -0.241258
 N 0.8902 0.47586 0.80881   -0.384811
 N 0.5434 0.01193 0.90718   -0.308433
 N 0.134 0.8582 0.78361   -0.325085
 N 0.2374 0.07186 0.77705   -0.336147
 N 0.5896 0.90326 9.00000000001e-05   -0.241258
 N 0.6098 0.02414 0.80881   -0.384811
 N 0.0434 0.98807 0.59282   -0.308433
 N 0.634 0.1418 0.71639   -0.325085
 N 0.7374 0.92814 0.72295   -0.336147
 N 0.0896 0.09674 0.49991   -0.241258
 N 0.1098 0.97586 0.69119   -0.384811
 N 0.4566 0.51193 0.59282   -0.308433
 N 0.866 0.3582 0.71639   -0.325085
 N 0.7626 0.57186 0.72295   -0.336147
 N 0.4104 0.40326 0.49991   -0.241258
 N 0.3902 0.52414 0.69119   -0.384811
 O 0.84715 0.45761 0.04362   -0.545366
 O 0.85907 0.44416 0.26619   -0.604732
 O 0.74928 0.45318 0.13352   -0.553115
 O 0.01911 0.49902 0.30279   -0.560751
 O 0.65285 0.04239 0.04362   -0.545366
 O 0.64093 0.05584 0.26619   -0.604732
 O 0.75072 0.04682 0.13352   -0.553115
 O 0.48089 0.000979999999998 0.30279   -0.560751
 O 0.15285 0.95761 0.45638   -0.545366
 O 0.14093 0.94416 0.23381   -0.604732
 O 0.25072 0.95318 0.36648   -0.553115
 O 0.98089 0.99902 0.19721   -0.560751
 O 0.34715 0.54239 0.45638   -0.545366
 O 0.35907 0.55584 0.23381   -0.604732
 O 0.24928 0.54682 0.36648   -0.553115
 O 0.51911 0.50098 0.19721   -0.560751
 O 0.15285 0.54239 0.95638   -0.545366
 O 0.14093 0.55584 0.73381   -0.604732
 O 0.25072 0.54682 0.86648   -0.553115
 O 0.98089 0.50098 0.69721   -0.560751
 O 0.34715 0.95761 0.95638   -0.545366
 O 0.35907 0.94416 0.73381   -0.604732
 O 0.24928 0.95318 0.86648   -0.553115
 O 0.51911 0.99902 0.69721   -0.560751
 O 0.84715 0.04239 0.54362   -0.545366
 O 0.85907 0.05584 0.76619   -0.604732
 O 0.74928 0.04682 0.63352   -0.553115
 O 0.01911 0.000979999999998 0.80279   -0.560751
 O 0.65285 0.45761 0.54362   -0.545366
 O 0.64093 0.44416 0.76619   -0.604732
 O 0.75072 0.45318 0.63352   -0.553115
 O 0.48089 0.49902 0.80279   -0.560751
