{'_ref': 'TBD', '_srcid': 'CAKYAQ_clean', 'submitters': [{'name': 'Dalar Nazarian Jeff Camp and David Sholl', 'email': 'dalar@gatech.edu jcamp6@gatech.edu'}], '_method': 'VASP DFT with PBE;DDEC'}
data_LaH8C18N3O8
_symmetry_space_group_name_H-M   'P 1'
_cell_length_a   10.39500000
_cell_length_b   10.77900014
_cell_length_c   21.44500000
_cell_angle_alpha   90.00000000
_cell_angle_beta   90.00000000
_cell_angle_gamma   112.05999932
_symmetry_Int_Tables_number   1
_chemical_formula_structural   LaH8C18N3O8
_chemical_formula_sum   'La4 H32 C72 N12 O32'
_cell_volume   2226.95201468
_cell_formula_units_Z   4
loop_
 _symmetry_equiv_pos_site_id
 _symmetry_equiv_pos_as_xyz
  1  'x, y, z'
loop_
 _atom_site_label
 _atom_site_fract_x
 _atom_site_fract_y
 _atom_site_fract_z
 _atom_site_charge
 La 0.23306 0.24057 0.4722   2.191498
 La 0.26694 0.75943 0.9722   2.191498
 La 0.76694 0.75943 0.5278   2.191497
 La 0.73306 0.24057 0.0278   2.191497
 H 0.7711 0.1951 0.3265   0.402368
 H 0.2175 0.8216 0.1592   0.098526
 H 0.713 0.5134 0.366   0.086247
 H 0.3326 0.928 0.3365   0.117203
 H 0.6002 0.0912 0.196   0.114229
 H 0.9884 0.7001 0.1985   0.152453
 H 0.7858 0.5041 0.1821   0.103931
 H 0.4098 0.2851 0.2513   0.093171
 H 0.7289 0.8049 0.8265   0.402368
 H 0.2825 0.1784 0.6592   0.098526
 H 0.787 0.4866 0.866   0.086247
 H 0.1674 0.072 0.8365   0.117203
 H 0.8998 0.9088 0.696   0.114229
 H 0.5116 0.2999 0.6985   0.152453
 H 0.7142 0.4959 0.6821   0.103931
 H 0.0902 0.7149 0.7513   0.093171
 H 0.2289 0.8049 0.6735   0.402368
 H 0.7825 0.1784 0.8408   0.098526
 H 0.287 0.4866 0.634   0.086247
 H 0.6674 0.072 0.6635   0.117203
 H 0.3998 0.9088 0.804   0.114229
 H 0.0116 0.2999 0.8015   0.152453
 H 0.2142 0.4959 0.8179   0.103931
 H 0.5902 0.7149 0.7487   0.093171
 H 0.2711 0.1951 0.1735   0.402368
 H 0.7175 0.8216 0.3408   0.098526
 H 0.213 0.5134 0.134   0.086247
 H 0.8326 0.928 0.1635   0.117203
 H 0.1002 0.0912 0.304   0.114229
 H 0.4884 0.7001 0.3015   0.152453
 H 0.2858 0.5041 0.3179   0.103931
 H 0.9098 0.2851 0.2487   0.093171
 C 0.4471 0.3387 0.37055   0.701135
 C 0.2545 0.8587 0.251   0.063279
 C 0.2836 0.8723 0.1878   -0.067092
 C 0.4401 0.9786 0.09754   0.844229
 C 0.4116 0.9616 0.16689   -0.158718
 C 0.4824 0.0197 0.27309   -0.144681
 C 0.912 0.6166 0.28407   0.147847
 C 0.7709 0.5236 0.27507   -0.026395
 C 0.6823 0.4814 0.32622   -0.018329
 C 0.5888 0.0942 0.32109   0.637209
 C 0.3532 0.9345 0.29414   -0.044097
 C 0.5412 0.3381 0.14092   0.743299
 C 0.5132 0.0341 0.20966   0.013502
 C 0.0037 0.6947 0.24098   -0.17879
 C 0.5471 0.3907 0.31687   -0.158364
 C 0.7253 0.4764 0.21573   -0.022696
 C 0.5007 0.3448 0.25712   0.001822
 C 0.5886 0.3872 0.20622   -0.146698
 C 0.0529 0.6613 0.87055   0.701135
 C 0.2455 0.1413 0.751   0.063279
 C 0.2164 0.1277 0.6878   -0.067092
 C 0.0599 0.0214 0.59754   0.844229
 C 0.0884 0.0384 0.66689   -0.158718
 C 0.0176 0.9803 0.77309   -0.144681
 C 0.588 0.3834 0.78407   0.147847
 C 0.7291 0.4764 0.77507   -0.026395
 C 0.8177 0.5186 0.82622   -0.018329
 C 0.9112 0.9058 0.82109   0.637209
 C 0.1468 0.0655 0.79414   -0.044097
 C 0.9588 0.6619 0.64092   0.743299
 C 0.9868 0.9659 0.70966   0.013502
 C 0.4963 0.3053 0.74098   -0.17879
 C 0.9529 0.6093 0.81687   -0.158364
 C 0.7747 0.5236 0.71573   -0.022696
 C 0.9993 0.6552 0.75712   0.001822
 C 0.9114 0.6128 0.70622   -0.146698
 C 0.5529 0.6613 0.62945   0.701135
 C 0.7455 0.1413 0.749   0.063279
 C 0.7164 0.1277 0.8122   -0.067093
 C 0.5599 0.0214 0.90246   0.844229
 C 0.5884 0.0384 0.83311   -0.158718
 C 0.5176 0.9803 0.72691   -0.144682
 C 0.088 0.3834 0.71593   0.147847
 C 0.2291 0.4764 0.72493   -0.026396
 C 0.3177 0.5186 0.67378   -0.018329
 C 0.4112 0.9058 0.67891   0.637209
 C 0.6468 0.0655 0.70586   -0.044097
 C 0.4588 0.6619 0.85908   0.743299
 C 0.4868 0.9659 0.79034   0.013502
 C 0.9963 0.3053 0.75902   -0.178791
 C 0.4529 0.6093 0.68313   -0.158364
 C 0.2747 0.5236 0.78427   -0.022697
 C 0.4993 0.6552 0.74288   0.001822
 C 0.4114 0.6128 0.79378   -0.146698
 C 0.9471 0.3387 0.12945   0.701135
 C 0.7545 0.8587 0.249   0.063279
 C 0.7836 0.8723 0.3122   -0.067093
 C 0.9401 0.9786 0.40246   0.844229
 C 0.9116 0.9616 0.33311   -0.158718
 C 0.9824 0.0197 0.22691   -0.144682
 C 0.412 0.6166 0.21593   0.147847
 C 0.2709 0.5236 0.22493   -0.026396
 C 0.1823 0.4814 0.17378   -0.018329
 C 0.0888 0.0942 0.17891   0.637209
 C 0.8532 0.9345 0.20586   -0.044097
 C 0.0412 0.3381 0.35908   0.743299
 C 0.0132 0.0341 0.29034   0.013502
 C 0.5037 0.6947 0.25902   -0.178791
 C 0.0471 0.3907 0.18313   -0.158364
 C 0.2253 0.4764 0.28427   -0.022697
 C 0.000700000000002 0.3448 0.24288   0.001822
 C 0.0886 0.3872 0.29378   -0.146698
 N 0.1222 0.7629 0.27331   0.183561
 N 0.1021 0.725 0.33375   -0.168453
 N 0.9742 0.6375 0.3405   -0.254789
 N 0.3778 0.2371 0.77331   0.183561
 N 0.3979 0.275 0.83375   -0.168453
 N 0.5258 0.3625 0.8405   -0.254789
 N 0.8778 0.2371 0.72669   0.183561
 N 0.8979 0.275 0.66625   -0.168453
 N 0.0258 0.3625 0.6595   -0.254789
 N 0.6222 0.7629 0.22669   0.183561
 N 0.6021 0.725 0.16625   -0.168453
 N 0.4742 0.6375 0.1595   -0.254789
 O 0.4149 0.2765 0.13011   -0.599609
 O 0.4761 0.399 0.42324   -0.75379
 O 0.71 0.1614 0.29703   -0.501796
 O 0.3425 0.9155 0.06172   -0.782443
 O 0.3377 0.2403 0.36208   -0.628011
 O 0.5623 0.0905 0.37638   -0.527038
 O 0.6344 0.3648 0.09967   -0.781797
 O 0.5584 0.0536 0.08038   -0.731918
 O 0.0851 0.7235 0.63011   -0.599609
 O 0.0239 0.601 0.92324   -0.75379
 O 0.79 0.8386 0.79703   -0.501796
 O 0.1575 0.0845 0.56172   -0.782443
 O 0.1623 0.7597 0.86208   -0.628011
 O 0.9377 0.9095 0.87638   -0.527038
 O 0.8656 0.6352 0.59967   -0.781797
 O 0.9416 0.9464 0.58038   -0.731918
 O 0.5851 0.7235 0.86989   -0.59961
 O 0.5239 0.601 0.57676   -0.75379
 O 0.29 0.8386 0.70297   -0.501796
 O 0.6575 0.0845 0.93828   -0.782443
 O 0.6623 0.7597 0.63792   -0.628011
 O 0.4377 0.9095 0.62362   -0.527039
 O 0.3656 0.6352 0.90033   -0.781797
 O 0.4416 0.9464 0.91962   -0.731918
 O 0.9149 0.2765 0.36989   -0.59961
 O 0.9761 0.399 0.07676   -0.75379
 O 0.21 0.1614 0.20297   -0.501796
 O 0.8425 0.9155 0.43828   -0.782443
 O 0.8377 0.2403 0.13792   -0.628011
 O 0.0623 0.0905 0.12362   -0.527039
 O 0.1344 0.3648 0.40033   -0.781797
 O 0.0584 0.0536 0.41962   -0.731918
