{'_ref': 'TBD', '_srcid': 'CAKYAQ_clean', 'submitters': [{'name': 'Dalar Nazarian Jeff Camp and David Sholl', 'email': 'dalar@gatech.edu jcamp6@gatech.edu'}], '_method': 'VASP DFT with PBE;DDEC'}
data_CuPH13(C3O)7
_symmetry_space_group_name_H-M   'P 1'
_cell_length_a   14.29920000
_cell_length_b   16.08110000
_cell_length_c   24.09180000
_cell_angle_alpha   90.00000000
_cell_angle_beta   90.00000000
_cell_angle_gamma   90.00000000
_symmetry_Int_Tables_number   1
_chemical_formula_structural   CuPH13(C3O)7
_chemical_formula_sum   'Cu8 P8 H104 C168 O56'
_cell_volume   5539.8338851
_cell_formula_units_Z   8
loop_
 _symmetry_equiv_pos_site_id
 _symmetry_equiv_pos_as_xyz
  1  'x, y, z'
loop_
 _atom_site_label
 _atom_site_fract_x
 _atom_site_fract_y
 _atom_site_fract_z
 _atom_site_charge
 Cu 0.811672 0.439732 0.647317   0.97507
 Cu 0.311672 0.060268 0.852683   0.97507
 Cu 0.688328 0.560268 0.647317   0.97507
 Cu 0.188328 0.939732 0.852683   0.97507
 Cu 0.188328 0.560268 0.352683   0.97507
 Cu 0.688328 0.939732 0.147317   0.97507
 Cu 0.311672 0.439732 0.352683   0.97507
 Cu 0.811672 0.060268 0.147317   0.97507
 P 0.93235 0.26673 0.61111   1.014219
 P 0.43235 0.23327 0.88889   1.014219
 P 0.56765 0.73327 0.61111   1.014219
 P 0.06765 0.76673 0.88889   1.014219
 P 0.06765 0.73327 0.38889   1.014219
 P 0.56765 0.76673 0.11111   1.014219
 P 0.43235 0.26673 0.38889   1.014219
 P 0.93235 0.23327 0.11111   1.014219
 H 0.5052 0.01 0.5525   0.393926
 H 0.0052 0.49 0.9475   0.393926
 H 0.9948 0.99 0.5525   0.393926
 H 0.4948 0.51 0.9475   0.393926
 H 0.4948 0.99 0.4475   0.393926
 H 0.9948 0.51 0.0525   0.393926
 H 0.0052 0.01 0.4475   0.393926
 H 0.5052 0.49 0.0525   0.393926
 H 0.8927 0.1662 0.5134   0.091485
 H 0.3927 0.3338 0.9866   0.091485
 H 0.6073 0.8338 0.5134   0.091485
 H 0.1073 0.6662 0.9866   0.091485
 H 0.1073 0.8338 0.4866   0.091485
 H 0.6073 0.6662 0.0134   0.091485
 H 0.3927 0.1662 0.4866   0.091485
 H 0.8927 0.3338 0.0134   0.091485
 H 0.7643 0.0901 0.4831   0.112715
 H 0.2643 0.4099 0.0169   0.112715
 H 0.7357 0.9099 0.4831   0.112715
 H 0.2357 0.5901 0.0169   0.112715
 H 0.2357 0.9099 0.5169   0.112715
 H 0.7357 0.5901 0.9831   0.112715
 H 0.2643 0.0901 0.5169   0.112715
 H 0.7643 0.4099 0.9831   0.112715
 H 0.626 0.1453 0.6227   0.112218
 H 0.126 0.3547 0.8773   0.112218
 H 0.874 0.8547 0.6227   0.112218
 H 0.374 0.6453 0.8773   0.112218
 H 0.374 0.8547 0.3773   0.112218
 H 0.874 0.6453 0.1227   0.112218
 H 0.126 0.1453 0.3773   0.112218
 H 0.626 0.3547 0.1227   0.112218
 H 0.7521 0.2296 0.6538   0.113482
 H 0.2521 0.2704 0.8462   0.113482
 H 0.7479 0.7704 0.6538   0.113482
 H 0.2479 0.7296 0.8462   0.113482
 H 0.2479 0.7704 0.3462   0.113482
 H 0.7479 0.7296 0.1538   0.113482
 H 0.2521 0.2296 0.3462   0.113482
 H 0.7521 0.2704 0.1538   0.113482
 H 0.944 0.0892 0.6389   0.080052
 H 0.444 0.4108 0.8611   0.080052
 H 0.556 0.9108 0.6389   0.080052
 H 0.056 0.5892 0.8611   0.080052
 H 0.056 0.9108 0.3611   0.080052
 H 0.556 0.5892 0.1389   0.080052
 H 0.444 0.0892 0.3611   0.080052
 H 0.944 0.4108 0.1389   0.080052
 H 0.0867 0.2986 0.6777   0.107282
 H 0.5867 0.2014 0.8223   0.107282
 H 0.4133 0.7014 0.6777   0.107282
 H 0.9133 0.7986 0.8223   0.107282
 H 0.9133 0.7014 0.3223   0.107282
 H 0.4133 0.7986 0.1777   0.107282
 H 0.5867 0.2986 0.3223   0.107282
 H 0.0867 0.2014 0.1777   0.107282
 H 0.8926 0.3781 0.525   0.103879
 H 0.3926 0.1219 0.975   0.103879
 H 0.6074 0.6219 0.525   0.103879
 H 0.1074 0.8781 0.975   0.103879
 H 0.1074 0.6219 0.475   0.103879
 H 0.6074 0.8781 0.025   0.103879
 H 0.3926 0.3781 0.475   0.103879
 H 0.8926 0.1219 0.025   0.103879
 H 0.1716 0.226 0.7443   0.116283
 H 0.6716 0.274 0.7557   0.116283
 H 0.3284 0.774 0.7443   0.116283
 H 0.8284 0.726 0.7557   0.116283
 H 0.8284 0.774 0.2557   0.116283
 H 0.3284 0.726 0.2443   0.116283
 H 0.6716 0.226 0.2557   0.116283
 H 0.1716 0.274 0.2443   0.116283
 H 0.0289 0.0166 0.7069   0.117793
 H 0.5289 0.4834 0.7931   0.117793
 H 0.4711 0.9834 0.7069   0.117793
 H 0.9711 0.5166 0.7931   0.117793
 H 0.9711 0.9834 0.2931   0.117793
 H 0.4711 0.5166 0.2069   0.117793
 H 0.5289 0.0166 0.2931   0.117793
 H 0.0289 0.4834 0.2069   0.117793
 H 0.1169 0.2339 0.5624   0.092437
 H 0.6169 0.2661 0.9376   0.092437
 H 0.3831 0.7661 0.5624   0.092437
 H 0.8831 0.7339 0.9376   0.092437
 H 0.8831 0.7661 0.4376   0.092437
 H 0.3831 0.7339 0.0624   0.092437
 H 0.6169 0.2339 0.4376   0.092437
 H 0.1169 0.2661 0.0624   0.092437
 H 0.2026 0.2986 0.4915   0.097489
 H 0.7026 0.2014 0.0085   0.097489
 H 0.2974 0.7014 0.4915   0.097489
 H 0.7974 0.7986 0.0085   0.097489
 H 0.7974 0.7014 0.5085   0.097489
 H 0.2974 0.7986 0.9915   0.097489
 H 0.7026 0.2986 0.5085   0.097489
 H 0.2026 0.2014 0.9915   0.097489
 H 0.9779 0.4419 0.4543   0.117483
 H 0.4779 0.0581 0.0457   0.117483
 H 0.5221 0.5581 0.4543   0.117483
 H 0.0221 0.9419 0.0457   0.117483
 H 0.0221 0.5581 0.5457   0.117483
 H 0.5221 0.9419 0.9543   0.117483
 H 0.4779 0.4419 0.5457   0.117483
 H 0.9779 0.0581 0.9543   0.117483
 C 0.83593 0.20525 0.5867   -0.259558
 C 0.33593 0.29475 0.9133   -0.259558
 C 0.66407 0.79475 0.5867   -0.259558
 C 0.16407 0.70525 0.9133   -0.259558
 C 0.16407 0.79475 0.4133   -0.259558
 C 0.66407 0.70525 0.0867   -0.259558
 C 0.33593 0.20525 0.4133   -0.259558
 C 0.83593 0.29475 0.0867   -0.259558
 C 0.8382 0.16329 0.53591   -0.034256
 C 0.3382 0.33671 0.96409   -0.034256
 C 0.6618 0.83671 0.53591   -0.034256
 C 0.1618 0.66329 0.96409   -0.034256
 C 0.1618 0.83671 0.46409   -0.034256
 C 0.6618 0.66329 0.03591   -0.034256
 C 0.3382 0.16329 0.46409   -0.034256
 C 0.8382 0.33671 0.03591   -0.034256
 C 0.762 0.11764 0.51799   -0.044519
 C 0.262 0.38236 0.98201   -0.044519
 C 0.738 0.88236 0.51799   -0.044519
 C 0.238 0.61764 0.98201   -0.044519
 C 0.238 0.88236 0.48201   -0.044519
 C 0.738 0.61764 0.01799   -0.044519
 C 0.262 0.11764 0.48201   -0.044519
 C 0.762 0.38236 0.01799   -0.044519
 C 0.6845 0.1119 0.54969   -0.141521
 C 0.1845 0.3881 0.95031   -0.141521
 C 0.8155 0.8881 0.54969   -0.141521
 C 0.3155 0.6119 0.95031   -0.141521
 C 0.3155 0.8881 0.45031   -0.141521
 C 0.8155 0.6119 0.04969   -0.141521
 C 0.1845 0.1119 0.45031   -0.141521
 C 0.6845 0.3881 0.04969   -0.141521
 C 0.6803 0.1513 0.60032   -0.070117
 C 0.1803 0.3487 0.89968   -0.070117
 C 0.8197 0.8487 0.60032   -0.070117
 C 0.3197 0.6513 0.89968   -0.070117
 C 0.3197 0.8487 0.39968   -0.070117
 C 0.8197 0.6513 0.10032   -0.070117
 C 0.1803 0.1513 0.39968   -0.070117
 C 0.6803 0.3487 0.10032   -0.070117
 C 0.756 0.2006 0.61954   0.003765
 C 0.256 0.2994 0.88046   0.003765
 C 0.744 0.7994 0.61954   0.003765
 C 0.244 0.7006 0.88046   0.003765
 C 0.244 0.7994 0.38046   0.003765
 C 0.744 0.7006 0.11954   0.003765
 C 0.256 0.2006 0.38046   0.003765
 C 0.756 0.2994 0.11954   0.003765
 C 0.5987 0.0636 0.5268   0.634023
 C 0.0987 0.4364 0.9732   0.634023
 C 0.9013 0.9364 0.5268   0.634023
 C 0.4013 0.5636 0.9732   0.634023
 C 0.4013 0.9364 0.4732   0.634023
 C 0.9013 0.5636 0.0268   0.634023
 C 0.0987 0.0636 0.4732   0.634023
 C 0.5987 0.4364 0.0268   0.634023
 C 0.00549 0.20144 0.65309   -0.272858
 C 0.50549 0.29856 0.84691   -0.272858
 C 0.49451 0.79856 0.65309   -0.272858
 C 0.99451 0.70144 0.84691   -0.272858
 C 0.99451 0.79856 0.34691   -0.272858
 C 0.49451 0.70144 0.15309   -0.272858
 C 0.50549 0.20144 0.34691   -0.272858
 C 0.00549 0.29856 0.15309   -0.272858
 C 0.9893 0.11737 0.6608   -0.026661
 C 0.4893 0.38263 0.8392   -0.026661
 C 0.5107 0.88263 0.6608   -0.026661
 C 0.0107 0.61737 0.8392   -0.026661
 C 0.0107 0.88263 0.3392   -0.026661
 C 0.5107 0.61737 0.1608   -0.026661
 C 0.4893 0.11737 0.3392   -0.026661
 C 0.9893 0.38263 0.1608   -0.026661
 C 0.07426 0.24129 0.68393   -0.012523
 C 0.57426 0.25871 0.81607   -0.012523
 C 0.42574 0.75871 0.68393   -0.012523
 C 0.92574 0.74129 0.81607   -0.012523
 C 0.92574 0.75871 0.31607   -0.012523
 C 0.42574 0.74129 0.18393   -0.012523
 C 0.57426 0.24129 0.31607   -0.012523
 C 0.07426 0.25871 0.18393   -0.012523
 C 0.99746 0.30171 0.5516   -0.284007
 C 0.49746 0.19829 0.9484   -0.284007
 C 0.50254 0.69829 0.5516   -0.284007
 C 0.00254 0.80171 0.9484   -0.284007
 C 0.00254 0.69829 0.4484   -0.284007
 C 0.50254 0.80171 0.0516   -0.284007
 C 0.49746 0.30171 0.4484   -0.284007
 C 0.99746 0.19829 0.0516   -0.284007
 C 0.95587 0.3626 0.51868   0.001039
 C 0.45587 0.1374 0.98132   0.001039
 C 0.54413 0.6374 0.51868   0.001039
 C 0.04413 0.8626 0.98132   0.001039
 C 0.04413 0.6374 0.48132   0.001039
 C 0.54413 0.8626 0.01868   0.001039
 C 0.45587 0.3626 0.48132   0.001039
 C 0.95587 0.1374 0.01868   0.001039
 C 0.1245 0.19841 0.72345   -0.073136
 C 0.6245 0.30159 0.77655   -0.073136
 C 0.3755 0.80159 0.72345   -0.073136
 C 0.8755 0.69841 0.77655   -0.073136
 C 0.8755 0.80159 0.27655   -0.073136
 C 0.3755 0.69841 0.22345   -0.073136
 C 0.6245 0.19841 0.27655   -0.073136
 C 0.1245 0.30159 0.22345   -0.073136
 C 0.1062 0.11491 0.73264   -0.073313
 C 0.6062 0.38509 0.76736   -0.073313
 C 0.3938 0.88509 0.73264   -0.073313
 C 0.8938 0.61491 0.76736   -0.073313
 C 0.8938 0.88509 0.26736   -0.073313
 C 0.3938 0.61491 0.23264   -0.073313
 C 0.6062 0.11491 0.26736   -0.073313
 C 0.1062 0.38509 0.23264   -0.073313
 C 0.0401 0.07424 0.70114   -0.065564
 C 0.5401 0.42576 0.79886   -0.065564
 C 0.4599 0.92576 0.70114   -0.065564
 C 0.9599 0.57424 0.79886   -0.065564
 C 0.9599 0.92576 0.29886   -0.065564
 C 0.4599 0.57424 0.20114   -0.065564
 C 0.5401 0.07424 0.29886   -0.065564
 C 0.0401 0.42576 0.20114   -0.065564
 C 0.15794 0.07074 0.77801   0.635234
 C 0.65794 0.42926 0.72199   0.635234
 C 0.34206 0.92926 0.77801   0.635234
 C 0.84206 0.57074 0.72199   0.635234
 C 0.84206 0.92926 0.22199   0.635234
 C 0.34206 0.57074 0.27801   0.635234
 C 0.65794 0.07074 0.22199   0.635234
 C 0.15794 0.42926 0.27801   0.635234
 C 0.0892 0.27693 0.54098   -0.032999
 C 0.5892 0.22307 0.95902   -0.032999
 C 0.4108 0.72307 0.54098   -0.032999
 C 0.9108 0.77693 0.95902   -0.032999
 C 0.9108 0.72307 0.45902   -0.032999
 C 0.4108 0.77693 0.04098   -0.032999
 C 0.5892 0.27693 0.45902   -0.032999
 C 0.0892 0.22307 0.04098   -0.032999
 C 0.14009 0.3154 0.49883   -0.066643
 C 0.64009 0.1846 0.00117   -0.066643
 C 0.35991 0.6846 0.49883   -0.066643
 C 0.85991 0.8154 0.00117   -0.066643
 C 0.85991 0.6846 0.50117   -0.066643
 C 0.35991 0.8154 0.99883   -0.066643
 C 0.64009 0.3154 0.50117   -0.066643
 C 0.14009 0.1846 0.99883   -0.066643
 C 0.09936 0.37842 0.46742   -0.086687
 C 0.59936 0.12158 0.03258   -0.086687
 C 0.40064 0.62158 0.46742   -0.086687
 C 0.90064 0.87842 0.03258   -0.086687
 C 0.90064 0.62158 0.53258   -0.086687
 C 0.40064 0.87842 0.96742   -0.086687
 C 0.59936 0.37842 0.53258   -0.086687
 C 0.09936 0.12158 0.96742   -0.086687
 C 0.00655 0.40062 0.47672   -0.068368
 C 0.50655 0.09938 0.02328   -0.068368
 C 0.49345 0.59938 0.47672   -0.068368
 C 0.99345 0.90062 0.02328   -0.068368
 C 0.99345 0.59938 0.52328   -0.068368
 C 0.49345 0.90062 0.97672   -0.068368
 C 0.50655 0.40062 0.52328   -0.068368
 C 0.00655 0.09938 0.97672   -0.068368
 C 0.15632 0.42439 0.42516   0.646034
 C 0.65632 0.07561 0.07484   0.646034
 C 0.34368 0.57561 0.42516   0.646034
 C 0.84368 0.92439 0.07484   0.646034
 C 0.84368 0.57561 0.57484   0.646034
 C 0.34368 0.92439 0.92516   0.646034
 C 0.65632 0.42439 0.57484   0.646034
 C 0.15632 0.07561 0.92516   0.646034
 O 0.9024 0.33839 0.64613   -0.697513
 O 0.4024 0.16161 0.85387   -0.697513
 O 0.5976 0.66161 0.64613   -0.697513
 O 0.0976 0.83839 0.85387   -0.697513
 O 0.0976 0.66161 0.35387   -0.697513
 O 0.5976 0.83839 0.14613   -0.697513
 O 0.4024 0.33839 0.35387   -0.697513
 O 0.9024 0.16161 0.14613   -0.697513
 O 0.6016 0.04119 0.47765   -0.535321
 O 0.1016 0.45881 0.02235   -0.535321
 O 0.8984 0.95881 0.47765   -0.535321
 O 0.3984 0.54119 0.02235   -0.535321
 O 0.3984 0.95881 0.52235   -0.535321
 O 0.8984 0.54119 0.97765   -0.535321
 O 0.1016 0.04119 0.52235   -0.535321
 O 0.6016 0.45881 0.97765   -0.535321
 O 0.5366 0.052 0.56142   -0.456755
 O 0.0366 0.448 0.93858   -0.456755
 O 0.9634 0.948 0.56142   -0.456755
 O 0.4634 0.552 0.93858   -0.456755
 O 0.4634 0.948 0.43858   -0.456755
 O 0.9634 0.552 0.06142   -0.456755
 O 0.0366 0.052 0.43858   -0.456755
 O 0.5366 0.448 0.06142   -0.456755
 O 0.21961 0.11259 0.80333   -0.571099
 O 0.71961 0.38741 0.69667   -0.571099
 O 0.28039 0.88741 0.80333   -0.571099
 O 0.78039 0.61259 0.69667   -0.571099
 O 0.78039 0.88741 0.19667   -0.571099
 O 0.28039 0.61259 0.30333   -0.571099
 O 0.71961 0.11259 0.19667   -0.571099
 O 0.21961 0.38741 0.30333   -0.571099
 O 0.23962 0.4011 0.41774   -0.581708
 O 0.73962 0.0989 0.08226   -0.581708
 O 0.26038 0.5989 0.41774   -0.581708
 O 0.76038 0.9011 0.08226   -0.581708
 O 0.76038 0.5989 0.58226   -0.581708
 O 0.26038 0.9011 0.91774   -0.581708
 O 0.73962 0.4011 0.58226   -0.581708
 O 0.23962 0.0989 0.91774   -0.581708
 O 0.11631 0.48386 0.40017   -0.565938
 O 0.61631 0.01614 0.09983   -0.565938
 O 0.38369 0.51614 0.40017   -0.565938
 O 0.88369 0.98386 0.09983   -0.565938
 O 0.88369 0.51614 0.59983   -0.565938
 O 0.38369 0.98386 0.90017   -0.565938
 O 0.61631 0.48386 0.59983   -0.565938
 O 0.11631 0.01614 0.90017   -0.565938
 O 0.1356 0.99585 0.78739   -0.544843
 O 0.6356 0.50415 0.71261   -0.544843
 O 0.3644 0.00415 0.78739   -0.544843
 O 0.8644 0.49585 0.71261   -0.544843
 O 0.8644 0.00415 0.21261   -0.544843
 O 0.3644 0.49585 0.28739   -0.544843
 O 0.6356 0.99585 0.21261   -0.544843
 O 0.1356 0.50415 0.28739   -0.544843
