{'_ref': 'TBD', '_srcid': 'CAKYAQ_clean', 'submitters': [{'name': 'Dalar Nazarian Jeff Camp and David Sholl', 'email': 'dalar@gatech.edu jcamp6@gatech.edu'}], '_method': 'VASP DFT with PBE;DDEC'}
data_NaCdH9C11SNO7
_symmetry_space_group_name_H-M   'P 1'
_cell_length_a   7.08220000
_cell_length_b   20.72000000
_cell_length_c   22.87800000
_cell_angle_alpha   90.00000000
_cell_angle_beta   90.00000000
_cell_angle_gamma   90.00000000
_symmetry_Int_Tables_number   1
_chemical_formula_structural   NaCdH9C11SNO7
_chemical_formula_sum   'Na8 Cd8 H72 C88 S8 N8 O56'
_cell_volume   3357.19056355
_cell_formula_units_Z   8
loop_
 _symmetry_equiv_pos_site_id
 _symmetry_equiv_pos_as_xyz
  1  'x, y, z'
loop_
 _atom_site_label
 _atom_site_fract_x
 _atom_site_fract_y
 _atom_site_fract_z
 _atom_site_charge
 Na 0.8264 0.54417 0.95041   0.969735
 Na 0.6736 0.95583 0.45041   0.969735
 Na 0.8264 0.45583 0.54959   0.969735
 Na 0.6736 0.04417 0.04959   0.969735
 Na 0.1736 0.45583 0.04959   0.969735
 Na 0.3264 0.04417 0.54959   0.969735
 Na 0.1736 0.54417 0.45041   0.969735
 Na 0.3264 0.95583 0.95041   0.969735
 Cd 0.77942 0.04032 0.9031   1.116526
 Cd 0.72058 0.45968 0.4031   1.116526
 Cd 0.77942 0.95968 0.5969   1.116526
 Cd 0.72058 0.54032 0.0969   1.116526
 Cd 0.22058 0.95968 0.0969   1.116526
 Cd 0.27942 0.54032 0.5969   1.116526
 Cd 0.22058 0.04032 0.4031   1.116526
 Cd 0.27942 0.45968 0.9031   1.116526
 H 0.7809 0.2763 0.8902   0.116037
 H 0.7371 0.2051 0.052   0.085527
 H 0.7107 0.3084 0.0887   0.11186
 H 0.0301 0.9793 0.8048   0.085629
 H 0.0197 0.0519 0.7858   0.091014
 H 0.5481 0.9523 0.8095   0.06805
 H 0.7461 0.9186 0.8143   0.08506
 H 0.7322 0.1034 0.7788   0.102629
 H 0.542 0.0653 0.7845   0.084123
 H 0.7191 0.2237 0.3902   0.116037
 H 0.7629 0.2949 0.552   0.085527
 H 0.7893 0.1916 0.5887   0.111859
 H 0.4699 0.5207 0.3048   0.085629
 H 0.4803 0.4481 0.2858   0.091014
 H 0.9519 0.5477 0.3095   0.06805
 H 0.7539 0.5814 0.3143   0.085061
 H 0.7678 0.3966 0.2788   0.102629
 H 0.958 0.4347 0.2845   0.084123
 H 0.7809 0.7237 0.6098   0.116037
 H 0.7371 0.7949 0.448   0.085527
 H 0.7107 0.6916 0.4113   0.11186
 H 0.0301 0.0207 0.6952   0.085629
 H 0.0197 0.9481 0.7142   0.091014
 H 0.5481 0.0477 0.6905   0.06805
 H 0.7461 0.0814 0.6857   0.085061
 H 0.7322 0.8966 0.7212   0.102629
 H 0.542 0.9347 0.7155   0.084123
 H 0.7191 0.7763 0.1098   0.116037
 H 0.7629 0.7051 0.948   0.085527
 H 0.7893 0.8084 0.9113   0.11186
 H 0.4699 0.4793 0.1952   0.085629
 H 0.4803 0.5519 0.2142   0.091014
 H 0.9519 0.4523 0.1905   0.06805
 H 0.7539 0.4186 0.1857   0.085061
 H 0.7678 0.6034 0.2212   0.102629
 H 0.958 0.5653 0.2155   0.084123
 H 0.2191 0.7237 0.1098   0.116036
 H 0.2629 0.7949 0.948   0.085527
 H 0.2893 0.6916 0.9113   0.11186
 H 0.9699 0.0207 0.1952   0.085629
 H 0.9803 0.9481 0.2142   0.091014
 H 0.4519 0.0477 0.1905   0.06805
 H 0.2539 0.0814 0.1857   0.085061
 H 0.2678 0.8966 0.2212   0.102629
 H 0.458 0.9347 0.2155   0.084123
 H 0.2809 0.7763 0.6098   0.116036
 H 0.2371 0.7051 0.448   0.085527
 H 0.2107 0.8084 0.4113   0.11186
 H 0.5301 0.4793 0.6952   0.085629
 H 0.5197 0.5519 0.7142   0.091014
 H 0.0481 0.4523 0.6905   0.06805
 H 0.2461 0.4186 0.6857   0.085061
 H 0.2322 0.6034 0.7212   0.102628
 H 0.042 0.5653 0.7155   0.084123
 H 0.2191 0.2763 0.3902   0.116036
 H 0.2629 0.2051 0.552   0.085527
 H 0.2893 0.3084 0.5887   0.11186
 H 0.9699 0.9793 0.3048   0.085629
 H 0.9803 0.0519 0.2858   0.091014
 H 0.4519 0.9523 0.3095   0.06805
 H 0.2539 0.9186 0.3143   0.085061
 H 0.2678 0.1034 0.2788   0.102628
 H 0.458 0.0653 0.2845   0.084123
 H 0.2809 0.2237 0.8902   0.116036
 H 0.2371 0.2949 0.052   0.085527
 H 0.2107 0.1916 0.0887   0.11186
 H 0.5301 0.5207 0.8048   0.085629
 H 0.5197 0.4481 0.7858   0.091014
 H 0.0481 0.5477 0.8095   0.06805
 H 0.2461 0.5814 0.8143   0.085061
 H 0.2322 0.3966 0.7788   0.102628
 H 0.042 0.4347 0.7845   0.084123
 C 0.7382 0.3562 0.0117   -0.033526
 C 0.7697 0.2829 0.9303   0.02815
 C 0.7694 0.1625 0.9432   0.701839
 C 0.7614 0.3453 0.9512   -0.205445
 C 0.762 0.2298 0.9669   -0.139816
 C 0.7415 0.2402 0.0267   -0.018568
 C 0.7274 0.3023 0.0487   -0.110644
 C 0.72 0.4202 0.0414   0.691882
 C 0.9583 0.0103 0.7821   -0.040274
 C 0.676 0.9522 0.7944   -0.022322
 C 0.672 0.062 0.7718   -0.036797
 C 0.7618 0.1438 0.5117   -0.033526
 C 0.7303 0.2171 0.4303   0.02815
 C 0.7306 0.3375 0.4432   0.701839
 C 0.7386 0.1547 0.4512   -0.205445
 C 0.738 0.2702 0.4669   -0.139816
 C 0.7585 0.2598 0.5267   -0.018568
 C 0.7726 0.1977 0.5487   -0.110644
 C 0.78 0.0798 0.5414   0.691882
 C 0.5417 0.4897 0.2821   -0.040274
 C 0.824 0.5478 0.2944   -0.022322
 C 0.828 0.438 0.2718   -0.036797
 C 0.7382 0.6438 0.4883   -0.033526
 C 0.7697 0.7171 0.5697   0.02815
 C 0.7694 0.8375 0.5568   0.701839
 C 0.7614 0.6547 0.5488   -0.205445
 C 0.762 0.7702 0.5331   -0.139816
 C 0.7415 0.7598 0.4733   -0.018568
 C 0.7274 0.6977 0.4513   -0.110644
 C 0.72 0.5798 0.4586   0.691882
 C 0.9583 0.9897 0.7179   -0.040274
 C 0.676 0.0478 0.7056   -0.022322
 C 0.672 0.938 0.7282   -0.036796
 C 0.7618 0.8562 0.9883   -0.033526
 C 0.7303 0.7829 0.0697   0.02815
 C 0.7306 0.6625 0.0568   0.701839
 C 0.7386 0.8453 0.0488   -0.205445
 C 0.738 0.7298 0.0331   -0.139816
 C 0.7585 0.7402 0.9733   -0.018568
 C 0.7726 0.8023 0.9513   -0.110644
 C 0.78 0.9202 0.9586   0.691882
 C 0.5417 0.5103 0.2179   -0.040274
 C 0.824 0.4522 0.2056   -0.022322
 C 0.828 0.562 0.2282   -0.036796
 C 0.2618 0.6438 0.9883   -0.033526
 C 0.2303 0.7171 0.0697   0.02815
 C 0.2306 0.8375 0.0568   0.701839
 C 0.2386 0.6547 0.0488   -0.205445
 C 0.238 0.7702 0.0331   -0.139816
 C 0.2585 0.7598 0.9733   -0.018568
 C 0.2726 0.6977 0.9513   -0.110644
 C 0.28 0.5798 0.9586   0.691882
 C 0.0417 0.9897 0.2179   -0.040274
 C 0.324 0.0478 0.2056   -0.022322
 C 0.328 0.938 0.2282   -0.036797
 C 0.2382 0.8562 0.4883   -0.033526
 C 0.2697 0.7829 0.5697   0.02815
 C 0.2694 0.6625 0.5568   0.701839
 C 0.2614 0.8453 0.5488   -0.205445
 C 0.262 0.7298 0.5331   -0.139816
 C 0.2415 0.7402 0.4733   -0.018568
 C 0.2274 0.8023 0.4513   -0.110644
 C 0.22 0.9202 0.4586   0.691882
 C 0.4583 0.5103 0.7179   -0.040274
 C 0.176 0.4522 0.7056   -0.022322
 C 0.172 0.562 0.7282   -0.036797
 C 0.2618 0.3562 0.5117   -0.033526
 C 0.2303 0.2829 0.4303   0.02815
 C 0.2306 0.1625 0.4432   0.701839
 C 0.2386 0.3453 0.4512   -0.205445
 C 0.238 0.2298 0.4669   -0.139816
 C 0.2585 0.2402 0.5267   -0.018568
 C 0.2726 0.3023 0.5487   -0.110644
 C 0.28 0.4202 0.5414   0.691882
 C 0.0417 0.0103 0.2821   -0.040274
 C 0.324 0.9522 0.2944   -0.022322
 C 0.328 0.062 0.2718   -0.036796
 C 0.2382 0.1438 0.0117   -0.033526
 C 0.2697 0.2171 0.9303   0.02815
 C 0.2694 0.3375 0.9432   0.701839
 C 0.2614 0.1547 0.9512   -0.205445
 C 0.262 0.2702 0.9669   -0.139816
 C 0.2415 0.2598 0.0267   -0.018568
 C 0.2274 0.1977 0.0487   -0.110644
 C 0.22 0.0798 0.0414   0.691882
 C 0.4583 0.4897 0.7821   -0.040274
 C 0.176 0.5478 0.7944   -0.022322
 C 0.172 0.438 0.7718   -0.036796
 S 0.7633 0.40906 0.89904   1.400666
 S 0.7367 0.09094 0.39904   1.400666
 S 0.7633 0.59094 0.60096   1.400666
 S 0.7367 0.90906 0.10096   1.400666
 S 0.2367 0.59094 0.10096   1.400666
 S 0.2633 0.90906 0.60096   1.400666
 S 0.2367 0.40906 0.39904   1.400666
 S 0.2633 0.09094 0.89904   1.400666
 N 0.764 0.0146 0.806   -0.2376
 N 0.736 0.4854 0.306   -0.2376
 N 0.764 0.9854 0.694   -0.237601
 N 0.736 0.5146 0.194   -0.237601
 N 0.236 0.9854 0.194   -0.2376
 N 0.264 0.5146 0.694   -0.2376
 N 0.236 0.0146 0.306   -0.237601
 N 0.264 0.4854 0.806   -0.237601
 O 0.7839 0.1542 0.8897   -0.58574
 O 0.9397 0.4449 0.9045   -0.789484
 O 0.7599 0.1161 0.9784   -0.747638
 O 0.828 0.4642 0.03   -0.737388
 O 0.7365 0.3788 0.8438   -0.614154
 O 0.6092 0.4528 0.9151   -0.763388
 O 0.5949 0.4272 0.0811   -0.655944
 O 0.7161 0.3458 0.3897   -0.58574
 O 0.5603 0.0551 0.4045   -0.789484
 O 0.7401 0.3839 0.4784   -0.747638
 O 0.672 0.0358 0.53   -0.737388
 O 0.7635 0.1212 0.3438   -0.614154
 O 0.8908 0.0472 0.4151   -0.763388
 O 0.9051 0.0728 0.5811   -0.655944
 O 0.7839 0.8458 0.6103   -0.58574
 O 0.9397 0.5551 0.5955   -0.789484
 O 0.7599 0.8839 0.5216   -0.747638
 O 0.828 0.5358 0.47   -0.737388
 O 0.7365 0.6212 0.6562   -0.614154
 O 0.6092 0.5472 0.5849   -0.763388
 O 0.5949 0.5728 0.4189   -0.655944
 O 0.7161 0.6542 0.1103   -0.58574
 O 0.5603 0.9449 0.0955   -0.789484
 O 0.7401 0.6161 0.0216   -0.747638
 O 0.672 0.9642 0.97   -0.737388
 O 0.7635 0.8788 0.1562   -0.614154
 O 0.8908 0.9528 0.0849   -0.763388
 O 0.9051 0.9272 0.9189   -0.655944
 O 0.2161 0.8458 0.1103   -0.58574
 O 0.0603 0.5551 0.0955   -0.789484
 O 0.2401 0.8839 0.0216   -0.747638
 O 0.172 0.5358 0.97   -0.737388
 O 0.2635 0.6212 0.1562   -0.614154
 O 0.3908 0.5472 0.0849   -0.763388
 O 0.4051 0.5728 0.9189   -0.655944
 O 0.2839 0.6542 0.6103   -0.58574
 O 0.4397 0.9449 0.5955   -0.789484
 O 0.2599 0.6161 0.5216   -0.747638
 O 0.328 0.9642 0.47   -0.737388
 O 0.2365 0.8788 0.6562   -0.614154
 O 0.1092 0.9528 0.5849   -0.763388
 O 0.0949 0.9272 0.4189   -0.655944
 O 0.2161 0.1542 0.3897   -0.58574
 O 0.0603 0.4449 0.4045   -0.789484
 O 0.2401 0.1161 0.4784   -0.747638
 O 0.172 0.4642 0.53   -0.737388
 O 0.2635 0.3788 0.3438   -0.614154
 O 0.3908 0.4528 0.4151   -0.763388
 O 0.4051 0.4272 0.5811   -0.655944
 O 0.2839 0.3458 0.8897   -0.58574
 O 0.4397 0.0551 0.9045   -0.789484
 O 0.2599 0.3839 0.9784   -0.747638
 O 0.328 0.0358 0.03   -0.737388
 O 0.2365 0.1212 0.8438   -0.614154
 O 0.1092 0.0472 0.9151   -0.763388
 O 0.0949 0.0728 0.0811   -0.655944
