{'_ref': 'TBD', '_srcid': 'CAKYAQ_clean', 'submitters': [{'name': 'Dalar Nazarian Jeff Camp and David Sholl', 'email': 'dalar@gatech.edu jcamp6@gatech.edu'}], '_method': 'VASP DFT with PBE;DDEC'}
data_Cu2H14C17(N5O2)2
_symmetry_space_group_name_H-M   'P 1'
_cell_length_a   9.26370000
_cell_length_b   9.32230000
_cell_length_c   25.98355732
_cell_angle_alpha   97.28932139
_cell_angle_beta   90.00000000
_cell_angle_gamma   90.00000000
_symmetry_Int_Tables_number   1
_chemical_formula_structural   Cu2H14C17(N5O2)2
_chemical_formula_sum   'Cu8 H56 C68 N40 O16'
_cell_volume   2225.77870981
_cell_formula_units_Z   4
loop_
 _symmetry_equiv_pos_site_id
 _symmetry_equiv_pos_as_xyz
  1  'x, y, z'
loop_
 _atom_site_label
 _atom_site_fract_x
 _atom_site_fract_y
 _atom_site_fract_z
 _atom_site_charge
 Cu 0.8289 0.12448 0.18682   0.636993
 Cu 0.8289 0.37552 0.81318   0.636993
 Cu 0.3289 0.62448 0.68682   0.636993
 Cu 0.3289 0.87552 0.31318   0.636993
 Cu 0.1711 0.87552 0.81318   0.636993
 Cu 0.1711 0.62448 0.18682   0.636993
 Cu 0.6711 0.37552 0.31318   0.636993
 Cu 0.6711 0.12448 0.68682   0.636993
 H 0.81903 0.28794 0.10971   0.067264
 H 0.81903 0.21206 0.89029   0.067264
 H 0.31903 0.78794 0.60971   0.067264
 H 0.31903 0.71206 0.39029   0.067264
 H 0.18097 0.71206 0.89029   0.067264
 H 0.18097 0.78794 0.10971   0.067264
 H 0.68097 0.21206 0.39029   0.067264
 H 0.68097 0.28794 0.60971   0.067264
 H 0.68545 0.38913 0.04697   0.150726
 H 0.68545 0.11087 0.95303   0.150726
 H 0.18545 0.88913 0.54697   0.150726
 H 0.18545 0.61087 0.45303   0.150726
 H 0.31455 0.61087 0.95303   0.150726
 H 0.31455 0.88913 0.04697   0.150726
 H 0.81455 0.11087 0.45303   0.150726
 H 0.81455 0.38913 0.54697   0.150726
 H 0.32624 0.20129 0.10086   0.13495
 H 0.32624 0.29871 0.89914   0.13495
 H 0.82624 0.70129 0.60086   0.13495
 H 0.82624 0.79871 0.39914   0.13495
 H 0.67376 0.79871 0.89914   0.13495
 H 0.67376 0.70129 0.10086   0.13495
 H 0.17376 0.29871 0.39914   0.13495
 H 0.17376 0.20129 0.60086   0.13495
 H 0.47191 0.10614 0.16186   0.087894
 H 0.47191 0.39386 0.83814   0.087894
 H 0.97191 0.60614 0.66186   0.087894
 H 0.97191 0.89386 0.33814   0.087894
 H 0.52809 0.89386 0.83814   0.087894
 H 0.52809 0.60614 0.16186   0.087894
 H 0.02809 0.39386 0.33814   0.087894
 H 0.02809 0.10614 0.66186   0.087894
 H 0.46015 0.40535 0.00393   0.071749
 H 0.46015 0.09465 0.99607   0.071749
 H 0.96015 0.90535 0.50393   0.071749
 H 0.96015 0.59465 0.49607   0.071749
 H 0.53985 0.59465 0.99607   0.071749
 H 0.53985 0.90535 0.00393   0.071749
 H 0.03985 0.09465 0.49607   0.071749
 H 0.03985 0.40535 0.50393   0.071749
 H 0.34139 0.44138 0.04472   0.110347
 H 0.34139 0.05862 0.95528   0.110347
 H 0.84139 0.94138 0.54472   0.110347
 H 0.84139 0.55862 0.45528   0.110347
 H 0.65861 0.55862 0.95528   0.110347
 H 0.65861 0.94138 0.04472   0.110347
 H 0.15861 0.05862 0.45528   0.110347
 H 0.15861 0.44138 0.54472   0.110347
 H 0.24148 0.21436 0.02337   0.081383
 H 0.24148 0.28564 0.97663   0.081382
 H 0.74148 0.71436 0.52337   0.081383
 H 0.74148 0.78564 0.47663   0.081382
 H 0.75852 0.78564 0.97663   0.081383
 H 0.75852 0.71436 0.02337   0.081382
 H 0.25852 0.28564 0.47663   0.081383
 H 0.25852 0.21436 0.52337   0.081382
 C 0.0864 0.3357 0.1493   0.593585
 C 0.0864 0.1643 0.8507   0.593585
 C 0.5864 0.8357 0.6493   0.593585
 C 0.5864 0.6643 0.3507   0.593585
 C 0.9136 0.6643 0.8507   0.593585
 C 0.9136 0.8357 0.1493   0.593585
 C 0.4136 0.1643 0.3507   0.593585
 C 0.4136 0.3357 0.6493   0.593585
 C 0.9878 0.3869 0.1933   0.134269
 C 0.9878 0.1131 0.8067   0.134269
 C 0.4878 0.8869 0.6933   0.134269
 C 0.4878 0.6131 0.3067   0.134269
 C 0.0122 0.6131 0.8067   0.134269
 C 0.0122 0.8869 0.1933   0.134269
 C 0.5122 0.1131 0.3067   0.134269
 C 0.5122 0.3869 0.6933   0.134269
 C 0.717 0.2703 0.1077   0.153407
 C 0.717 0.2297 0.8923   0.153407
 C 0.217 0.7703 0.6077   0.153407
 C 0.217 0.7297 0.3923   0.153407
 C 0.283 0.7297 0.8923   0.153407
 C 0.283 0.7703 0.1077   0.153407
 C 0.783 0.2297 0.3923   0.153407
 C 0.783 0.2703 0.6077   0.153407
 C 0.6392 0.3312 0.0702   -0.239024
 C 0.6392 0.1688 0.9298   -0.239024
 C 0.1392 0.8312 0.5702   -0.239024
 C 0.1392 0.6688 0.4298   -0.239024
 C 0.3608 0.6688 0.9298   -0.239024
 C 0.3608 0.8312 0.0702   -0.239024
 C 0.8608 0.1688 0.4298   -0.239024
 C 0.8608 0.3312 0.5702   -0.239024
 C 0.4916 0.30441 0.06779   0.170193
 C 0.4916 0.19559 0.93221   0.170193
 C 0.9916 0.80441 0.56779   0.170193
 C 0.9916 0.69559 0.43221   0.170193
 C 0.5084 0.69559 0.93221   0.170193
 C 0.5084 0.80441 0.06779   0.170193
 C 0.0084 0.19559 0.43221   0.170193
 C 0.0084 0.30441 0.56779   0.170193
 C 0.4281 0.2203 0.1021   -0.206947
 C 0.4281 0.2797 0.8979   -0.206947
 C 0.9281 0.7203 0.6021   -0.206947
 C 0.9281 0.7797 0.3979   -0.206947
 C 0.5719 0.7797 0.8979   -0.206947
 C 0.5719 0.7203 0.1021   -0.206947
 C 0.0719 0.2797 0.3979   -0.206947
 C 0.0719 0.2203 0.6021   -0.206947
 C 0.5156 0.1644 0.1382   0.162578
 C 0.5156 0.3356 0.8618   0.162578
 C 0.0156 0.6644 0.6382   0.162578
 C 0.0156 0.8356 0.3618   0.162578
 C 0.4844 0.8356 0.8618   0.162578
 C 0.4844 0.6644 0.1382   0.162578
 C 0.9844 0.3356 0.3618   0.162578
 C 0.9844 0.1644 0.6382   0.162578
 C 0.4 0.36734 0.02799   -0.201511
 C 0.4 0.13266 0.97201   -0.201511
 C 0.9 0.86734 0.52799   -0.201511
 C 0.9 0.63266 0.47201   -0.201511
 C 0.6 0.63266 0.97201   -0.201511
 C 0.6 0.86734 0.02799   -0.201511
 C 0.1 0.13266 0.47201   -0.201511
 C 0.1 0.36734 0.52799   -0.201511
 C 0.3057 0.25 0.0   -0.075564
 C 0.8057 0.75 0.5   -0.075564
 C 0.6943 0.75 0.0   -0.075564
 C 0.1943 0.25 0.5   -0.075564
 N 0.0042 0.5194 0.2178   -0.176582
 N 0.0042 0.9806 0.7822   -0.176582
 N 0.5042 0.0194 0.7178   -0.176582
 N 0.5042 0.4806 0.2822   -0.176582
 N 0.9958 0.4806 0.7822   -0.176582
 N 0.9958 0.0194 0.2178   -0.176582
 N 0.4958 0.9806 0.2822   -0.176582
 N 0.4958 0.5194 0.7178   -0.176582
 N 0.9029 0.5364 0.255   -0.112983
 N 0.9029 0.9636 0.745   -0.112983
 N 0.4029 0.0364 0.755   -0.112983
 N 0.4029 0.4636 0.245   -0.112983
 N 0.0971 0.4636 0.745   -0.112983
 N 0.0971 0.0364 0.255   -0.112983
 N 0.5971 0.9636 0.245   -0.112983
 N 0.5971 0.5364 0.755   -0.112983
 N 0.8284 0.4144 0.2522   -0.024497
 N 0.8284 0.0856 0.7478   -0.024497
 N 0.3284 0.9144 0.7522   -0.024497
 N 0.3284 0.5856 0.2478   -0.024497
 N 0.1716 0.5856 0.7478   -0.024497
 N 0.1716 0.9144 0.2522   -0.024497
 N 0.6716 0.0856 0.2478   -0.024497
 N 0.6716 0.4144 0.7522   -0.024497
 N 0.8802 0.3204 0.2139   -0.202496
 N 0.8802 0.1796 0.7861   -0.202496
 N 0.3802 0.8204 0.7139   -0.202496
 N 0.3802 0.6796 0.2861   -0.202496
 N 0.1198 0.6796 0.7861   -0.202496
 N 0.1198 0.8204 0.2139   -0.202496
 N 0.6198 0.1796 0.2861   -0.202496
 N 0.6198 0.3204 0.7139   -0.202496
 N 0.659 0.1882 0.1415   -0.294369
 N 0.659 0.3118 0.8585   -0.294369
 N 0.159 0.6882 0.6415   -0.294369
 N 0.159 0.8118 0.3585   -0.294369
 N 0.341 0.8118 0.8585   -0.294369
 N 0.341 0.6882 0.1415   -0.294369
 N 0.841 0.3118 0.3585   -0.294369
 N 0.841 0.1882 0.6415   -0.294369
 O 0.075 0.215 0.125   -0.534479
 O 0.075 0.285 0.875   -0.534479
 O 0.575 0.715 0.625   -0.534479
 O 0.575 0.785 0.375   -0.534479
 O 0.925 0.785 0.875   -0.534479
 O 0.925 0.715 0.125   -0.534479
 O 0.425 0.285 0.375   -0.534479
 O 0.425 0.215 0.625   -0.534479
 O 0.177 0.4346 0.1426   -0.524667
 O 0.177 0.0654 0.8574   -0.524667
 O 0.677 0.9346 0.6426   -0.524667
 O 0.677 0.5654 0.3574   -0.524667
 O 0.823 0.5654 0.8574   -0.524667
 O 0.823 0.9346 0.1426   -0.524667
 O 0.323 0.0654 0.3574   -0.524667
 O 0.323 0.4346 0.6426   -0.524667
