{'_ref': 'TBD', '_srcid': 'CAKYAQ_clean', 'submitters': [{'name': 'Dalar Nazarian Jeff Camp and David Sholl', 'email': 'dalar@gatech.edu jcamp6@gatech.edu'}], '_method': 'VASP DFT with PBE;DDEC'}
data_Cu2H14C17(N5O2)2
_symmetry_space_group_name_H-M   'P 1'
_cell_length_a   9.25529976
_cell_length_b   9.35369992
_cell_length_c   13.87345302
_cell_angle_alpha   109.70046080
_cell_angle_beta   101.75804372
_cell_angle_gamma   89.99999849
_symmetry_Int_Tables_number   1
_chemical_formula_structural   Cu2H14C17(N5O2)2
_chemical_formula_sum   'Cu4 H28 C34 N20 O8'
_cell_volume   1103.93785269
_cell_formula_units_Z   2
loop_
 _symmetry_equiv_pos_site_id
 _symmetry_equiv_pos_as_xyz
  1  'x, y, z'
loop_
 _atom_site_label
 _atom_site_fract_x
 _atom_site_fract_y
 _atom_site_fract_z
 _atom_site_charge
 Cu 0.0386 0.3643 0.3846   0.633724
 Cu 0.4614 0.9797 0.6154   0.633246
 Cu 0.9614 0.6357 0.6154   0.633725
 Cu 0.5386 0.0203 0.3846   0.633247
 H 0.82334 0.24991 0.18072   0.082772
 H 0.68184 0.32554 0.04864   0.139105
 H 0.81792 0.7663 0.23376   0.13423
 H 0.95505 0.67598 0.3598   0.070452
 H 0.58907 0.5274 0.99258   0.075538
 H 0.58465 0.68322 0.07648   0.10319
 H 0.80901 0.78189 0.04674   0.087358
 H 0.67666 0.06919 0.81928   0.082908
 H 0.81816 0.2769 0.95136   0.138767
 H 0.68208 0.53254 0.76624   0.134661
 H 0.54495 0.31618 0.6402   0.070524
 H 0.91093 0.53482 0.00742   0.075326
 H 0.91535 0.60674 0.92352   0.103559
 H 0.69099 0.73515 0.95326   0.087059
 H 0.17666 0.75009 0.81928   0.082772
 H 0.31816 0.67446 0.95136   0.139106
 H 0.18208 0.2337 0.76624   0.13423
 H 0.04495 0.32402 0.6402   0.070452
 H 0.41093 0.4726 0.00742   0.075539
 H 0.41535 0.31678 0.92352   0.103191
 H 0.19099 0.21811 0.95326   0.087359
 H 0.32334 0.93081 0.18072   0.082908
 H 0.18184 0.7231 0.04864   0.138769
 H 0.31792 0.46746 0.23376   0.134661
 H 0.45505 0.68382 0.3598   0.070524
 H 0.08907 0.46518 0.99258   0.075327
 H 0.08465 0.39326 0.07648   0.103561
 H 0.30901 0.26485 0.04674   0.08706
 C 0.7696 0.0448 0.3016   0.57465
 C 0.775 0.1895 0.392   0.153739
 C 0.8219 0.3568 0.1914   0.150348
 C 0.7372 0.3996 0.112   -0.236214
 C 0.7363 0.5547 0.1286   0.163283
 C 0.8174 0.6589 0.2214   -0.196935
 C 0.8988 0.6041 0.2958   0.14819
 C 0.64687 0.61 0.046   -0.178374
 C 0.7304 0.7432 0.6984   0.576126
 C 0.725 0.7975 0.608   0.153297
 C 0.6781 0.1654 0.8086   0.149568
 C 0.7628 0.2876 0.888   -0.235065
 C 0.7637 0.4261 0.8714   0.162617
 C 0.6826 0.4375 0.7786   -0.197355
 C 0.6012 0.3083 0.7042   0.14816
 C 0.85313 0.564 0.954   -0.178252
 C 0.2304 0.9552 0.6984   0.57465
 C 0.225 0.8105 0.608   0.153739
 C 0.1781 0.6432 0.8086   0.150348
 C 0.2628 0.6004 0.888   -0.236216
 C 0.2637 0.4453 0.8714   0.163283
 C 0.1826 0.3411 0.7786   -0.196936
 C 0.1012 0.3959 0.7042   0.148189
 C 0.35313 0.39 0.954   -0.178375
 C 0.2696 0.2568 0.3016   0.576126
 C 0.275 0.2025 0.392   0.153297
 C 0.3219 0.8346 0.1914   0.149568
 C 0.2372 0.7124 0.112   -0.235067
 C 0.2363 0.5739 0.1286   0.162618
 C 0.3174 0.5625 0.2214   -0.197357
 C 0.3988 0.6917 0.2958   0.148159
 C 0.14687 0.436 0.046   -0.178253
 C 0.75 0.68 0.0   -0.116806
 C 0.25 0.32 0.0   -0.116806
 N 0.6758 0.2044 0.4508   -0.204239
 N 0.7064 0.3427 0.5254   -0.065861
 N 0.8228 0.4079 0.5098   -0.065787
 N 0.866 0.3135 0.427   -0.194995
 N 0.902 0.4546 0.282   -0.2743
 N 0.8242 0.7536 0.5492   -0.203885
 N 0.7936 0.8173 0.4746   -0.066369
 N 0.6772 0.8981 0.4902   -0.066042
 N 0.634 0.8865 0.573   -0.194658
 N 0.598 0.1726 0.718   -0.273969
 N 0.3242 0.7956 0.5492   -0.204239
 N 0.2936 0.6573 0.4746   -0.065862
 N 0.1772 0.5921 0.4902   -0.065786
 N 0.134 0.6865 0.573   -0.194995
 N 0.098 0.5454 0.718   -0.2743
 N 0.1758 0.2464 0.4508   -0.203885
 N 0.2064 0.1827 0.5254   -0.06637
 N 0.3228 0.1019 0.5098   -0.066041
 N 0.366 0.1135 0.427   -0.194658
 N 0.402 0.8274 0.282   -0.273969
 O 0.8664 0.0222 0.2504   -0.527408
 O 0.655 0.9595 0.289   -0.513544
 O 0.6336 0.7718 0.7496   -0.527932
 O 0.845 0.6705 0.711   -0.514406
 O 0.1336 0.9778 0.7496   -0.527408
 O 0.345 0.0405 0.711   -0.513544
 O 0.3664 0.2282 0.2504   -0.527932
 O 0.155 0.3295 0.289   -0.514406
