{'_ref': 'TBD', '_srcid': 'CAKYAQ_clean', 'submitters': [{'name': 'Dalar Nazarian Jeff Camp and David Sholl', 'email': 'dalar@gatech.edu jcamp6@gatech.edu'}], '_method': 'VASP DFT with PBE;DDEC'}
data_CoH8C13NO5
_symmetry_space_group_name_H-M   'P 1'
_cell_length_a   7.16680062
_cell_length_b   9.85239954
_cell_length_c   12.37220000
_cell_angle_alpha   88.71459851
_cell_angle_beta   73.16399744
_cell_angle_gamma   85.55789826
_symmetry_Int_Tables_number   1
_chemical_formula_structural   CoH8C13NO5
_chemical_formula_sum   'Co2 H16 C26 N2 O10'
_cell_volume   833.646923218
_cell_formula_units_Z   2
loop_
 _symmetry_equiv_pos_site_id
 _symmetry_equiv_pos_as_xyz
  1  'x, y, z'
loop_
 _atom_site_label
 _atom_site_fract_x
 _atom_site_fract_y
 _atom_site_fract_z
 _atom_site_charge
 Co 0.5 0.5 0.5   1.157516
 Co 0.0 0.5 0.5   1.15672
 H 0.5478 0.1432 0.3658   0.094555
 H 0.1043 0.0877 0.3696   0.09749
 H 0.5019 0.3023 0.9134   0.12635
 H 0.5969 0.3048 0.7196   0.141144
 H 0.0864 0.8568 0.3658   0.094127
 H 0.5261 0.9123 0.3696   0.097713
 H 0.5847 0.6977 0.9134   0.126201
 H 0.6835 0.6952 0.7196   0.141467
 H 0.4522 0.8568 0.6342   0.094554
 H 0.8957 0.9123 0.6304   0.097489
 H 0.4981 0.6977 0.0866   0.126359
 H 0.4031 0.6952 0.2804   0.141143
 H 0.9136 0.1432 0.6342   0.094127
 H 0.4739 0.0877 0.6304   0.097712
 H 0.4153 0.3023 0.0866   0.126209
 H 0.3165 0.3048 0.2804   0.141465
 C 0.82627 0.1415 0.37146   -0.129293
 C 0.6555 0.0858 0.3686   -0.056355
 C 0.9872 0.0529 0.3698   -0.072641
 C 0.82804 0.2917 0.38892   0.698732
 C 0.5375 0.3831 0.8754   -0.147527
 C 0.59479 0.384 0.75962   0.008717
 C 0.80227 0.8585 0.37146   -0.130431
 C 0.9759 0.9142 0.3686   -0.056135
 C 0.643 0.9471 0.3698   -0.073036
 C 0.78304 0.7083 0.38892   0.700225
 C 0.5871 0.6169 0.8754   -0.148015
 C 0.64559 0.616 0.75962   0.008979
 C 0.17373 0.8585 0.62854   -0.129292
 C 0.3445 0.9142 0.6314   -0.056354
 C 0.0128 0.9471 0.6302   -0.07264
 C 0.17196 0.7083 0.61108   0.698731
 C 0.4625 0.6169 0.1246   -0.147531
 C 0.40521 0.616 0.24038   0.008719
 C 0.19773 0.1415 0.62854   -0.13043
 C 0.0241 0.0858 0.6314   -0.056134
 C 0.357 0.0529 0.6302   -0.073036
 C 0.21696 0.2917 0.61108   0.700223
 C 0.4129 0.3831 0.1246   -0.148019
 C 0.35441 0.384 0.24038   0.00898
 C 0.5314 0.5 0.9372   0.047296
 C 0.4686 0.5 0.0628   0.047276
 N 0.6477 0.5 0.7046   0.359232
 N 0.3523 0.5 0.2954   0.359232
 O 0.68254 0.3664 0.38072   -0.631613
 O 0.97499 0.33 0.41282   -0.620933
 O 0.93674 0.6336 0.38072   -0.631539
 O 0.61219 0.67 0.41282   -0.621407
 O 0.31746 0.6336 0.61928   -0.631613
 O 0.02501 0.67 0.58718   -0.620933
 O 0.06326 0.3664 0.61928   -0.631539
 O 0.38781 0.33 0.58718   -0.621406
 O 0.70414 0.5 0.59172   -0.580415
 O 0.29586 0.5 0.40828   -0.580415
