{'_ref': 'TBD', '_srcid': 'CAKYAQ_clean', 'submitters': [{'name': 'Dalar Nazarian Jeff Camp and David Sholl', 'email': 'dalar@gatech.edu jcamp6@gatech.edu'}], '_method': 'VASP DFT with PBE;DDEC'}
data_GdH6(C2O)6
_symmetry_space_group_name_H-M   'P 1'
_cell_length_a   8.60660020
_cell_length_b   10.15600004
_cell_length_c   11.16100000
_cell_angle_alpha   65.26000318
_cell_angle_beta   71.76000044
_cell_angle_gamma   78.68000029
_symmetry_Int_Tables_number   1
_chemical_formula_structural   GdH6(C2O)6
_chemical_formula_sum   'Gd2 H12 C24 O12'
_cell_volume   839.092332914
_cell_formula_units_Z   2
loop_
 _symmetry_equiv_pos_site_id
 _symmetry_equiv_pos_as_xyz
  1  'x, y, z'
loop_
 _atom_site_label
 _atom_site_fract_x
 _atom_site_fract_y
 _atom_site_fract_z
 _atom_site_charge
 Gd 0.86814 0.56025 0.34671   2.104771
 Gd 0.13186 0.43975 0.65329   2.104769
 H 0.9287 0.7814 0.6811   0.108164
 H 0.0167 0.0274 0.2803   0.118748
 H 0.3653 0.8849 0.2273   0.098498
 H 0.7713 0.9312 0.9189   0.104524
 H 0.4575 0.6451 0.1223   0.088263
 H 0.284 0.3834 0.0148   0.10728
 H 0.0713 0.2186 0.3189   0.108164
 H 0.9833 0.9726 0.7197   0.118749
 H 0.6347 0.1151 0.7727   0.098497
 H 0.2287 0.0688 0.0811   0.104525
 H 0.5425 0.3549 0.8777   0.088263
 H 0.716 0.6166 0.9852   0.10728
 C 0.9316 0.7652 0.4474   0.754342
 C 0.9674 0.8856 0.4764   -0.133509
 C 0.9572 0.8688 0.6085   -0.074091
 C 0.01 0.0164 0.3687   -0.03817
 C 0.6746 0.768 0.1801   0.692777
 C 0.5826 0.889 0.0889   -0.10281
 C 0.4199 0.9309 0.136   -0.046691
 C 0.662 0.9589 0.9518   -0.054953
 C 0.1789 0.5389 0.1691   0.691693
 C 0.3452 0.5177 0.0824   -0.10678
 C 0.4747 0.5867 0.073   -0.059386
 C 0.3704 0.4302 0.009   -0.068588
 C 0.0684 0.2348 0.5526   0.754342
 C 0.0326 0.1144 0.5236   -0.13351
 C 0.0428 0.1312 0.3915   -0.074087
 C 0.99 0.9836 0.6313   -0.038167
 C 0.3254 0.232 0.8199   0.692778
 C 0.4174 0.111 0.9111   -0.102812
 C 0.5801 0.0691 0.864   -0.046682
 C 0.338 0.0411 0.0482   -0.054945
 C 0.8211 0.4611 0.8309   0.691693
 C 0.6548 0.4823 0.9176   -0.106781
 C 0.5253 0.4133 0.927   -0.059384
 C 0.6296 0.5698 0.991   -0.068585
 O 0.9638 0.63354 0.51944   -0.851787
 O 0.8689 0.79781 0.3509   -0.617189
 O 0.6022 0.7004 0.30452   -0.742855
 O 0.8217 0.735 0.13105   -0.644506
 O 0.1569 0.61894 0.23584   -0.663734
 O 0.0631 0.47663 0.17499   -0.664024
 O 0.0362 0.36646 0.48056   -0.851787
 O 0.1311 0.20219 0.6491   -0.617189
 O 0.3978 0.2996 0.69548   -0.742855
 O 0.1783 0.265 0.86895   -0.644506
 O 0.8431 0.38106 0.76416   -0.663734
 O 0.9369 0.52337 0.82501   -0.664024
