{'_ref': 'TBD', '_srcid': 'CAKYAQ_clean', 'submitters': [{'name': 'Dalar Nazarian Jeff Camp and David Sholl', 'email': 'dalar@gatech.edu jcamp6@gatech.edu'}], '_method': 'VASP DFT with PBE;DDEC'}
data_ZnH16C23NO4
_symmetry_space_group_name_H-M   'P 1'
_cell_length_a   14.03339980
_cell_length_b   17.73210020
_cell_length_c   17.73210000
_cell_angle_alpha   104.17200047
_cell_angle_beta   92.19829837
_cell_angle_gamma   92.19830047
_symmetry_Int_Tables_number   1
_chemical_formula_structural   ZnH16C23NO4
_chemical_formula_sum   'Zn6 H96 C138 N6 O24'
_cell_volume   4269.84789625
_cell_formula_units_Z   6
loop_
 _symmetry_equiv_pos_site_id
 _symmetry_equiv_pos_as_xyz
  1  'x, y, z'
loop_
 _atom_site_label
 _atom_site_fract_x
 _atom_site_fract_y
 _atom_site_fract_z
 _atom_site_charge
 Zn 0.10478 0.08897 0.92127   0.912214
 Zn 0.89522 0.07873 0.91103   0.912214
 Zn 0.41925 0.28985 0.4572   0.901495
 Zn 0.20921 0.27686 0.44576   0.913483
 Zn 0.58075 0.5428 0.71015   0.901494
 Zn 0.79079 0.55424 0.72314   0.913482
 H 0.8516 0.3215 0.9037   0.110508
 H 0.1411 0.3386 0.9594   0.101341
 H 0.2355 0.452 0.9612   0.118272
 H 0.1938 0.5083 0.9113   0.114733
 H 0.1796 0.5268 0.003   0.124234
 H 0.8631 0.4503 0.8901   0.118465
 H 0.8604 0.6976 0.897   0.122444
 H 0.2317 0.7567 0.9519   0.11707
 H 0.1776 0.6968 0.992   0.131021
 H 0.1972 0.6717 0.9011   0.103493
 H 0.1348 0.8556 0.9252   0.096566
 H 0.8541 0.8271 0.8939   0.095382
 H 0.2623 0.1133 0.8187   0.089393
 H 0.2686 0.0581 0.0227   0.105417
 H 0.4326 0.0526 0.0224   0.138508
 H 0.4243 0.1089 0.8155   0.128689
 H 0.1484 0.0963 0.6785   0.110508
 H 0.8589 0.0406 0.6614   0.101341
 H 0.7645 0.0388 0.548   0.118272
 H 0.8062 0.0887 0.4917   0.114733
 H 0.8204 0.997 0.4732   0.124234
 H 0.1369 0.1099 0.5497   0.118465
 H 0.1396 0.103 0.3024   0.122444
 H 0.7683 0.0481 0.2433   0.117071
 H 0.8224 0.008 0.3032   0.131021
 H 0.8028 0.0989 0.3283   0.103493
 H 0.8652 0.0748 0.1444   0.096566
 H 0.1459 0.1061 0.1729   0.095383
 H 0.7377 0.1813 0.8867   0.089393
 H 0.7314 0.9773 0.9419   0.105417
 H 0.5674 0.9776 0.9474   0.138508
 H 0.5757 0.1845 0.8911   0.128688
 H 0.4598 0.2845 0.2203   0.109368
 H 0.1661 0.2542 0.1928   0.10894
 H 0.1763 0.2619 0.0647   0.121132
 H 0.5158 0.3433 0.0679   0.122562
 H 0.5547 0.2869 0.1189   0.122044
 H 0.51 0.2511 0.0325   0.102785
 H 0.5142 0.3181 0.8789   0.114529
 H 0.5285 0.3821 0.8299   0.132809
 H 0.4669 0.4006 0.9058   0.12385
 H 0.1853 0.2494 0.8148   0.115601
 H 0.1802 0.2542 0.6856   0.09467
 H 0.4429 0.3502 0.7114   0.098243
 H 0.4628 0.0521 0.4607   0.09089
 H 0.187 0.0296 0.418   0.088974
 H 0.1862 0.897 0.4236   0.122376
 H 0.5613 0.9541 0.4791   0.116334
 H 0.5083 0.8897 0.5143   0.115928
 H 0.5314 0.8699 0.4241   0.124981
 H 0.1943 0.6405 0.4003   0.115076
 H 0.5295 0.7022 0.5002   0.13103
 H 0.4608 0.7468 0.5646   0.112989
 H 0.5149 0.6729 0.5777   0.130771
 H 0.4429 0.5473 0.5283   0.103193
 H 0.1837 0.5138 0.4084   0.114634
 H 0.5656 0.2299 0.3433   0.09081
 H 0.5923 0.3698 0.5526   0.090556
 H 0.7564 0.3645 0.5531   0.136989
 H 0.7258 0.2218 0.3364   0.133989
 H 0.8893 0.2867 0.5617   0.14206
 H 0.8812 0.2751 0.3311   0.132116
 H 0.0448 0.2704 0.334   0.089807
 H 0.055 0.2835 0.5563   0.085857
 H 0.5402 0.7797 0.7155   0.109368
 H 0.8339 0.8072 0.7458   0.10894
 H 0.8237 0.9353 0.7381   0.121132
 H 0.4842 0.9321 0.6567   0.122562
 H 0.4453 0.8811 0.7131   0.122044
 H 0.49 0.9675 0.7489   0.102785
 H 0.4858 0.1211 0.6819   0.114529
 H 0.4715 0.1701 0.6179   0.132809
 H 0.5331 0.0942 0.5994   0.123851
 H 0.8147 0.1852 0.7506   0.115601
 H 0.8198 0.3144 0.7458   0.09467
 H 0.5571 0.2886 0.6498   0.098242
 H 0.5372 0.5393 0.9479   0.09089
 H 0.813 0.582 0.9704   0.088974
 H 0.8138 0.5764 0.103   0.122376
 H 0.4387 0.5209 0.0459   0.116334
 H 0.4917 0.4857 0.1103   0.115928
 H 0.4686 0.5759 0.1301   0.124981
 H 0.8057 0.5997 0.3595   0.115076
 H 0.4705 0.4998 0.2978   0.13103
 H 0.5392 0.4354 0.2532   0.112988
 H 0.4851 0.4223 0.3271   0.130771
 H 0.5571 0.4717 0.4527   0.103193
 H 0.8163 0.5916 0.4862   0.114635
 H 0.4344 0.6567 0.7701   0.090811
 H 0.4077 0.4474 0.6302   0.090552
 H 0.2436 0.4469 0.6355   0.136991
 H 0.2742 0.6636 0.7782   0.133989
 H 0.1107 0.4383 0.7133   0.14206
 H 0.1188 0.6689 0.7249   0.132116
 H 0.9552 0.666 0.7296   0.089807
 H 0.945 0.4437 0.7165   0.085857
 C 0.9958 0.233 0.9296   0.671045
 C 0.9992 0.31513 0.92787   -0.131141
 C 0.9112 0.3501 0.9109   -0.066797
 C 0.0852 0.3611 0.9447   -0.113393
 C 0.0904 0.437 0.9404   0.083698
 C 0.1829 0.48519 0.95521   -0.34392
 C 0.9182 0.42746 0.90574   -0.122902
 C 0.0022 0.471 0.9226   0.046809
 C 0.0073 0.5533 0.9215   -0.096519
 C 0.0086 0.6197 0.9213   -0.085089
 C 0.0034 0.7008 0.9174   0.037828
 C 0.9173 0.7298 0.9038   -0.116729
 C 0.0887 0.7451 0.9259   0.071208
 C 0.1817 0.71507 0.94433   -0.339778
 C 0.0786 0.82261 0.91919   -0.121525
 C 0.914 0.80564 0.90016   -0.057751
 C 0.9979 0.85182 0.90558   -0.102519
 C 0.9929 0.93774 0.90606   0.675216
 C 0.2972 0.10079 0.86061   0.190116
 C 0.3011 0.06839 0.98001   0.16321
 C 0.3981 0.06554 0.98046   -0.208554
 C 0.3935 0.09866 0.85894   -0.201905
 C 0.4468 0.0824 0.9174   0.107564
 C 0.0042 0.0704 0.767   0.671044
 C 0.000799999999998 0.07213 0.68487   -0.131141
 C 0.0888 0.0891 0.6499   -0.066798
 C 0.9148 0.0553 0.6389   -0.113393
 C 0.9096 0.0596 0.563   0.083698
 C 0.8171 0.04479 0.51481   -0.34392
 C 0.0818 0.09426 0.57254   -0.122901
 C 0.9978 0.0774 0.529   0.04681
 C 0.9927 0.0785 0.4467   -0.096527
 C 0.9914 0.0787 0.3803   -0.085078
 C 0.9966 0.0826 0.2992   0.037824
 C 0.0827 0.0962 0.2702   -0.116728
 C 0.9113 0.0741 0.2549   0.071209
 C 0.8183 0.05567 0.28493   -0.339779
 C 0.9214 0.08081 0.17739   -0.121524
 C 0.086 0.09984 0.19436   -0.057751
 C 0.0021 0.09442 0.14818   -0.102518
 C 0.0071 0.09394 0.06226   0.675215
 C 0.7028 0.13939 0.89921   0.190116
 C 0.6989 0.01999 0.93161   0.16321
 C 0.6019 0.01954 0.93446   -0.208554
 C 0.6065 0.14106 0.90134   -0.201905
 C 0.5532 0.0826 0.9176   0.107564
 C 0.3083 0.2695 0.3031   0.693532
 C 0.3105 0.2715 0.2221   -0.128433
 C 0.4024 0.2817 0.1893   -0.132004
 C 0.2265 0.26315 0.17325   -0.052711
 C 0.2328 0.2681 0.0973   -0.10511
 C 0.406 0.2874 0.1126   0.070349
 C 0.5057 0.2926 0.08   -0.341954
 C 0.3226 0.2824 0.0662   0.034906
 C 0.3227 0.2879 0.9879   -0.067021
 C 0.3212 0.2917 0.9215   -0.09804
 C 0.32 0.2973 0.8431   0.036045
 C 0.3969 0.3278 0.8122   0.100355
 C 0.484 0.3598 0.8608   -0.358718
 C 0.2393 0.27 0.7944   -0.119185
 C 0.2366 0.2724 0.7174   -0.069067
 C 0.3906 0.3288 0.733   -0.140312
 C 0.3112 0.29964 0.68656   -0.110017
 C 0.3145 0.29492 0.59768   0.657292
 C 0.3251 0.13705 0.43875   0.675155
 C 0.3279 0.05006 0.43614   -0.099055
 C 0.4064 0.019 0.4494   -0.113806
 C 0.2453 0.0068 0.4266   -0.057926
 C 0.2445 0.9274 0.4294   -0.137525
 C 0.4149 0.9407 0.4485   0.064982
 C 0.513 0.9109 0.4683   -0.33894
 C 0.3298 0.8956 0.4406   0.055164
 C 0.3281 0.8157 0.4477   -0.087753
 C 0.3296 0.7507 0.4533   -0.106491
 C 0.3247 0.6709 0.4597   0.04831
 C 0.2447 0.6207 0.4259   -0.126645
 C 0.4003 0.64301 0.49879   0.093218
 C 0.4837 0.6959 0.5389   -0.355858
 C 0.3937 0.56658 0.50102   -0.116092
 C 0.2388 0.5462 0.4292   -0.072087
 C 0.3185 0.5157 0.4651   -0.124599
 C 0.3141 0.4335 0.4693   0.663444
 C 0.6053 0.25572 0.38728   0.17298
 C 0.6206 0.33707 0.50947   0.182831
 C 0.718 0.33515 0.50983   -0.195787
 C 0.6995 0.25099 0.38241   -0.211804
 C 0.7591 0.28988 0.44628   0.112905
 C 0.8656 0.28283 0.44503   0.100344
 C 0.9193 0.28413 0.51407   -0.195558
 C 0.915 0.27715 0.37905   -0.197591
 C 0.013 0.27436 0.38104   0.183587
 C 0.018 0.28163 0.50977   0.161859
 C 0.6917 0.6969 0.7305   0.693532
 C 0.6895 0.7779 0.7285   -0.128433
 C 0.5976 0.8107 0.7183   -0.132004
 C 0.7735 0.82675 0.73685   -0.052711
 C 0.7672 0.9027 0.7319   -0.10511
 C 0.594 0.8874 0.7126   0.070349
 C 0.4943 0.92 0.7074   -0.341954
 C 0.6774 0.9338 0.7176   0.034906
 C 0.6773 0.0121 0.7121   -0.067022
 C 0.6788 0.0785 0.7083   -0.098039
 C 0.68 0.1569 0.7027   0.036043
 C 0.6031 0.1878 0.6722   0.100357
 C 0.516 0.1392 0.6402   -0.358721
 C 0.7607 0.2056 0.73   -0.119185
 C 0.7634 0.2826 0.7276   -0.069067
 C 0.6094 0.267 0.6712   -0.140309
 C 0.6888 0.31344 0.70036   -0.11002
 C 0.6855 0.40232 0.70508   0.657292
 C 0.6749 0.56125 0.86295   0.675155
 C 0.6721 0.56386 0.94994   -0.099055
 C 0.5936 0.5506 0.981   -0.113806
 C 0.7547 0.5734 0.9932   -0.057926
 C 0.7555 0.5706 0.0726   -0.137525
 C 0.5851 0.5515 0.0593   0.064982
 C 0.487 0.5317 0.0891   -0.33894
 C 0.6702 0.5594 0.1044   0.055164
 C 0.6719 0.5523 0.1843   -0.087753
 C 0.6704 0.5467 0.2493   -0.106491
 C 0.6753 0.5403 0.3291   0.04831
 C 0.7553 0.5741 0.3793   -0.126645
 C 0.5997 0.50121 0.35699   0.093218
 C 0.5163 0.4611 0.3041   -0.355858
 C 0.6063 0.49898 0.43342   -0.116092
 C 0.7612 0.5708 0.4538   -0.072087
 C 0.6815 0.5349 0.4843   -0.124599
 C 0.6859 0.5307 0.5665   0.663444
 C 0.3947 0.61272 0.74428   0.172979
 C 0.3794 0.49053 0.66293   0.182842
 C 0.282 0.49017 0.66485   -0.195795
 C 0.3005 0.61759 0.74901   -0.211804
 C 0.2409 0.55372 0.71012   0.112907
 C 0.1344 0.55497 0.71717   0.100344
 C 0.0807 0.48593 0.71587   -0.195558
 C 0.085 0.62095 0.72285   -0.197591
 C 0.987 0.61896 0.72564   0.183587
 C 0.982 0.49023 0.71837   0.161859
 N 0.2492 0.08561 0.92041   -0.296772
 N 0.7508 0.07959 0.91439   -0.296772
 N 0.5636 0.29481 0.45077   -0.297279
 N 0.0638 0.27681 0.44461   -0.284575
 N 0.4364 0.54923 0.70519   -0.297279
 N 0.9362 0.55539 0.72319   -0.284575
 O 0.0701 0.9729 0.9021   -0.590993
 O 0.9103 0.96258 0.90482   -0.590515
 O 0.9163 0.19479 0.91841   -0.592748
 O 0.0762 0.20225 0.93965   -0.599471
 O 0.9299 0.0979 0.0271   -0.590993
 O 0.0897 0.09518 0.03742   -0.590515
 O 0.0837 0.08159 0.80521   -0.592748
 O 0.9238 0.06035 0.79775   -0.599471
 O 0.3848 0.27613 0.34207   -0.60078
 O 0.2271 0.26497 0.33181   -0.602047
 O 0.3919 0.29984 0.57156   -0.535848
 O 0.2322 0.28992 0.56362   -0.60429
 O 0.4024 0.17299 0.44391   -0.582754
 O 0.2436 0.16328 0.43392   -0.593706
 O 0.3956 0.40373 0.47547   -0.595716
 O 0.2367 0.39406 0.45994   -0.596472
 O 0.6152 0.65793 0.72387   -0.60078
 O 0.7729 0.66819 0.73503   -0.602047
 O 0.6081 0.42844 0.70016   -0.535848
 O 0.7678 0.43638 0.71008   -0.604287
 O 0.5976 0.55609 0.82701   -0.582754
 O 0.7564 0.56608 0.83672   -0.593706
 O 0.6044 0.52453 0.59627   -0.595716
 O 0.7633 0.54006 0.60594   -0.596472
