{'_ref': 'TBD', '_srcid': 'CAKYAQ_clean', 'submitters': [{'name': 'Dalar Nazarian Jeff Camp and David Sholl', 'email': 'dalar@gatech.edu jcamp6@gatech.edu'}], '_method': 'VASP DFT with PBE;DDEC'}
data_CoH6(C3N2)2
_symmetry_space_group_name_H-M   'P 1'
_cell_length_a   9.45260000
_cell_length_b   24.34060007
_cell_length_c   24.84700000
_cell_angle_alpha   91.87699929
_cell_angle_beta   90.00000000
_cell_angle_gamma   90.00000000
_symmetry_Int_Tables_number   1
_chemical_formula_structural   CoH6(C3N2)2
_chemical_formula_sum   'Co20 H120 C120 N80'
_cell_volume   5713.7789639
_cell_formula_units_Z   20
loop_
 _symmetry_equiv_pos_site_id
 _symmetry_equiv_pos_as_xyz
  1  'x, y, z'
loop_
 _atom_site_label
 _atom_site_fract_x
 _atom_site_fract_y
 _atom_site_fract_z
 _atom_site_charge
 Co 0.04557 0.26288 0.67944   0.788444
 Co 0.2597 0.48431 0.71488   0.793478
 Co 0.76462 0.46921 0.8581   0.796768
 Co 0.66747 0.16012 0.51687   0.786807
 Co 0.46415 0.71489 0.68106   0.804613
 Co 0.54557 0.23712 0.82056   0.788444
 Co 0.7597 0.01569 0.78512   0.793478
 Co 0.26462 0.03079 0.6419   0.796768
 Co 0.16747 0.33988 0.98313   0.786807
 Co 0.96415 0.78511 0.81894   0.804613
 Co 0.95443 0.73712 0.32056   0.788444
 Co 0.7403 0.51569 0.28512   0.793478
 Co 0.23538 0.53079 0.1419   0.796768
 Co 0.33253 0.83988 0.48313   0.786807
 Co 0.53585 0.28511 0.31894   0.804613
 Co 0.45443 0.76288 0.17944   0.788444
 Co 0.2403 0.98431 0.21488   0.793478
 Co 0.73538 0.96921 0.3581   0.796768
 Co 0.83253 0.66012 0.01687   0.786807
 Co 0.03585 0.21489 0.18106   0.804613
 H 0.7814 0.353 0.6802   0.10818
 H 0.5727 0.3425 0.7385   0.092422
 H 0.8337 0.2189 0.7648   0.062604
 H 0.2998 0.3093 0.6037   0.093083
 H 0.3867 0.4055 0.6139   0.102532
 H 0.0575 0.3888 0.7087   0.048648
 H 0.9914 0.5701 0.705   0.101356
 H 0.7865 0.5671 0.7674   0.081099
 H 0.0568 0.452 0.8071   0.052393
 H 0.2526 0.5402 0.5997   0.125473
 H 0.3773 0.632 0.5861   0.095554
 H 0.3695 0.6044 0.7395   0.057212
 H 0.3467 0.1576 0.6807   0.081399
 H 0.5177 0.2122 0.6317   0.100553
 H 0.4581 0.0708 0.5512   0.060903
 H 0.8658 0.9731 0.4769   0.087571
 H 0.837 0.0521 0.5414   0.089512
 H 0.6357 0.0855 0.4076   0.063301
 H 0.4889 0.3909 0.8711   0.082328
 H 0.2777 0.3977 0.8114   0.093392
 H 0.5631 0.506 0.767   0.051603
 H 0.3942 0.2324 0.506   0.09048
 H 0.3365 0.2877 0.4253   0.10762
 H 0.6933 0.2076 0.3989   0.062818
 H 0.0116 0.1565 0.5015   0.101429
 H 0.1765 0.1982 0.5687   0.095007
 H 0.7832 0.2228 0.6193   0.052038
 H 0.429 0.8351 0.7363   0.082075
 H 0.2279 0.8635 0.793   0.100114
 H 0.1627 0.7101 0.7407   0.060817
 H 0.2814 0.147 0.8198   0.10818
 H 0.0727 0.1575 0.7615   0.092422
 H 0.3337 0.2811 0.7352   0.062604
 H 0.7998 0.1907 0.8963   0.093083
 H 0.8867 0.0945 0.8861   0.102532
 H 0.5575 0.1112 0.7913   0.048648
 H 0.4914 0.9299 0.795   0.101356
 H 0.2865 0.9329 0.7326   0.081099
 H 0.5568 0.048 0.6929   0.052393
 H 0.7526 0.9598 0.9003   0.125473
 H 0.8773 0.868 0.9139   0.095554
 H 0.8695 0.8956 0.7605   0.057212
 H 0.8467 0.3424 0.8193   0.081399
 H 0.0177 0.2878 0.8683   0.100553
 H 0.9581 0.4292 0.9488   0.060903
 H 0.3658 0.5269 0.0231   0.087571
 H 0.337 0.4479 0.9586   0.089512
 H 0.1357 0.4145 0.0924   0.063301
 H 0.9889 0.1091 0.6289   0.082328
 H 0.7777 0.1023 0.6886   0.093392
 H 0.0631 0.994 0.733   0.051603
 H 0.8942 0.2676 0.994   0.09048
 H 0.8365 0.2123 0.0747   0.10762
 H 0.1933 0.2924 0.1011   0.062818
 H 0.5116 0.3435 0.9985   0.101429
 H 0.6765 0.3018 0.9313   0.095007
 H 0.2832 0.2772 0.8807   0.052038
 H 0.929 0.6649 0.7637   0.082075
 H 0.7279 0.6365 0.707   0.100113
 H 0.6627 0.7899 0.7593   0.060816
 H 0.2186 0.647 0.3198   0.10818
 H 0.4273 0.6575 0.2615   0.092422
 H 0.1663 0.7811 0.2352   0.062604
 H 0.7002 0.6907 0.3963   0.093083
 H 0.6133 0.5945 0.3861   0.102532
 H 0.9425 0.6112 0.2913   0.048648
 H 0.0086 0.4299 0.295   0.101356
 H 0.2135 0.4329 0.2326   0.081099
 H 0.9432 0.548 0.1929   0.052393
 H 0.7474 0.4598 0.4003   0.125473
 H 0.6227 0.368 0.4139   0.095554
 H 0.6305 0.3956 0.2605   0.057212
 H 0.6533 0.8424 0.3193   0.081399
 H 0.4823 0.7878 0.3683   0.100553
 H 0.5419 0.9292 0.4488   0.060903
 H 0.1342 0.0269 0.5231   0.087572
 H 0.163 0.9479 0.4586   0.089512
 H 0.3643 0.9145 0.5924   0.063301
 H 0.5111 0.6091 0.1289   0.082328
 H 0.7223 0.6023 0.1886   0.093392
 H 0.4369 0.494 0.233   0.051603
 H 0.6058 0.7676 0.494   0.09048
 H 0.6635 0.7123 0.5747   0.10762
 H 0.3067 0.7924 0.6011   0.062818
 H 0.9884 0.8435 0.4985   0.101429
 H 0.8235 0.8018 0.4313   0.095007
 H 0.2168 0.7772 0.3807   0.052038
 H 0.571 0.1649 0.2637   0.082075
 H 0.7721 0.1365 0.207   0.100114
 H 0.8373 0.2899 0.2593   0.060817
 H 0.7186 0.853 0.1802   0.10818
 H 0.9273 0.8425 0.2385   0.092422
 H 0.6663 0.7189 0.2648   0.062604
 H 0.2002 0.8093 0.1037   0.093083
 H 0.1133 0.9055 0.1139   0.102532
 H 0.4425 0.8888 0.2087   0.048648
 H 0.5086 0.0701 0.205   0.101356
 H 0.7135 0.0671 0.2674   0.081099
 H 0.4432 0.952 0.3071   0.052393
 H 0.2474 0.0402 0.0997   0.125473
 H 0.1227 0.132 0.0861   0.095554
 H 0.1305 0.1044 0.2395   0.057212
 H 0.1533 0.6576 0.1807   0.081399
 H 0.9823 0.7122 0.1317   0.100553
 H 0.0419 0.5708 0.0512   0.060903
 H 0.6342 0.4731 0.9769   0.087572
 H 0.663 0.5521 0.0414   0.089512
 H 0.8643 0.5855 0.9076   0.063301
 H 0.0111 0.8909 0.3711   0.082328
 H 0.2223 0.8977 0.3114   0.093392
 H 0.9369 0.006 0.267   0.051603
 H 0.1058 0.7324 0.006   0.09048
 H 0.1635 0.7877 0.9253   0.10762
 H 0.8067 0.7076 0.8989   0.062818
 H 0.4884 0.6565 0.0015   0.101429
 H 0.3235 0.6982 0.0687   0.095007
 H 0.7168 0.7228 0.1193   0.052038
 H 0.071 0.3351 0.2363   0.082075
 H 0.2721 0.3635 0.293   0.100113
 H 0.3373 0.2101 0.2407   0.060816
 C 0.7671 0.3246 0.7049   -0.037168
 C 0.6521 0.3185 0.7369   0.010372
 C 0.7951 0.2516 0.751   0.221996
 C 0.2605 0.3371 0.6269   -0.028925
 C 0.3086 0.3905 0.6325   -0.021927
 C 0.1308 0.3806 0.6835   0.224659
 C 0.9805 0.5457 0.7337   -0.046394
 C 0.8665 0.5435 0.768   0.002397
 C 0.0146 0.4817 0.789   0.236937
 C 0.303 0.5619 0.6256   -0.088784
 C 0.365 0.6148 0.6195   -0.01415
 C 0.3697 0.5979 0.7016   0.250013
 C 0.3913 0.1467 0.6478   -0.002547
 C 0.4853 0.1766 0.6211   -0.026625
 C 0.4519 0.0997 0.5777   0.250344
 C 0.8152 0.0059 0.4701   -0.007541
 C 0.7985 0.0495 0.5061   -0.025682
 C 0.6907 0.0669 0.4334   0.211708
 C 0.4787 0.415 0.8421   -0.007624
 C 0.3617 0.4189 0.809   -0.015837
 C 0.5181 0.4772 0.7854   0.236094
 C 0.4495 0.2342 0.4742   -0.020376
 C 0.4161 0.2644 0.4291   -0.04393
 C 0.6093 0.221 0.4157   0.226772
 C 0.9848 0.1757 0.5339   -0.016437
 C 0.0762 0.198 0.5711   -0.011304
 C 0.862 0.2114 0.5979   0.24437
 C 0.3496 0.8128 0.7441   -0.004717
 C 0.2393 0.8284 0.7757   -0.031689
 C 0.2047 0.7451 0.747   0.2442
 C 0.2671 0.1754 0.7951   -0.037168
 C 0.1521 0.1815 0.7631   0.010372
 C 0.2951 0.2484 0.749   0.221996
 C 0.7605 0.1629 0.8731   -0.028925
 C 0.8086 0.1095 0.8675   -0.021927
 C 0.6308 0.1194 0.8165   0.224659
 C 0.4805 0.9543 0.7663   -0.046394
 C 0.3665 0.9565 0.732   0.002397
 C 0.5146 0.0183 0.711   0.236937
 C 0.803 0.9381 0.8744   -0.088784
 C 0.865 0.8852 0.8805   -0.01415
 C 0.8697 0.9021 0.7984   0.250013
 C 0.8913 0.3533 0.8522   -0.002547
 C 0.9853 0.3234 0.8789   -0.026625
 C 0.9519 0.4003 0.9223   0.250344
 C 0.3152 0.4941 0.0299   -0.007541
 C 0.2985 0.4505 0.9939   -0.025682
 C 0.1907 0.4331 0.0666   0.211708
 C 0.9787 0.085 0.6579   -0.007624
 C 0.8617 0.0811 0.691   -0.015837
 C 0.0181 0.0228 0.7146   0.236094
 C 0.9495 0.2658 0.0258   -0.020376
 C 0.9161 0.2356 0.0709   -0.04393
 C 0.1093 0.279 0.0843   0.226772
 C 0.4848 0.3243 0.9661   -0.016437
 C 0.5762 0.302 0.9289   -0.011304
 C 0.362 0.2886 0.9021   0.24437
 C 0.8496 0.6872 0.7559   -0.004717
 C 0.7393 0.6716 0.7243   -0.031689
 C 0.7047 0.7549 0.753   0.2442
 C 0.2329 0.6754 0.2951   -0.037168
 C 0.3479 0.6815 0.2631   0.010372
 C 0.2049 0.7484 0.249   0.221996
 C 0.7395 0.6629 0.3731   -0.028925
 C 0.6914 0.6095 0.3675   -0.021927
 C 0.8692 0.6194 0.3165   0.224659
 C 0.0195 0.4543 0.2663   -0.046394
 C 0.1335 0.4565 0.232   0.002397
 C 0.9854 0.5183 0.211   0.236937
 C 0.697 0.4381 0.3744   -0.088784
 C 0.635 0.3852 0.3805   -0.01415
 C 0.6303 0.4021 0.2984   0.250013
 C 0.6087 0.8533 0.3522   -0.002547
 C 0.5147 0.8234 0.3789   -0.026625
 C 0.5481 0.9003 0.4223   0.250344
 C 0.1848 0.9941 0.5299   -0.007541
 C 0.2015 0.9505 0.4939   -0.025682
 C 0.3093 0.9331 0.5666   0.211708
 C 0.5213 0.585 0.1579   -0.007624
 C 0.6383 0.5811 0.191   -0.015837
 C 0.4819 0.5228 0.2146   0.236094
 C 0.5505 0.7658 0.5258   -0.020377
 C 0.5839 0.7356 0.5709   -0.04393
 C 0.3907 0.779 0.5843   0.226772
 C 0.0152 0.8243 0.4661   -0.016437
 C 0.9238 0.802 0.4289   -0.011304
 C 0.138 0.7886 0.4021   0.24437
 C 0.6504 0.1872 0.2559   -0.004717
 C 0.7607 0.1716 0.2243   -0.031689
 C 0.7953 0.2549 0.253   0.2442
 C 0.7329 0.8246 0.2049   -0.037168
 C 0.8479 0.8185 0.2369   0.010372
 C 0.7049 0.7516 0.251   0.221996
 C 0.2395 0.8371 0.1269   -0.028925
 C 0.1914 0.8905 0.1325   -0.021927
 C 0.3692 0.8806 0.1835   0.224659
 C 0.5195 0.0457 0.2337   -0.046394
 C 0.6335 0.0435 0.268   0.002397
 C 0.4854 0.9817 0.289   0.236937
 C 0.197 0.0619 0.1256   -0.088784
 C 0.135 0.1148 0.1195   -0.01415
 C 0.1303 0.0979 0.2016   0.250013
 C 0.1087 0.6467 0.1478   -0.002547
 C 0.0147 0.6766 0.1211   -0.026625
 C 0.0481 0.5997 0.0777   0.250344
 C 0.6848 0.5059 0.9701   -0.007541
 C 0.7015 0.5495 0.0061   -0.025682
 C 0.8093 0.5669 0.9334   0.211708
 C 0.0213 0.915 0.3421   -0.007624
 C 0.1383 0.9189 0.309   -0.015837
 C 0.9819 0.9772 0.2854   0.236094
 C 0.0505 0.7342 0.9742   -0.020377
 C 0.0839 0.7644 0.9291   -0.04393
 C 0.8907 0.721 0.9157   0.226772
 C 0.5152 0.6757 0.0339   -0.016437
 C 0.4238 0.698 0.0711   -0.011304
 C 0.638 0.7114 0.0979   0.24437
 C 0.1504 0.3128 0.2441   -0.004717
 C 0.2607 0.3284 0.2757   -0.031689
 C 0.2953 0.2451 0.247   0.2442
 N 0.8598 0.2821 0.7144   -0.411174
 N 0.6684 0.2731 0.7661   -0.433967
 N 0.1476 0.3308 0.66   -0.401433
 N 0.226 0.4179 0.6687   -0.414737
 N 0.0759 0.5061 0.7484   -0.407178
 N 0.8867 0.5025 0.8024   -0.423169
 N 0.3352 0.5493 0.6797   -0.409341
 N 0.4045 0.637 0.6679   -0.415256
 N 0.3693 0.0973 0.6197   -0.422104
 N 0.5279 0.1464 0.5749   -0.435893
 N 0.7485 0.0168 0.4237   -0.416535
 N 0.7182 0.0879 0.4827   -0.40124
 N 0.5775 0.4522 0.8256   -0.414668
 N 0.3872 0.4584 0.7723   -0.431093
 N 0.5721 0.2083 0.4651   -0.409129
 N 0.5184 0.2542 0.3914   -0.406062
 N 0.8488 0.1852 0.5503   -0.420389
 N 0.9961 0.2203 0.613   -0.428829
 N 0.3294 0.7598 0.7252   -0.433974
 N 0.1457 0.7848 0.7787   -0.425659
 N 0.3598 0.2179 0.7856   -0.411174
 N 0.1684 0.2269 0.7339   -0.433967
 N 0.6476 0.1692 0.84   -0.401433
 N 0.726 0.0821 0.8313   -0.414737
 N 0.5759 0.9939 0.7516   -0.407178
 N 0.3867 0.9975 0.6976   -0.423169
 N 0.8352 0.9507 0.8203   -0.409341
 N 0.9045 0.863 0.8321   -0.415256
 N 0.8693 0.4027 0.8803   -0.422104
 N 0.0279 0.3536 0.9251   -0.435893
 N 0.2485 0.4832 0.0763   -0.416535
 N 0.2182 0.4121 0.0173   -0.40124
 N 0.0775 0.0478 0.6744   -0.414668
 N 0.8872 0.0416 0.7277   -0.431093
 N 0.0721 0.2917 0.0349   -0.409129
 N 0.0184 0.2458 0.1086   -0.406062
 N 0.3488 0.3148 0.9497   -0.420389
 N 0.4961 0.2797 0.887   -0.428829
 N 0.8294 0.7402 0.7748   -0.433975
 N 0.6457 0.7152 0.7213   -0.425659
 N 0.1402 0.7179 0.2856   -0.411174
 N 0.3316 0.7269 0.2339   -0.433967
 N 0.8524 0.6692 0.34   -0.401433
 N 0.774 0.5821 0.3313   -0.414737
 N 0.9241 0.4939 0.2516   -0.407178
 N 0.1133 0.4975 0.1976   -0.423169
 N 0.6648 0.4507 0.3203   -0.409341
 N 0.5955 0.363 0.3321   -0.415256
 N 0.6307 0.9027 0.3803   -0.422104
 N 0.4721 0.8536 0.4251   -0.435893
 N 0.2515 0.9832 0.5763   -0.416535
 N 0.2818 0.9121 0.5173   -0.40124
 N 0.4225 0.5478 0.1744   -0.414668
 N 0.6128 0.5416 0.2277   -0.431093
 N 0.4279 0.7917 0.5349   -0.409129
 N 0.4816 0.7458 0.6086   -0.406062
 N 0.1512 0.8148 0.4497   -0.420389
 N 0.0039 0.7797 0.387   -0.428829
 N 0.6706 0.2402 0.2748   -0.433975
 N 0.8543 0.2152 0.2213   -0.425659
 N 0.6402 0.7821 0.2144   -0.411174
 N 0.8316 0.7731 0.2661   -0.433967
 N 0.3524 0.8308 0.16   -0.401433
 N 0.274 0.9179 0.1687   -0.414737
 N 0.4241 0.0061 0.2484   -0.407178
 N 0.6133 0.0025 0.3024   -0.423169
 N 0.1648 0.0493 0.1797   -0.409341
 N 0.0955 0.137 0.1679   -0.415256
 N 0.1307 0.5973 0.1197   -0.422104
 N 0.9721 0.6464 0.0749   -0.435893
 N 0.7515 0.5168 0.9237   -0.416535
 N 0.7818 0.5879 0.9827   -0.40124
 N 0.9225 0.9522 0.3256   -0.414668
 N 0.1128 0.9584 0.2723   -0.431093
 N 0.9279 0.7083 0.9651   -0.409129
 N 0.9816 0.7542 0.8914   -0.406062
 N 0.6512 0.6852 0.0503   -0.420389
 N 0.5039 0.7203 0.113   -0.428829
 N 0.1706 0.2598 0.2252   -0.433975
 N 0.3543 0.2848 0.2787   -0.425659
