{'_ref': 'TBD', '_srcid': 'CAKYAQ_clean', 'submitters': [{'name': 'Dalar Nazarian Jeff Camp and David Sholl', 'email': 'dalar@gatech.edu jcamp6@gatech.edu'}], '_method': 'VASP DFT with PBE;DDEC'}
data_Zn5H14C26(NO)12
_symmetry_space_group_name_H-M   'P 1'
_cell_length_a   9.86229961
_cell_length_b   13.19490036
_cell_length_c   17.89530000
_cell_angle_alpha   84.08940195
_cell_angle_beta   74.00499920
_cell_angle_gamma   68.05520014
_symmetry_Int_Tables_number   1
_chemical_formula_structural   Zn5H14C26(NO)12
_chemical_formula_sum   'Zn10 H28 C52 N24 O24'
_cell_volume   2076.39734901
_cell_formula_units_Z   2
loop_
 _symmetry_equiv_pos_site_id
 _symmetry_equiv_pos_as_xyz
  1  'x, y, z'
loop_
 _atom_site_label
 _atom_site_fract_x
 _atom_site_fract_y
 _atom_site_fract_z
 _atom_site_charge
 Zn 0.52513 0.81928 0.16798   0.997683
 Zn 0.86673 0.1022 0.19454   0.853062
 Zn 0.51239 0.18072 0.83202   0.997401
 Zn 0.16348 0.89779 0.80545   0.853623
 Zn 0.94311 0.31928 0.33202   0.996585
 Zn 0.31127 0.60221 0.30545   0.853105
 Zn 0.59441 0.68072 0.66798   0.996865
 Zn 0.21892 0.3978 0.69455   0.853392
 Zn 0.02027 0.0 0.0   0.753648
 Zn 0.27027 0.5 0.5   0.754536
 H 0.7237 0.4572 0.1184   0.095441
 H 0.8784 0.6144 0.931   0.10023
 H 0.0227 0.2866 0.9318   0.085787
 H 0.3559 0.8736 0.034   0.090923
 H 0.1889 0.9848 0.2452   0.087538
 H 0.803 0.8526 0.037   0.094339
 H 0.6048 0.9964 0.2368   0.091298
 H 0.2993 0.5428 0.8816   0.094174
 H 0.4238 0.3856 0.069   0.100268
 H 0.2411 0.7134 0.0682   0.085642
 H 0.2635 0.1264 0.966   0.091207
 H 0.4189 0.0152 0.7548   0.087896
 H 0.6926 0.1474 0.963   0.09384
 H 0.838 0.0036 0.7632   0.090763
 H 0.0921 0.9572 0.3816   0.095109
 H 0.0594 0.1144 0.569   0.099594
 H 0.2045 0.7866 0.5682   0.085805
 H 0.6399 0.3736 0.466   0.091212
 H 0.6841 0.4848 0.2548   0.087892
 H 0.09 0.3526 0.463   0.094334
 H 0.0916 0.4964 0.2632   0.091203
 H 0.4309 0.0428 0.6184   0.09458
 H 0.7428 0.8856 0.431   0.099851
 H 0.5593 0.2134 0.4318   0.085902
 H 0.4795 0.6264 0.534   0.090382
 H 0.4237 0.5152 0.7452   0.08788
 H 0.9056 0.6474 0.537   0.093824
 H 0.8512 0.5036 0.7368   0.091052
 C 0.8775 0.25 0.072   0.6933
 C 0.87449 0.3562 0.03182   -0.170413
 C 0.78401 0.45546 0.06812   0.016893
 C 0.78343 0.55212 0.02962   -0.162896
 C 0.68075 0.66052 0.06658   0.681335
 C 0.87757 0.5494 0.95626   0.012447
 C 0.97179 0.44966 0.91956   -0.158438
 C 0.07232 0.44962 0.84034   0.639819
 C 0.96553 0.35332 0.95702   0.018413
 C 0.28931 0.91072 0.07886   0.274921
 C 0.19905 0.97094 0.19356   0.301798
 C 0.77693 0.89788 0.07926   0.289542
 C 0.66918 0.97572 0.18752   0.277656
 C 0.1995 0.75 0.928   0.695925
 C 0.26251 0.6438 0.96818   -0.172249
 C 0.30759 0.54454 0.93188   0.01952
 C 0.36517 0.44788 0.97038   -0.163745
 C 0.40785 0.33948 0.93342   0.681047
 C 0.38323 0.4506 0.04374   0.012033
 C 0.34101 0.55034 0.08044   -0.157617
 C 0.36228 0.55038 0.15966   0.638821
 C 0.27587 0.64668 0.04298   0.018925
 C 0.27889 0.08928 0.92114   0.274027
 C 0.36355 0.02906 0.80644   0.301394
 C 0.75407 0.10212 0.92074   0.288937
 C 0.83242 0.02428 0.81248   0.278088
 C 0.1995 0.75 0.428   0.693888
 C 0.15631 0.8562 0.46818   -0.169335
 C 0.10213 0.95546 0.43188   0.016839
 C 0.06305 0.05212 0.47038   -0.164716
 C 0.99733 0.16052 0.43342   0.682553
 C 0.08383 0.0494 0.54374   0.013923
 C 0.14135 0.94966 0.58044   -0.15806
 C 0.16266 0.94962 0.65966   0.639581
 C 0.17255 0.85332 0.54298   0.017934
 C 0.61817 0.41072 0.42114   0.274065
 C 0.64261 0.47094 0.30644   0.300392
 C 0.10619 0.39788 0.42074   0.287099
 C 0.1067 0.47572 0.31248   0.27743
 C 0.3775 0.25 0.572   0.693665
 C 0.48069 0.1438 0.53182   -0.170488
 C 0.48947 0.04454 0.56812   0.018665
 C 0.58555 0.94788 0.52962   -0.164053
 C 0.59127 0.83948 0.56658   0.681601
 C 0.67697 0.9506 0.45626   0.012608
 C 0.67145 0.05034 0.41956   -0.157196
 C 0.77194 0.05038 0.34034   0.640402
 C 0.56885 0.14668 0.45702   0.017465
 C 0.45003 0.58928 0.57886   0.275637
 C 0.41999 0.52906 0.69356   0.30087
 C 0.92481 0.60212 0.57926   0.288578
 C 0.8949 0.52428 0.68752   0.277466
 N 0.08906 0.0138 0.15828   -0.260184
 N 0.14803 0.97428 0.08326   -0.215306
 N 0.32724 0.90518 0.14674   -0.502061
 N 0.77369 0.01662 0.1532   -0.252002
 N 0.84399 0.96518 0.08244   -0.208747
 N 0.66582 0.9009 0.14366   -0.517346
 N 0.26114 0.9862 0.84172   -0.261537
 N 0.20557 0.02572 0.91674   -0.214838
 N 0.37916 0.09482 0.85326   -0.500912
 N 0.94351 0.98338 0.8468   -0.25341
 N 0.89161 0.03482 0.91756   -0.207551
 N 0.71038 0.0991 0.85634   -0.515677
 N 0.49734 0.5138 0.34172   -0.260867
 N 0.48129 0.47428 0.41674   -0.215381
 N 0.72398 0.40518 0.35326   -0.499541
 N 0.17689 0.51662 0.3468   -0.251988
 N 0.17643 0.46518 0.41756   -0.206819
 N 0.05948 0.4009 0.35634   -0.515758
 N 0.35286 0.4862 0.65828   -0.260464
 N 0.37231 0.52572 0.58326   -0.215508
 N 0.48242 0.59482 0.64674   -0.501366
 N 0.04031 0.48338 0.6532   -0.252091
 N 0.05917 0.53482 0.58244   -0.207701
 N 0.81672 0.5991 0.64366   -0.516048
 O 0.91734 0.16836 0.03116   -0.600325
 O 0.83912 0.24984 0.14612   -0.598642
 O 0.63574 0.6631 0.14082   -0.63171
 O 0.64338 0.74322 0.02602   -0.604335
 O 0.09423 0.53358 0.81376   -0.583385
 O 0.13398 0.35916 0.80128   -0.613306
 O 0.11686 0.83164 0.96884   -0.601492
 O 0.23508 0.75016 0.85388   -0.599627
 O 0.43966 0.3369 0.85918   -0.631566
 O 0.41262 0.25678 0.97398   -0.603965
 O 0.44157 0.46642 0.18624   -0.583108
 O 0.29442 0.64084 0.19872   -0.613119
 O 0.1985 0.66836 0.46884   -0.601018
 O 0.23524 0.74984 0.35388   -0.599145
 O 0.02656 0.1631 0.35918   -0.631899
 O 0.9194 0.24322 0.47398   -0.604616
 O 0.15799 0.03358 0.68624   -0.583266
 O 0.18526 0.85916 0.69872   -0.613305
 O 0.3357 0.33164 0.53116   -0.600811
 O 0.33896 0.25016 0.64612   -0.599026
 O 0.54884 0.8369 0.64082   -0.631694
 O 0.6366 0.75678 0.52602   -0.604147
 O 0.87781 0.96642 0.31376   -0.584061
 O 0.74314 0.14084 0.30128   -0.613487
