{'_ref': 'TBD', '_srcid': 'CAKYAQ_clean', 'submitters': [{'name': 'Dalar Nazarian Jeff Camp and David Sholl', 'email': 'dalar@gatech.edu jcamp6@gatech.edu'}], '_method': 'VASP DFT with PBE;DDEC'}
data_GdH12(C7O2)3
_symmetry_space_group_name_H-M   'P 1'
_cell_length_a   8.62199980
_cell_length_b   14.06600020
_cell_length_c   15.08180000
_cell_angle_alpha   115.21399870
_cell_angle_beta   106.60900061
_cell_angle_gamma   90.00000054
_symmetry_Int_Tables_number   1
_chemical_formula_structural   GdH12(C7O2)3
_chemical_formula_sum   'Gd2 H24 C42 O12'
_cell_volume   1570.04628198
_cell_formula_units_Z   2
loop_
 _symmetry_equiv_pos_site_id
 _symmetry_equiv_pos_as_xyz
  1  'x, y, z'
loop_
 _atom_site_label
 _atom_site_fract_x
 _atom_site_fract_y
 _atom_site_fract_z
 _atom_site_charge
 Gd 0.50555 0.00553 0.54536   2.241392
 Gd 0.96019 0.99447 0.45464   2.240981
 H 0.4449 0.8018 0.6646   0.100157
 H 0.4534 0.6469 0.6888   0.105695
 H 0.9782 0.5582 0.5332   0.098397
 H 0.9611 0.7185 0.522   0.086298
 H 0.4256 0.5317 0.746   0.117933
 H 0.4586 0.3645 0.7376   0.101081
 H 0.0651 0.2326 0.4846   0.0604
 H 0.0402 0.3964 0.483   0.098811
 H 0.3977 0.7193 0.2268   0.086479
 H 0.33 0.5653 0.0732   0.105825
 H 0.8589 0.5765 0.0532   0.105762
 H 0.9373 0.7207 0.2132   0.096035
 H 0.7803 0.1982 0.3354   0.100411
 H 0.7646 0.3531 0.3112   0.105267
 H 0.445 0.4418 0.4668   0.098244
 H 0.4391 0.2815 0.478   0.086766
 H 0.6796 0.4683 0.254   0.117427
 H 0.721 0.6355 0.2624   0.101816
 H 0.5805 0.7674 0.5154   0.059964
 H 0.5572 0.6036 0.517   0.099502
 H 0.1709 0.2807 0.7732   0.086624
 H 0.2568 0.4347 0.9268   0.106074
 H 0.8057 0.4235 0.9468   0.105042
 H 0.7241 0.2793 0.7868   0.094993
 C 0.2 0.8714 0.5736   0.821614
 C 0.2034 0.7737 0.5912   -0.172261
 C 0.3504 0.7542 0.6398   -0.02989
 C 0.3559 0.6592 0.6518   -0.14533
 C 0.2168 0.5842 0.609   0.046581
 C 0.0715 0.6072 0.561   -0.136088
 C 0.0614 0.7029 0.5528   -0.01001
 C 0.2287 0.4801 0.6134   0.053194
 C 0.3562 0.4719 0.6924   -0.151289
 C 0.3747 0.3718 0.6874   -0.014771
 C 0.2686 0.2824 0.6086   -0.161335
 C 0.1403 0.2919 0.5346   0.008749
 C 0.1225 0.3904 0.535   -0.131224
 C 0.311 0.1742 0.599   0.740704
 C 0.2226 0.8335 0.3326   0.815558
 C 0.1789 0.7345 0.2358   -0.173779
 C 0.2888 0.6889 0.1936   -0.002565
 C 0.2483 0.5958 0.1006   -0.157379
 C 0.0831 0.548 0.0482   0.057582
 C 0.9695 0.6006 0.089   -0.151395
 C 0.0169 0.6899 0.1838   -0.014993
 C 0.6264 0.1286 0.4264   0.823003
 C 0.6122 0.2263 0.4088   -0.171569
 C 0.7106 0.2458 0.3602   -0.029825
 C 0.7041 0.3408 0.3482   -0.144664
 C 0.6078 0.4158 0.391   0.045883
 C 0.5105 0.3928 0.439   -0.135065
 C 0.5086 0.2971 0.4472   -0.011509
 C 0.6153 0.5199 0.3866   0.052867
 C 0.6638 0.5281 0.3076   -0.150047
 C 0.6873 0.6282 0.3126   -0.01647
 C 0.66 0.7176 0.3914   -0.160411
 C 0.6057 0.7081 0.4654   0.009166
 C 0.5875 0.6096 0.465   -0.132009
 C 0.712 0.8258 0.401   0.740541
 C 0.89 0.1665 0.6674   0.816175
 C 0.9431 0.2655 0.7642   -0.172526
 C 0.0952 0.3111 0.8064   -0.004524
 C 0.1477 0.4042 0.8994   -0.156001
 C 0.0349 0.452 0.9518   0.055658
 C 0.8805 0.3994 0.911   -0.150802
 C 0.8331 0.3101 0.8162   -0.013773
 O 0.3265 0.9167 0.5834   -0.781064
 O 0.0585 0.9015 0.5512   -0.71667
 O 0.2255 0.0924 0.5188   -0.851111
 O 0.4324 0.1677 0.6618   -0.642822
 O 0.3666 0.8735 0.3784   -0.706205
 O 0.1066 0.875 0.3636   -0.797444
 O 0.7431 0.0833 0.4166   -0.782044
 O 0.5073 0.0985 0.4488   -0.717477
 O 0.7067 0.9076 0.4812   -0.851048
 O 0.7706 0.8323 0.3382   -0.643136
 O 0.9882 0.1265 0.6216   -0.706192
 O 0.743 0.125 0.6364   -0.797937
