{'_ref': 'TBD', '_srcid': 'CAKYAQ_clean', 'submitters': [{'name': 'Dalar Nazarian Jeff Camp and David Sholl', 'email': 'dalar@gatech.edu jcamp6@gatech.edu'}], '_method': 'VASP DFT with PBE;DDEC'}
data_CuH2C6SO4
_symmetry_space_group_name_H-M   'P 1'
_cell_length_a   11.03179961
_cell_length_b   18.06730016
_cell_length_c   18.45280000
_cell_angle_alpha   104.81200148
_cell_angle_beta   97.07500014
_cell_angle_gamma   95.20599934
_symmetry_Int_Tables_number   1
_chemical_formula_structural   CuH2C6SO4
_chemical_formula_sum   'Cu8 H16 C48 S8 O32'
_cell_volume   3499.87380619
_cell_formula_units_Z   8
loop_
 _symmetry_equiv_pos_site_id
 _symmetry_equiv_pos_as_xyz
  1  'x, y, z'
loop_
 _atom_site_label
 _atom_site_fract_x
 _atom_site_fract_y
 _atom_site_fract_z
 _atom_site_charge
 Cu 0.57586 0.44756 0.98229   0.895885
 Cu 0.96106 0.55487 0.55117   0.890453
 Cu 0.42471 0.02014 0.55054   0.886519
 Cu 0.10828 0.97871 0.98263   0.906609
 Cu 0.42414 0.55244 0.01771   0.895885
 Cu 0.03894 0.44513 0.44883   0.890453
 Cu 0.57529 0.97986 0.44946   0.886518
 Cu 0.89172 0.02129 0.01737   0.906609
 H 0.4837 0.3953 0.724   0.127356
 H 0.3614 0.3963 0.6023   0.121717
 H 0.6624 0.4019 0.6189   0.122868
 H 0.5461 0.2821 0.6217   0.124048
 H 0.891 0.9324 0.6087   0.127693
 H 0.0112 0.9313 0.7308   0.136102
 H 0.0835 0.3926 0.0105   0.133109
 H 0.9623 0.2712 0.0116   0.130099
 H 0.5163 0.6047 0.276   0.127356
 H 0.6386 0.6037 0.3977   0.121717
 H 0.3376 0.5981 0.3811   0.122868
 H 0.4539 0.7179 0.3783   0.124048
 H 0.109 0.0676 0.3913   0.127693
 H 0.9888 0.0687 0.2692   0.136102
 H 0.9165 0.6074 0.9895   0.13311
 H 0.0377 0.7288 0.9884   0.130099
 C 0.427 0.4866 0.8616   0.697845
 C 0.3805 0.475 0.7787   -0.173916
 C 0.4185 0.4255 0.7196   -0.078208
 C 0.3468 0.4256 0.6504   -0.059546
 C 0.2574 0.4702 0.6588   -0.175788
 C 0.1639 0.4812 0.5993   0.699724
 C 0.8459 0.4024 0.5255   0.688962
 C 0.7556 0.3423 0.5388   -0.170979
 C 0.6729 0.3527 0.588   -0.070484
 C 0.6055 0.2846 0.5889   -0.057698
 C 0.6325 0.2224 0.5388   -0.17713
 C 0.5828 0.14 0.5235   0.691927
 C 0.6595 0.9857 0.6025   0.681341
 C 0.7534 0.974 0.6621   -0.167744
 C 0.862 0.9482 0.6559   -0.065169
 C 0.931 0.9463 0.7257   -0.069212
 C 0.868 0.9684 0.7828   -0.168475
 C 0.9125 0.9778 0.8644   0.695318
 C 0.3337 0.3955 0.9989   0.690166
 C 0.2354 0.3355 0.000700000000002   -0.183117
 C 0.1163 0.3452 0.007   -0.064124
 C 0.0476 0.2759 0.0077   -0.061341
 C 0.1161 0.2165 0.0023   -0.183825
 C 0.0751 0.1364 0.000500000000002   0.708619
 C 0.573 0.5134 0.1384   0.697844
 C 0.6195 0.525 0.2213   -0.173916
 C 0.5815 0.5745 0.2804   -0.078208
 C 0.6532 0.5744 0.3496   -0.059546
 C 0.7426 0.5298 0.3412   -0.175788
 C 0.8361 0.5188 0.4007   0.699724
 C 0.1541 0.5976 0.4745   0.688962
 C 0.2444 0.6577 0.4612   -0.170979
 C 0.3271 0.6473 0.412   -0.070484
 C 0.3945 0.7154 0.4111   -0.057698
 C 0.3675 0.7776 0.4612   -0.17713
 C 0.4172 0.86 0.4765   0.691927
 C 0.3405 0.0143 0.3975   0.68134
 C 0.2466 0.026 0.3379   -0.167744
 C 0.138 0.0518 0.3441   -0.065169
 C 0.069 0.0537 0.2743   -0.069212
 C 0.132 0.0316 0.2172   -0.168475
 C 0.0875 0.0222 0.1356   0.695318
 C 0.6663 0.6045 0.0011   0.690166
 C 0.7646 0.6645 0.9993   -0.183117
 C 0.8837 0.6548 0.993   -0.064124
 C 0.9524 0.7241 0.9923   -0.061341
 C 0.8839 0.7835 0.9977   -0.183825
 C 0.9249 0.8636 0.9995   0.708619
 S 0.2613 0.51877 0.7515   0.179139
 S 0.748 0.24774 0.49034   0.171356
 S 0.7289 0.99534 0.75475   0.150912
 S 0.264 0.24332 0.99439   0.186625
 S 0.7387 0.48123 0.2485   0.179139
 S 0.252 0.75226 0.50966   0.171355
 S 0.2711 0.00466 0.24525   0.150911
 S 0.736 0.75668 0.00561   0.186625
 O 0.5092 0.4471 0.8782   -0.566877
 O 0.3824 0.5364 0.9069   -0.556392
 O 0.0937 0.5298 0.62   -0.563516
 O 0.1608 0.438 0.533   -0.560261
 O 0.8451 0.4708 0.5635   -0.546245
 O 0.9134 0.3775 0.4774   -0.557748
 O 0.5017 0.1255 0.5612   -0.549056
 O 0.6294 0.0917 0.4751   -0.568774
 O 0.6908 0.9723 0.5367   -0.547892
 O 0.5621 0.0075 0.6237   -0.541043
 O 0.0194 0.9619 0.8792   -0.558755
 O 0.8386 0.9997 0.9091   -0.548299
 O 0.4344 0.3741 0.9832   -0.553993
 O 0.3049 0.4638 0.0126   -0.562061
 O 0.1481 0.0886 0.9884   -0.564818
 O 0.9678 0.124 0.0161   -0.571908
 O 0.4908 0.5529 0.1218   -0.566877
 O 0.6176 0.4636 0.0931   -0.556392
 O 0.9063 0.4702 0.38   -0.563516
 O 0.8392 0.562 0.467   -0.560261
 O 0.1549 0.5292 0.4365   -0.546245
 O 0.0866 0.6225 0.5226   -0.557748
 O 0.4983 0.8745 0.4388   -0.549056
 O 0.3706 0.9083 0.5249   -0.568774
 O 0.3092 0.0277 0.4633   -0.547892
 O 0.4379 0.9925 0.3763   -0.541043
 O 0.9806 0.0381 0.1208   -0.558755
 O 0.1614 0.000300000000003 0.0909   -0.548299
 O 0.5656 0.6259 0.0168   -0.553993
 O 0.6951 0.5362 0.9874   -0.562061
 O 0.8519 0.9114 0.0116   -0.564818
 O 0.0322 0.876 0.9839   -0.571908
