{'_ref': 'TBD', '_srcid': 'CAKYAQ_clean', 'submitters': [{'name': 'Dalar Nazarian Jeff Camp and David Sholl', 'email': 'dalar@gatech.edu jcamp6@gatech.edu'}], '_method': 'VASP DFT with PBE;DDEC'}
data_ZnH26C28(N3O2)2
_symmetry_space_group_name_H-M   'P 1'
_cell_length_a   10.59200000
_cell_length_b   13.12000042
_cell_length_c   22.30600000
_cell_angle_alpha   90.00000000
_cell_angle_beta   90.00000000
_cell_angle_gamma   100.81300014
_symmetry_Int_Tables_number   1
_chemical_formula_structural   ZnH26C28(N3O2)2
_chemical_formula_sum   'Zn4 H104 C112 N24 O16'
_cell_volume   3044.76106335
_cell_formula_units_Z   4
loop_
 _symmetry_equiv_pos_site_id
 _symmetry_equiv_pos_as_xyz
  1  'x, y, z'
loop_
 _atom_site_label
 _atom_site_fract_x
 _atom_site_fract_y
 _atom_site_fract_z
 _atom_site_charge
 Zn 0.77725 0.48448 0.13841   0.900432
 Zn 0.30466 0.9877 0.07078   0.912462
 Zn 0.22275 0.51552 0.63841   0.900432
 Zn 0.69534 0.0123 0.57078   0.912462
 H 0.476 0.7058 0.2408   0.08135
 H 0.3583 0.4915 0.363   0.12083
 H 0.2081 0.5206 0.4305   0.118895
 H 0.0801 0.6185 0.4737   0.112801
 H 0.9772 0.7722 0.4723   0.126051
 H 0.1011 0.9924 0.3493   0.106975
 H 0.6156 0.6232 0.208   0.115108
 H 0.4658 0.3781 0.3118   0.158604
 H 0.6325 0.332 0.2505   0.129123
 H 0.8804 0.894 0.5143   0.060039
 H 0.9214 0.0598 0.3711   0.139696
 H 0.7675 0.1234 0.438   0.130199
 H 0.4787 0.1607 0.9378   0.11633
 H 0.3972 0.4349 0.9764   0.127328
 H 0.24 0.5096 0.912   0.124357
 H 0.0946 0.4843 0.8361   0.116275
 H 0.9916 0.3817 0.7497   0.127222
 H 0.0698 0.1033 0.7203   0.09106
 H 0.5967 0.4684 0.0246   0.110518
 H 0.5425 0.1596 0.04   0.124055
 H 0.688 0.2387 0.1201   0.130912
 H 0.8661 0.0658 0.6847   0.100714
 H 0.9377 0.3601 0.6383   0.129098
 H 0.7843 0.2713 0.5684   0.124783
 H 0.2937 0.2597 0.2052   0.094036
 H 0.2963 0.3294 0.0912   0.042653
 H 0.3804 0.376 0.1466   0.060279
 H 0.2423 0.4813 0.1643   0.054508
 H 0.1556 0.4316 0.1107   0.06724
 H 0.0564 0.3733 0.2783   0.10942
 H 0.1725 0.4596 0.2589   0.083201
 H 0.1923 0.3452 0.2681   0.108668
 H 0.9995 0.1122 0.2093   0.112054
 H 0.0028 0.2035 0.2549   0.106227
 H 0.1222 0.1495 0.2486   0.11362
 H 0.9433 0.2096 0.1316   0.115963
 H 0.0416 0.1367 0.1188   0.108721
 H 0.0633 0.2483 0.0909   0.094195
 H 0.8547 0.8166 0.09   0.086784
 H 0.8323 0.763 0.9722   0.071804
 H 0.9131 0.8652 0.000300000000003   0.043162
 H 0.7576 0.9434 0.958   0.0543
 H 0.6565 0.8387 0.9561   0.076177
 H 0.7118 0.0631 0.0585   0.093828
 H 0.8235 0.0148 0.031   0.08601
 H 0.7826 0.9924 0.098   0.097529
 H 0.6826 0.9087 0.1555   0.11747
 H 0.6864 0.7924 0.1699   0.093494
 H 0.5548 0.8261 0.1566   0.123111
 H 0.5742 0.6643 0.0653   0.097889
 H 0.5099 0.7403 0.0266   0.111784
 H 0.4844 0.7314 0.0958   0.101976
 H 0.524 0.2942 0.7408   0.08135
 H 0.6417 0.5085 0.863   0.12083
 H 0.7919 0.4794 0.9305   0.118895
 H 0.9199 0.3815 0.9737   0.112803
 H 0.0228 0.2278 0.9723   0.126051
 H 0.8989 0.0076 0.8493   0.106975
 H 0.3844 0.3768 0.708   0.115108
 H 0.5342 0.6219 0.8118   0.158604
 H 0.3675 0.668 0.7505   0.129123
 H 0.1196 0.106 0.0143   0.060039
 H 0.0786 0.9402 0.8711   0.139696
 H 0.2325 0.8766 0.938   0.130198
 H 0.5213 0.8393 0.4378   0.11633
 H 0.6028 0.5651 0.4764   0.127328
 H 0.76 0.4904 0.412   0.124359
 H 0.9054 0.5157 0.3361   0.116274
 H 0.0084 0.6183 0.2497   0.127222
 H 0.9302 0.8967 0.2203   0.09106
 H 0.4033 0.5316 0.5246   0.110518
 H 0.4575 0.8404 0.54   0.124055
 H 0.312 0.7613 0.6201   0.130912
 H 0.1339 0.9342 0.1847   0.100714
 H 0.0623 0.6399 0.1383   0.129098
 H 0.2157 0.7287 0.0684   0.124786
 H 0.7063 0.7403 0.7052   0.094036
 H 0.7037 0.6706 0.5912   0.042653
 H 0.6196 0.624 0.6466   0.060279
 H 0.7577 0.5187 0.6643   0.054508
 H 0.8444 0.5684 0.6107   0.067242
 H 0.9436 0.6267 0.7783   0.10942
 H 0.8275 0.5404 0.7589   0.083201
 H 0.8077 0.6548 0.7681   0.108668
 H 0.000500000000002 0.8878 0.7093   0.112054
 H 0.9972 0.7965 0.7549   0.106227
 H 0.8778 0.8505 0.7486   0.11362
 H 0.0567 0.7904 0.6316   0.115963
 H 0.9584 0.8633 0.6188   0.108721
 H 0.9367 0.7517 0.5909   0.094195
 H 0.1453 0.1834 0.59   0.086784
 H 0.1677 0.237 0.4722   0.071806
 H 0.0869 0.1348 0.5003   0.043162
 H 0.2424 0.0566 0.458   0.0543
 H 0.3435 0.1613 0.4561   0.076176
 H 0.2882 0.9369 0.5585   0.093828
 H 0.1765 0.9852 0.531   0.08601
 H 0.2174 0.0076 0.598   0.097529
 H 0.3174 0.0913 0.6555   0.11747
 H 0.3136 0.2076 0.6699   0.093494
 H 0.4452 0.1739 0.6566   0.123111
 H 0.4258 0.3357 0.5653   0.097889
 H 0.4901 0.2597 0.5266   0.111784
 H 0.5156 0.2686 0.5958   0.101976
 C 0.4253 0.6845 0.2742   0.110003
 C 0.4329 0.5892 0.2988   0.035384
 C 0.3566 0.5562 0.3463   -0.128005
 C 0.2791 0.6152 0.3696   0.033946
 C 0.2064 0.5855 0.4142   -0.116562
 C 0.126 0.6436 0.4396   -0.113904
 C 0.11 0.7415 0.4155   0.019893
 C 0.0281 0.7963 0.4394   -0.127708
 C 0.0227 0.8912 0.4127   0.057897
 C 0.1053 0.9282 0.3661   0.094261
 C 0.1896 0.7733 0.3703   0.143133
 C 0.2742 0.7079 0.3447   0.135196
 C 0.6013 0.558 0.2259   0.129337
 C 0.5171 0.421 0.2847   -0.138252
 C 0.6076 0.3963 0.2497   0.075234
 C 0.8708 0.9446 0.4864   0.159863
 C 0.8959 0.0328 0.4087   -0.133891
 C 0.8086 0.0681 0.4456   0.033431
 C 0.4319 0.2121 0.929   0.090899
 C 0.4452 0.3014 0.9644   0.066442
 C 0.3838 0.3761 0.9522   -0.143237
 C 0.2995 0.3706 0.9047   0.018376
 C 0.2282 0.4482 0.8901   -0.130052
 C 0.1425 0.4333 0.8441   -0.082119
 C 0.1237 0.344 0.8085   0.007003
 C 0.036 0.3295 0.7601   -0.105591
 C 0.0169 0.2396 0.7291   0.074699
 C 0.0844 0.1638 0.743   0.102015
 C 0.1868 0.2671 0.8207   0.12576
 C 0.2809 0.2783 0.8709   0.138536
 C 0.6042 0.4021 0.037   0.148487
 C 0.5722 0.2302 0.0459   -0.098259
 C 0.6535 0.2739 0.0898   0.040242
 C 0.8653 0.1271 0.664   0.18195
 C 0.9045 0.2893 0.6389   -0.109341
 C 0.8206 0.2408 0.6001   0.019283
 C 0.9643 0.3903 0.1806   0.633344
 C 0.101 0.3647 0.1901   -0.027338
 C 0.1076 0.2489 0.1788   0.218772
 C 0.2491 0.2533 0.1665   -0.247315
 C 0.2945 0.3442 0.1337   -0.096491
 C 0.1973 0.4163 0.1474   -0.144351
 C 0.1335 0.388 0.2546   -0.325572
 C 0.053 0.1714 0.2274   -0.387099
 C 0.0323 0.2072 0.1253   -0.402911
 C 0.5321 0.9392 0.0344   0.727422
 C 0.6596 0.9124 0.0397   -0.046926
 C 0.6616 0.8156 0.0758   0.200448
 C 0.7905 0.7795 0.0622   -0.234196
 C 0.8295 0.8199 0.9997   -0.097312
 C 0.7208 0.8819 0.9807   -0.146093
 C 0.7523 0.0035 0.0584   -0.315827
 C 0.6446 0.838 0.1467   -0.384907
 C 0.5471 0.7301 0.0649   -0.382179
 C 0.786 0.6679 0.0719   0.730434
 C 0.2785 0.1527 0.1345   0.690443
 C 0.5747 0.3155 0.7742   0.110003
 C 0.5671 0.4108 0.7988   0.035384
 C 0.6434 0.4438 0.8463   -0.128006
 C 0.7209 0.3848 0.8696   0.033947
 C 0.7936 0.4145 0.9142   -0.116562
 C 0.874 0.3564 0.9396   -0.113905
 C 0.89 0.2585 0.9155   0.019893
 C 0.9719 0.2037 0.9394   -0.127708
 C 0.9773 0.1088 0.9127   0.057898
 C 0.8947 0.0718 0.8661   0.094261
 C 0.8104 0.2267 0.8703   0.143133
 C 0.7258 0.2921 0.8447   0.135195
 C 0.3987 0.442 0.7259   0.129337
 C 0.4829 0.579 0.7847   -0.138252
 C 0.3924 0.6037 0.7497   0.075234
 C 0.1292 0.0554 0.9864   0.159863
 C 0.1041 0.9672 0.9087   -0.133892
 C 0.1914 0.9319 0.9456   0.033431
 C 0.5681 0.7879 0.429   0.090899
 C 0.5548 0.6986 0.4644   0.066442
 C 0.6162 0.6239 0.4522   -0.143237
 C 0.7005 0.6294 0.4047   0.018376
 C 0.7718 0.5518 0.3901   -0.130053
 C 0.8575 0.5667 0.3441   -0.082119
 C 0.8763 0.656 0.3085   0.007003
 C 0.964 0.6705 0.2601   -0.105591
 C 0.9831 0.7604 0.2291   0.074698
 C 0.9156 0.8362 0.243   0.102015
 C 0.8132 0.7329 0.3207   0.12576
 C 0.7191 0.7217 0.3709   0.138536
 C 0.3958 0.5979 0.537   0.148487
 C 0.4278 0.7698 0.5459   -0.098259
 C 0.3465 0.7261 0.5898   0.040242
 C 0.1347 0.8729 0.164   0.18195
 C 0.0955 0.7107 0.1389   -0.109341
 C 0.1794 0.7592 0.1001   0.019282
 C 0.0357 0.6097 0.6806   0.633344
 C 0.899 0.6353 0.6901   -0.027338
 C 0.8924 0.7511 0.6788   0.218772
 C 0.7509 0.7467 0.6665   -0.247315
 C 0.7055 0.6558 0.6337   -0.096491
 C 0.8027 0.5837 0.6474   -0.144352
 C 0.8665 0.612 0.7546   -0.325572
 C 0.947 0.8286 0.7274   -0.387099
 C 0.9677 0.7928 0.6253   -0.402911
 C 0.4679 0.0608 0.5344   0.727422
 C 0.3404 0.0876 0.5397   -0.046926
 C 0.3384 0.1844 0.5758   0.200448
 C 0.2095 0.2205 0.5622   -0.234196
 C 0.1705 0.1801 0.4997   -0.097313
 C 0.2792 0.1181 0.4807   -0.146092
 C 0.2477 0.9965 0.5584   -0.315827
 C 0.3554 0.162 0.6467   -0.384907
 C 0.4529 0.2699 0.5649   -0.382179
 C 0.214 0.3321 0.5719   0.730434
 C 0.7215 0.8473 0.6345   0.690443
 N 0.3505 0.7484 0.2948   -0.311396
 N 0.1938 0.8726 0.3438   -0.321995
 N 0.5144 0.5239 0.2724   0.032513
 N 0.6615 0.4765 0.2118   -0.391559
 N 0.9382 0.9543 0.435   0.064109
 N 0.7941 0.0058 0.4957   -0.361348
 N 0.347 0.2011 0.8801   -0.327447
 N 0.173 0.172 0.7888   -0.335103
 N 0.5422 0.3091 0.0118   0.010855
 N 0.6753 0.3793 0.0814   -0.38248
 N 0.9361 0.2207 0.6804   0.046775
 N 0.7951 0.1327 0.6154   -0.386092
 N 0.6495 0.2516 0.7948   -0.311396
 N 0.8062 0.1274 0.8438   -0.321996
 N 0.4856 0.4761 0.7724   0.032513
 N 0.3385 0.5235 0.7118   -0.391559
 N 0.0618 0.0457 0.935   0.064109
 N 0.2059 0.9942 0.9957   -0.361348
 N 0.653 0.7989 0.3801   -0.327447
 N 0.827 0.828 0.2888   -0.335103
 N 0.4578 0.6909 0.5118   0.010855
 N 0.3247 0.6207 0.5814   -0.38248
 N 0.0639 0.7793 0.1804   0.046775
 N 0.2049 0.8673 0.1154   -0.386092
 O 0.9523 0.4667 0.1522   -0.583728
 O 0.8688 0.3313 0.2069   -0.638062
 O 0.2795 0.1332 0.0901   -0.492296
 O 0.2924 0.0906 0.1841   -0.746285
 O 0.4835 0.9783 0.0717   -0.60962
 O 0.4627 0.9052 0.9926   -0.697143
 O 0.7843 0.6091 0.0298   -0.654393
 O 0.7809 0.6307 0.1227   -0.653321
 O 0.0477 0.5333 0.6522   -0.583728
 O 0.1312 0.6687 0.7069   -0.638062
 O 0.7205 0.8668 0.5901   -0.492296
 O 0.7076 0.9094 0.6841   -0.746285
 O 0.5165 0.0217 0.5717   -0.60962
 O 0.5373 0.0948 0.4926   -0.697143
 O 0.2157 0.3909 0.5298   -0.654393
 O 0.2191 0.3693 0.6227   -0.653321
