{'_ref': 'TBD', '_srcid': 'CAKYAQ_clean', 'submitters': [{'name': 'Dalar Nazarian Jeff Camp and David Sholl', 'email': 'dalar@gatech.edu jcamp6@gatech.edu'}], '_method': 'VASP DFT with PBE;DDEC'}
data_LaH4C5O8
_symmetry_space_group_name_H-M   'P 1'
_cell_length_a   6.10919960
_cell_length_b   7.68660000
_cell_length_c   22.69870000
_cell_angle_alpha   90.00000000
_cell_angle_beta   91.65699933
_cell_angle_gamma   90.00000000
_symmetry_Int_Tables_number   1
_chemical_formula_structural   LaH4C5O8
_chemical_formula_sum   'La4 H16 C20 O32'
_cell_volume   1065.46193914
_cell_formula_units_Z   4
loop_
 _symmetry_equiv_pos_site_id
 _symmetry_equiv_pos_as_xyz
  1  'x, y, z'
loop_
 _atom_site_label
 _atom_site_fract_x
 _atom_site_fract_y
 _atom_site_fract_z
 _atom_site_charge
 La 0.45487 0.50172 0.8539   2.112595
 La 0.54513 0.00172 0.6461   2.112595
 La 0.54513 0.49828 0.1461   2.112595
 La 0.45487 0.99828 0.3539   2.112594
 H 0.302 0.724 0.7581   0.372198
 H 0.444 0.625 0.6166   0.454443
 H 0.0416 0.478 0.7176   0.118731
 H 0.1202 0.5656 0.6251   0.119294
 H 0.698 0.224 0.7419   0.372198
 H 0.556 0.125 0.8834   0.454443
 H 0.9584 0.978 0.7824   0.118731
 H 0.8798 0.0656 0.8749   0.119294
 H 0.698 0.276 0.2419   0.372198
 H 0.556 0.375 0.3834   0.454443
 H 0.9584 0.522 0.2824   0.118731
 H 0.8798 0.4344 0.3749   0.119293
 H 0.302 0.776 0.2581   0.372198
 H 0.444 0.875 0.1166   0.454443
 H 0.0416 0.022 0.2176   0.118731
 H 0.1202 0.9344 0.1251   0.119293
 C 0.3614 0.3941 0.71127   0.661683
 C 0.184 0.5354 0.71445   0.066257
 C 0.1826 0.6391 0.65667   0.049003
 C 0.0466 0.8058 0.65986   0.683675
 C 0.5824 0.576 0.9987   0.563522
 C 0.6386 0.8941 0.78873   0.661683
 C 0.816 0.0354 0.78555   0.066257
 C 0.8174 0.1391 0.84333   0.049003
 C 0.9534 0.3058 0.84014   0.683675
 C 0.4176 0.076 0.5013   0.563522
 C 0.6386 0.6059 0.28873   0.661683
 C 0.816 0.4646 0.28555   0.066257
 C 0.8174 0.3609 0.34333   0.049004
 C 0.9534 0.1942 0.34014   0.683675
 C 0.4176 0.424 0.0013   0.563513
 C 0.3614 0.1059 0.21127   0.661683
 C 0.184 0.9646 0.21445   0.066257
 C 0.1826 0.8609 0.15667   0.049004
 C 0.0466 0.6942 0.15986   0.683675
 C 0.5824 0.924 0.4987   0.563514
 O 0.5111 0.3979 0.75078   -0.667454
 O 0.3506 0.2869 0.6702   -0.652834
 O 0.2202 0.6402 0.76536   -0.613154
 O 0.3998 0.6859 0.64175   -0.630372
 O 0.1455 0.9473 0.65467   -0.659699
 O 0.8462 0.7893 0.66667   -0.671274
 O 0.6235 0.6319 0.94824   -0.653434
 O 0.6615 0.6306 0.0463   -0.653177
 O 0.4889 0.8979 0.74922   -0.667454
 O 0.6494 0.7869 0.8298   -0.652834
 O 0.7798 0.1402 0.73464   -0.613154
 O 0.6002 0.1859 0.85825   -0.630372
 O 0.8545 0.4473 0.84533   -0.659699
 O 0.1538 0.2893 0.83333   -0.671274
 O 0.3765 0.1319 0.55176   -0.653434
 O 0.3385 0.1306 0.4537   -0.653177
 O 0.4889 0.6021 0.24922   -0.667454
 O 0.6494 0.7131 0.3298   -0.652834
 O 0.7798 0.3598 0.23464   -0.613154
 O 0.6002 0.3141 0.35825   -0.630372
 O 0.8545 0.0527 0.34533   -0.659699
 O 0.1538 0.2107 0.33333   -0.671274
 O 0.3765 0.3681 0.05176   -0.653433
 O 0.3385 0.3694 0.9537   -0.653177
 O 0.5111 0.1021 0.25078   -0.667454
 O 0.3506 0.2131 0.1702   -0.652834
 O 0.2202 0.8598 0.26536   -0.613154
 O 0.3998 0.8141 0.14175   -0.630372
 O 0.1455 0.5527 0.15467   -0.659699
 O 0.8462 0.7107 0.16667   -0.671274
 O 0.6235 0.8681 0.44824   -0.653433
 O 0.6615 0.8694 0.5463   -0.653177
