{'_ref': 'TBD', '_srcid': 'CAKYAQ_clean', 'submitters': [{'name': 'Dalar Nazarian Jeff Camp and David Sholl', 'email': 'dalar@gatech.edu jcamp6@gatech.edu'}], '_method': 'VASP DFT with PBE;DDEC'}
data_Ni2H10C17O9
_symmetry_space_group_name_H-M   'P 1'
_cell_length_a   10.24700032
_cell_length_b   15.25000000
_cell_length_c   20.94600000
_cell_angle_alpha   90.00000000
_cell_angle_beta   99.90999815
_cell_angle_gamma   90.00000000
_symmetry_Int_Tables_number   1
_chemical_formula_structural   Ni2H10C17O9
_chemical_formula_sum   'Ni8 H40 C68 O36'
_cell_volume   3224.32558906
_cell_formula_units_Z   4
loop_
 _symmetry_equiv_pos_site_id
 _symmetry_equiv_pos_as_xyz
  1  'x, y, z'
loop_
 _atom_site_label
 _atom_site_fract_x
 _atom_site_fract_y
 _atom_site_fract_z
 _atom_site_charge
 Ni 0.74673 0.73819 0.66873   1.029478
 Ni 0.79705 0.85709 0.81426   1.015519
 Ni 0.25327 0.23819 0.83127   1.029477
 Ni 0.20295 0.35709 0.68574   1.015519
 Ni 0.25327 0.26181 0.33127   1.029477
 Ni 0.20295 0.14291 0.18574   1.015518
 Ni 0.74673 0.76181 0.16873   1.029476
 Ni 0.79705 0.64291 0.31426   1.015517
 H 0.4708 0.9201 0.574   0.112124
 H 0.2634 0.1385 0.5897   0.094932
 H 0.5285 0.0544 0.7415   0.111967
 H 0.2338 0.0651 0.4872   0.113273
 H 0.3379 0.9944 0.4751   0.104466
 H 0.1674 0.9051 0.4081   0.115139
 H 0.9196 0.7616 0.4963   0.108665
 H 0.1428 0.9509 0.5942   0.098996
 H 0.9782 0.7777 0.2989   0.413555
 H 0.954 0.819 0.729   0.412662
 H 0.5292 0.4201 0.926   0.112124
 H 0.7366 0.6385 0.9103   0.094932
 H 0.4715 0.5544 0.7585   0.111967
 H 0.7662 0.5651 0.0128   0.113273
 H 0.6621 0.4944 0.0249   0.104466
 H 0.8326 0.4051 0.0919   0.115139
 H 0.0804 0.2616 0.0037   0.108665
 H 0.8572 0.4509 0.9058   0.098996
 H 0.0218 0.2777 0.2011   0.413555
 H 0.046 0.319 0.771   0.412662
 H 0.5292 0.0799 0.426   0.112124
 H 0.7366 0.8615 0.4103   0.094932
 H 0.4715 0.9456 0.2585   0.111967
 H 0.7662 0.9349 0.5128   0.113273
 H 0.6621 0.0056 0.5249   0.104466
 H 0.8326 0.0949 0.5919   0.115139
 H 0.0804 0.2384 0.5037   0.108665
 H 0.8572 0.0491 0.4058   0.098996
 H 0.0218 0.2223 0.7011   0.413557
 H 0.046 0.181 0.271   0.412663
 H 0.4708 0.5799 0.074   0.112124
 H 0.2634 0.3615 0.0897   0.094932
 H 0.5285 0.4456 0.2415   0.111967
 H 0.2338 0.4349 0.9872   0.113273
 H 0.3379 0.5056 0.9751   0.104466
 H 0.1674 0.5949 0.9081   0.115139
 H 0.9196 0.7384 0.9963   0.108665
 H 0.1428 0.5491 0.0942   0.098996
 H 0.9782 0.7223 0.7989   0.413557
 H 0.954 0.681 0.229   0.412663
 C 0.517 0.9783 0.662   -0.144346
 C 0.4504 0.9677 0.5983   -0.087401
 C 0.354 0.0272 0.5707   0.065982
 C 0.3263 0.0975 0.6078   -0.0808
 C 0.3901 0.1083 0.6713   -0.133097
 C 0.486 0.0478 0.6988   -0.00898
 C 0.2769 0.011 0.5037   -0.19802
 C 0.1713 0.9387 0.5024   0.059329
 C 0.1312 0.8921 0.4448   -0.080844
 C 0.0354 0.8253 0.4428   -0.183196
 C 0.9817 0.8064 0.4974   0.000295
 C 0.0208 0.8546 0.5546   -0.135652
 C 0.1159 0.9196 0.5561   -0.056378
 C 0.6181 0.9114 0.6912   0.736136
 C 0.9885 0.776 0.3813   0.700818
 C 0.9557 0.8347 0.6122   0.692898
 C 0.3514 0.1843 0.7105   0.737366
 C 0.483 0.4783 0.838   -0.144346
 C 0.5496 0.4677 0.9017   -0.087401
 C 0.646 0.5272 0.9293   0.065982
 C 0.6737 0.5975 0.8922   -0.0808
 C 0.6099 0.6083 0.8287   -0.133097
 C 0.514 0.5478 0.8012   -0.00898
 C 0.7231 0.511 0.9963   -0.19802
 C 0.8287 0.4387 0.9976   0.059329
 C 0.8688 0.3921 0.0552   -0.080844
 C 0.9646 0.3253 0.0572   -0.183196
 C 0.0183 0.3064 0.0026   0.000295
 C 0.9792 0.3546 0.9454   -0.135652
 C 0.8841 0.4196 0.9439   -0.056378
 C 0.3819 0.4114 0.8088   0.736136
 C 0.0115 0.276 0.1187   0.700818
 C 0.0443 0.3347 0.8878   0.692898
 C 0.6486 0.6843 0.7895   0.737367
 C 0.483 0.0217 0.338   -0.144346
 C 0.5496 0.0323 0.4017   -0.087401
 C 0.646 0.9728 0.4293   0.065982
 C 0.6737 0.9025 0.3922   -0.0808
 C 0.6099 0.8917 0.3287   -0.133096
 C 0.514 0.9522 0.3012   -0.00898
 C 0.7231 0.989 0.4963   -0.19802
 C 0.8287 0.0613 0.4976   0.059329
 C 0.8688 0.1079 0.5552   -0.080844
 C 0.9646 0.1747 0.5572   -0.183196
 C 0.0183 0.1936 0.5026   0.000295
 C 0.9792 0.1454 0.4454   -0.135652
 C 0.8841 0.0804 0.4439   -0.056379
 C 0.3819 0.0886 0.3088   0.736136
 C 0.0115 0.224 0.6187   0.700818
 C 0.0443 0.1653 0.3878   0.692898
 C 0.6486 0.8157 0.2895   0.737366
 C 0.517 0.5217 0.162   -0.144346
 C 0.4504 0.5323 0.0983   -0.087401
 C 0.354 0.4728 0.0707   0.065982
 C 0.3263 0.4025 0.1078   -0.0808
 C 0.3901 0.3917 0.1713   -0.133096
 C 0.486 0.4522 0.1988   -0.00898
 C 0.2769 0.489 0.0037   -0.19802
 C 0.1713 0.5613 0.0024   0.059329
 C 0.1312 0.6079 0.9448   -0.080844
 C 0.0354 0.6747 0.9428   -0.183196
 C 0.9817 0.6936 0.9974   0.000295
 C 0.0208 0.6454 0.0546   -0.135652
 C 0.1159 0.5804 0.0561   -0.056379
 C 0.6181 0.5886 0.1912   0.736136
 C 0.9885 0.724 0.8813   0.700818
 C 0.9557 0.6653 0.1122   0.692898
 C 0.3514 0.3157 0.2105   0.737367
 O 0.6704 0.9252 0.7498   -0.632028
 O 0.6356 0.847 0.6569   -0.571791
 O 0.008 0.8099 0.3293   -0.458936
 O 0.9306 0.704 0.3863   -0.587853
 O 0.8578 0.7849 0.6032   -0.637827
 O 0.0077 0.8691 0.6656   -0.585655
 O 0.3207 0.2528 0.6791   -0.583904
 O 0.3526 0.172 0.7699   -0.631173
 O 0.8813 0.7923 0.7444   -0.925713
 O 0.3296 0.4252 0.7502   -0.632028
 O 0.3644 0.347 0.8431   -0.571791
 O 0.992 0.3099 0.1707   -0.458936
 O 0.0694 0.204 0.1137   -0.587853
 O 0.1422 0.2849 0.8968   -0.637827
 O 0.9923 0.3691 0.8344   -0.585655
 O 0.6793 0.7528 0.8209   -0.583904
 O 0.6474 0.672 0.7301   -0.631173
 O 0.1187 0.2923 0.7556   -0.925713
 O 0.3296 0.0748 0.2502   -0.632028
 O 0.3644 0.153 0.3431   -0.571791
 O 0.992 0.1901 0.6707   -0.458937
 O 0.0694 0.296 0.6137   -0.587854
 O 0.1422 0.2151 0.3968   -0.637827
 O 0.9923 0.1309 0.3344   -0.585655
 O 0.6793 0.7472 0.3209   -0.583904
 O 0.6474 0.828 0.2301   -0.631173
 O 0.1187 0.2077 0.2556   -0.925714
 O 0.6704 0.5748 0.2498   -0.632028
 O 0.6356 0.653 0.1569   -0.571791
 O 0.008 0.6901 0.8293   -0.458937
 O 0.9306 0.796 0.8863   -0.587854
 O 0.8578 0.7151 0.1032   -0.637827
 O 0.0077 0.6309 0.1656   -0.585655
 O 0.3207 0.2472 0.1791   -0.583904
 O 0.3526 0.328 0.2699   -0.631173
 O 0.8813 0.7077 0.2444   -0.925714
