{'_ref': 'TBD', '_srcid': 'CAKYAQ_clean', 'submitters': [{'name': 'Dalar Nazarian Jeff Camp and David Sholl', 'email': 'dalar@gatech.edu jcamp6@gatech.edu'}], '_method': 'VASP DFT with PBE;DDEC'}
data_Ce6H38C72O37
_symmetry_space_group_name_H-M   'P 1'
_cell_length_a   11.09870003
_cell_length_b   17.76799974
_cell_length_c   29.15900000
_cell_angle_alpha   86.54700027
_cell_angle_beta   79.81100134
_cell_angle_gamma   73.12300090
_symmetry_Int_Tables_number   1
_chemical_formula_structural   Ce6H38C72O37
_chemical_formula_sum   'Ce12 H76 C144 O74'
_cell_volume   5415.52648889
_cell_formula_units_Z   2
loop_
 _symmetry_equiv_pos_site_id
 _symmetry_equiv_pos_as_xyz
  1  'x, y, z'
loop_
 _atom_site_label
 _atom_site_fract_x
 _atom_site_fract_y
 _atom_site_fract_z
 _atom_site_charge
 Ce 0.24277 0.28912 0.62096   2.298381
 Ce 0.55997 0.39014 0.96533   2.298182
 Ce 0.11584 0.50381 0.69075   2.303503
 Ce 0.54586 0.10978 0.96432   2.316424
 Ce 0.1077 0.79502 0.71053   2.296073
 Ce 0.19785 0.013 0.6433   2.336723
 Ce 0.75723 0.71088 0.37905   2.298429
 Ce 0.44003 0.60986 0.03467   2.298184
 Ce 0.88416 0.49619 0.30925   2.303505
 Ce 0.45414 0.89022 0.03568   2.316426
 Ce 0.8923 0.20498 0.28947   2.296073
 Ce 0.80215 0.987 0.3567   2.336724
 H 0.9861 0.2638 0.9506   0.107186
 H 0.1805 0.2097 0.9741   0.104002
 H 0.052 0.0365 0.0401   0.106622
 H 0.8575 0.0916 0.0163   0.098703
 H 0.4972 0.0047 0.6954   0.100943
 H 0.6828 0.9467 0.7231   0.104035
 H 0.8546 0.0876 0.6417   0.095524
 H 0.6685 0.1461 0.6143   0.108206
 H 0.6919 0.622 0.7068   0.105391
 H 0.4929 0.6803 0.6876   0.112394
 H 0.5925 0.8737 0.6446   0.097815
 H 0.7923 0.8178 0.6655   0.099492
 H 0.2531 0.843 0.8304   0.091557
 H 0.3127 0.8608 0.9   0.09936
 H 0.4101 0.0523 0.847   0.095725
 H 0.3451 0.035 0.7783   0.100282
 H 0.0338 0.2365 0.4217   0.108371
 H 0.0942 0.2552 0.492   0.100422
 H 0.9677 0.0764 0.5493   0.098311
 H 0.9087 0.0579 0.4798   0.091376
 H 0.6198 0.2816 0.6442   0.092115
 H 0.8251 0.2665 0.6567   0.109422
 H 0.7413 0.4986 0.6713   0.099692
 H 0.5386 0.5119 0.6589   0.103053
 H 0.5965 0.2994 0.1312   0.102244
 H 0.6847 0.5025 0.1048   0.101161
 H 0.6543 0.2933 0.2042   0.100033
 H 0.7482 0.4941 0.177   0.093435
 H 0.428 0.3813 0.8341   0.086297
 H 0.3669 0.3921 0.7616   0.112189
 H 0.2585 0.1937 0.79   0.114243
 H 0.3102 0.1901 0.8638   0.096389
 H 0.028 0.6075 0.533   0.10365
 H 0.9733 0.6188 0.4592   0.095825
 H 0.0542 0.6097 0.0162   0.098571
 H 0.852 0.6222 0.0029   0.103374
 H 0.4098 0.2952 0.0137   0.441184
 H 0.492 0.239 0.0367   0.461016
 H 0.0139 0.7362 0.0494   0.107187
 H 0.8195 0.7903 0.0259   0.104003
 H 0.948 0.9635 0.9599   0.106621
 H 0.1425 0.9084 0.9837   0.098702
 H 0.5028 0.9953 0.3046   0.100943
 H 0.3172 0.0533 0.2769   0.104035
 H 0.1454 0.9124 0.3583   0.095522
 H 0.3315 0.8539 0.3857   0.108205
 H 0.3081 0.378 0.2932   0.105392
 H 0.5071 0.3197 0.3124   0.112395
 H 0.4075 0.1263 0.3554   0.097815
 H 0.2077 0.1822 0.3345   0.099492
 H 0.7469 0.157 0.1696   0.091557
 H 0.6873 0.1392 0.1   0.099359
 H 0.5899 0.9477 0.153   0.095726
 H 0.6549 0.965 0.2217   0.100285
 H 0.9662 0.7635 0.5783   0.108371
 H 0.9058 0.7448 0.508   0.100418
 H 0.0323 0.9236 0.4507   0.098313
 H 0.0913 0.9421 0.5202   0.091379
 H 0.3802 0.7184 0.3558   0.092117
 H 0.1749 0.7335 0.3433   0.109419
 H 0.2587 0.5014 0.3287   0.099691
 H 0.4614 0.4881 0.3411   0.103052
 H 0.4035 0.7006 0.8688   0.102245
 H 0.3153 0.4975 0.8952   0.101161
 H 0.3457 0.7067 0.7958   0.100033
 H 0.2518 0.5059 0.823   0.093433
 H 0.572 0.6187 0.1659   0.086294
 H 0.6331 0.6079 0.2384   0.112189
 H 0.7415 0.8063 0.21   0.114241
 H 0.6898 0.8099 0.1362   0.096386
 H 0.972 0.3925 0.467   0.103652
 H 0.0267 0.3812 0.5408   0.095834
 H 0.9458 0.3903 0.9838   0.098571
 H 0.148 0.3778 0.9971   0.103372
 H 0.5902 0.7048 0.9863   0.441183
 H 0.508 0.761 0.9633   0.461015
 C 0.9021 0.1819 0.9805   -0.138034
 C 0.9996 0.2178 0.9684   -0.066945
 C 0.1157 0.1856 0.9825   -0.05262
 C 0.1364 0.117 0.0095   -0.144098
 C 0.0392 0.0821 0.022   -0.049694
 C 0.9229 0.1151 0.0075   -0.046314
 C 0.7805 0.2128 0.9609   0.830227
 C 0.2652 0.0794 0.0233   0.794212
 C 0.5636 0.08 0.6514   -0.143976
 C 0.5694 0.0212 0.6843   -0.037839
 C 0.6802 0.9866 0.7008   -0.049618
 C 0.7902 0.0103 0.6846   -0.143094
 C 0.7829 0.0704 0.6524   -0.045776
 C 0.6719 0.1052 0.636   -0.054619
 C 0.4437 0.1152 0.6315   0.828816
 C 0.9133 0.9684 0.7019   0.804099
 C 0.6723 0.6733 0.6951   -0.058214
 C 0.5536 0.7079 0.6829   -0.060672
 C 0.5236 0.782 0.6639   -0.133367
 C 0.6122 0.8233 0.6575   -0.052318
 C 0.7323 0.7897 0.6703   -0.046941
 C 0.7627 0.7152 0.69   -0.144321
 C 0.39 0.8214 0.6527   0.792733
 C 0.8885 0.6808 0.7066   0.830742
 C 0.2841 0.8853 0.8337   -0.043781
 C 0.3201 0.8959 0.8755   -0.060858
 C 0.3672 0.9585 0.8809   -0.141609
 C 0.3778 0.0104 0.8441   -0.052194
 C 0.3396 0.9994 0.8027   -0.048479
 C 0.2939 0.9371 0.7972   -0.147429
 C 0.4065 0.9706 0.9263   0.813243
 C 0.2523 0.9266 0.7522   0.82852
 C 0.0217 0.2038 0.4472   -0.052945
 C 0.0575 0.2151 0.4895   -0.052576
 C 0.0386 0.1671 0.5274   -0.15871
 C 0.9822 0.1084 0.5238   -0.052579
 C 0.9471 0.0973 0.482   -0.035353
 C 0.968 0.1433 0.4439   -0.143145
 C 0.088 0.1748 0.5717   0.824035
 C 0.9331 0.1274 0.3988   0.814532
 C 0.6443 0.3256 0.6495   -0.048068
 C 0.7673 0.3164 0.657   -0.071844
 C 0.8039 0.3818 0.6651   -0.13339
 C 0.7177 0.4543 0.6658   -0.050297
 C 0.5963 0.462 0.6582   -0.050951
 C 0.5576 0.399 0.6499   -0.142354
 C 0.4274 0.407 0.6395   0.813436
 C 0.9396 0.3712 0.6735   0.778832
 C 0.6265 0.3389 0.1403   -0.057702
 C 0.6364 0.3998 0.1104   -0.110286
 C 0.68 0.4599 0.1245   -0.087152
 C 0.6606 0.3352 0.1842   -0.047813
 C 0.6011 0.404 0.0634   0.763101
 C 0.7452 0.3903 0.2445   0.819807
 C 0.716 0.4555 0.168   -0.020794
 C 0.7041 0.3945 0.1979   -0.163286
 C 0.4126 0.2811 0.9034   0.80327
 C 0.3736 0.2857 0.8567   -0.166719
 C 0.3916 0.3445 0.8255   -0.018025
 C 0.3572 0.3507 0.7817   -0.092267
 C 0.3073 0.2927 0.7685   -0.110694
 C 0.2908 0.2323 0.7989   -0.066908
 C 0.323 0.23 0.843   -0.037873
 C 0.2726 0.2963 0.7209   0.762572
 C 0.0167 0.5643 0.5197   -0.044798
 C 0.9839 0.5713 0.4755   -0.063953
 C 0.0329 0.4943 0.544   -0.124153
 C 0.0681 0.4897 0.5916   0.781071
 C 0.0327 0.5652 0.0096   -0.045293
 C 0.9112 0.5728 0.0018   -0.059482
 C 0.2551 0.4857 0.017   0.805699
 C 0.1237 0.4928 0.0077   -0.151173
 C 0.0979 0.8181 0.0195   -0.138034
 C 0.000399999999999 0.7822 0.0316   -0.066944
 C 0.8843 0.8144 0.0175   -0.052618
 C 0.8636 0.883 0.9905   -0.1441
 C 0.9608 0.9179 0.978   -0.049695
 C 0.0771 0.8849 0.9925   -0.046315
 C 0.2195 0.7872 0.0391   0.830226
 C 0.7348 0.9206 0.9767   0.794213
 C 0.4364 0.92 0.3486   -0.143974
 C 0.4306 0.9788 0.3157   -0.037837
 C 0.3198 0.0134 0.2992   -0.049617
 C 0.2098 0.9897 0.3154   -0.143093
 C 0.2171 0.9296 0.3476   -0.045777
 C 0.3281 0.8948 0.364   -0.054618
 C 0.5563 0.8848 0.3685   0.828831
 C 0.0867 0.0316 0.2981   0.8041
 C 0.3277 0.3267 0.3049   -0.058213
 C 0.4464 0.2921 0.3171   -0.060671
 C 0.4764 0.218 0.3361   -0.133368
 C 0.3878 0.1767 0.3425   -0.052317
 C 0.2677 0.2103 0.3297   -0.046942
 C 0.2373 0.2848 0.31   -0.144321
 C 0.61 0.1786 0.3473   0.792734
 C 0.1115 0.3192 0.2934   0.830742
 C 0.7159 0.1147 0.1663   -0.043781
 C 0.6799 0.1041 0.1245   -0.060858
 C 0.6328 0.0415 0.1191   -0.141612
 C 0.6222 0.9896 0.1559   -0.052192
 C 0.6604 0.000599999999999 0.1973   -0.048478
 C 0.7061 0.0629 0.2028   -0.147429
 C 0.5935 0.0294 0.0737   0.813244
 C 0.7477 0.0734 0.2478   0.82852
 C 0.9783 0.7962 0.5528   -0.052946
 C 0.9425 0.7849 0.5105   -0.052572
 C 0.9614 0.8329 0.4726   -0.158722
 C 0.0178 0.8916 0.4762   -0.05257
 C 0.0529 0.9027 0.518   -0.035353
 C 0.032 0.8567 0.5561   -0.143141
 C 0.912 0.8252 0.4283   0.824058
 C 0.0669 0.8726 0.6012   0.81453
 C 0.3557 0.6744 0.3505   -0.048069
 C 0.2327 0.6836 0.343   -0.071849
 C 0.1961 0.6182 0.3349   -0.133394
 C 0.2823 0.5457 0.3342   -0.050298
 C 0.4037 0.538 0.3418   -0.050952
 C 0.4424 0.601 0.3501   -0.142353
 C 0.5726 0.593 0.3605   0.813447
 C 0.0604 0.6288 0.3265   0.778837
 C 0.3735 0.6611 0.8597   -0.057702
 C 0.3636 0.6002 0.8896   -0.110282
 C 0.32 0.5401 0.8755   -0.087152
 C 0.3394 0.6648 0.8158   -0.047812
 C 0.3989 0.596 0.9366   0.7631
 C 0.2548 0.6097 0.7555   0.819809
 C 0.284 0.5445 0.832   -0.020795
 C 0.2959 0.6055 0.8021   -0.163289
 C 0.5874 0.7189 0.0966   0.803275
 C 0.6264 0.7143 0.1433   -0.166732
 C 0.6084 0.6555 0.1745   -0.018024
 C 0.6428 0.6493 0.2183   -0.092271
 C 0.6927 0.7073 0.2315   -0.110689
 C 0.7092 0.7677 0.2011   -0.066911
 C 0.677 0.77 0.157   -0.037875
 C 0.7274 0.7037 0.2791   0.762582
 C 0.9833 0.4357 0.4803   -0.044799
 C 0.0161 0.4287 0.5245   -0.063942
 C 0.9671 0.5057 0.456   -0.124152
 C 0.9319 0.5103 0.4084   0.781077
 C 0.9673 0.4348 0.9904   -0.045294
 C 0.0888 0.4272 0.9982   -0.059481
 C 0.7449 0.5143 0.983   0.8057
 C 0.8763 0.5072 0.9923   -0.151172
 O 0.7191 0.1648 0.9582   -0.791
 O 0.7503 0.2814 0.946   -0.758425
 O 0.3468 0.117 0.0144   -0.764462
 O 0.2818 0.0149 0.0441   -0.743458
 O 0.4313 0.1762 0.6072   -0.749138
 O 0.3594 0.0806 0.6391   -0.834602
 O 0.0035 0.9958 0.6898   -0.794792
 O 0.9169 0.9093 0.7271   -0.725538
 O 0.371 0.8893 0.636   -0.758834
 O 0.3111 0.7831 0.6598   -0.729536
 O 0.9232 0.6101 0.71419   -0.74364
 O 0.946 0.73 0.7139   -0.819231
 O 0.2588 0.9769 0.721   -0.747264
 O 0.4475 0.0267 0.9294   -0.783647
 O 0.395 0.9212 0.9583   -0.747965
 O 0.8876 0.071 0.3986   -0.779629
 O 0.9527 0.1709 0.3649   -0.746951
 O 0.0725 0.1263 0.6032   -0.805709
 O 0.1382 0.2275 0.5734   -0.771691
 O 0.3434 0.4698 0.6504   -0.747753
 O 0.4107 0.3514 0.6201   -0.751618
 O 0.0246 0.3092 0.6641   -0.702218
 O 0.9542 0.4329 0.6904   -0.768528
 O 0.6278 0.3407 0.0417   -0.673091
 O 0.5473 0.4686 0.0462   -0.849344
 O 0.7471 0.3299 0.2689   -0.792803
 O 0.7755 0.4469 0.2565   -0.78204
 O 0.4539 0.3347 0.9144   -0.78773
 O 0.4036 0.2227 0.9287   -0.749115
 O 0.289 0.2337 0.7006   -0.653276
 O 0.2287 0.3626 0.70177   -0.86884
 O 0.0321 0.5504 0.6155   -0.671337
 O 0.1297 0.424 0.60662   -0.868568
 O 0.3391 0.4231 0.007   -0.751584
 O 0.2701 0.5443 0.0345   -0.734449
 O 0.2107 0.87 0.7491   -0.805949
 O 0.4792 0.2551 0.0084   -0.900708
 O 0.2809 0.8352 0.0418   -0.790999
 O 0.2497 0.7186 0.054   -0.758423
 O 0.6532 0.883 0.9856   -0.764463
 O 0.7182 0.9851 0.9559   -0.74346
 O 0.5687 0.8238 0.3928   -0.74916
 O 0.6406 0.9194 0.3609   -0.834604
 O 0.9965 0.0042 0.3102   -0.794793
 O 0.0831 0.0907 0.2729   -0.725537
 O 0.629 0.1107 0.364   -0.758836
 O 0.6889 0.2169 0.3402   -0.729535
 O 0.0768 0.3899 0.28581   -0.74364
 O 0.054 0.27 0.2861   -0.819232
 O 0.7412 0.0231 0.279   -0.747261
 O 0.5525 0.9733 0.0706   -0.783646
 O 0.605 0.0788 0.0417   -0.747967
 O 0.1124 0.929 0.6014   -0.779624
 O 0.0473 0.8291 0.6351   -0.746952
 O 0.9275 0.8737 0.3968   -0.805687
 O 0.8618 0.7725 0.4266   -0.771739
 O 0.6566 0.5302 0.3496   -0.747756
 O 0.5893 0.6486 0.3799   -0.751638
 O 0.9754 0.6908 0.3359   -0.702225
 O 0.0458 0.5671 0.3096   -0.768526
 O 0.3722 0.6593 0.9583   -0.67309
 O 0.4527 0.5314 0.9538   -0.849344
 O 0.2529 0.6701 0.7311   -0.792802
 O 0.2245 0.5531 0.7435   -0.782046
 O 0.5461 0.6653 0.0856   -0.787733
 O 0.5964 0.7773 0.0713   -0.74912
 O 0.711 0.7663 0.2994   -0.653269
 O 0.7713 0.6374 0.29823   -0.868826
 O 0.9679 0.4496 0.3845   -0.671323
 O 0.8703 0.576 0.39338   -0.868611
 O 0.6609 0.5769 0.993   -0.751584
 O 0.7299 0.4557 0.9655   -0.734452
 O 0.7893 0.13 0.2509   -0.80595
 O 0.5208 0.7449 0.9916   -0.900708
