{'_ref': 'TBD', '_srcid': 'CAKYAQ_clean', 'submitters': [{'name': 'Dalar Nazarian Jeff Camp and David Sholl', 'email': 'dalar@gatech.edu jcamp6@gatech.edu'}], '_method': 'VASP DFT with PBE;DDEC'}
data_YH6(C2O)6
_symmetry_space_group_name_H-M   'P 1'
_cell_length_a   8.61299985
_cell_length_b   10.12199993
_cell_length_c   11.09500000
_cell_angle_alpha   65.20500050
_cell_angle_beta   71.60900221
_cell_angle_gamma   78.61699966
_symmetry_Int_Tables_number   1
_chemical_formula_structural   YH6(C2O)6
_chemical_formula_sum   'Y2 H12 C24 O12'
_cell_volume   830.874137827
_cell_formula_units_Z   2
loop_
 _symmetry_equiv_pos_site_id
 _symmetry_equiv_pos_as_xyz
  1  'x, y, z'
loop_
 _atom_site_label
 _atom_site_fract_x
 _atom_site_fract_y
 _atom_site_fract_z
 _atom_site_charge
 Y 0.36688 0.06328 0.33869   2.020731
 Y 0.63312 0.93672 0.66131   2.020729
 H 0.5538 0.7227 0.314   0.107125
 H 0.4948 0.4752 0.7184   0.120534
 H 0.9584 0.1511 0.1158   0.079568
 H 0.781 0.8843 0.0132   0.111267
 H 0.2758 0.448 0.9161   0.103053
 H 0.8658 0.3708 0.2292   0.104076
 H 0.4462 0.2773 0.686   0.107122
 H 0.5052 0.5248 0.2816   0.12053
 H 0.0416 0.8489 0.8842   0.079568
 H 0.219 0.1157 0.9868   0.111267
 H 0.7242 0.552 0.0839   0.103053
 H 0.1342 0.6292 0.7708   0.104076
 C 0.5569 0.745 0.5437   0.764345
 C 0.5284 0.6188 0.5196   -0.144791
 C 0.5322 0.6341 0.388   -0.065482
 C 0.4966 0.4844 0.631   -0.039242
 C 0.6741 0.0458 0.161   0.677734
 C 0.8434 0.0208 0.0787   -0.109284
 C 0.9767 0.0899 0.0686   -0.050544
 C 0.8675 0.9302 0.0084   -0.075073
 C 0.1769 0.2705 0.1798   0.666955
 C 0.0834 0.3913 0.0884   -0.10836
 C 0.1644 0.4699 0.949   -0.049101
 C 0.9196 0.422 0.1381   -0.048475
 C 0.4431 0.255 0.4563   0.764347
 C 0.4716 0.3812 0.4804   -0.144794
 C 0.4678 0.3659 0.612   -0.065465
 C 0.5034 0.5156 0.369   -0.039222
 C 0.3259 0.9542 0.839   0.677733
 C 0.1566 0.9792 0.9213   -0.109283
 C 0.0233 0.9101 0.9314   -0.050548
 C 0.1325 0.0698 0.9916   -0.075075
 C 0.8231 0.7295 0.8202   0.666955
 C 0.9166 0.6087 0.9116   -0.108362
 C 0.8356 0.5301 0.051   -0.049101
 C 0.0804 0.578 0.8619   -0.048472
 O 0.5184 0.8722 0.4684   -0.793071
 O 0.6223 0.7203 0.6386   -0.638542
 O 0.6554 0.1225 0.2297   -0.640106
 O 0.5526 0.9885 0.1644   -0.661376
 O 0.105 0.1968 0.3058   -0.714835
 O 0.3263 0.2449 0.1268   -0.617117
 O 0.4816 0.1278 0.5316   -0.793071
 O 0.3777 0.2797 0.3614   -0.638542
 O 0.3446 0.8775 0.7703   -0.640106
 O 0.4474 0.0115 0.8356   -0.661375
 O 0.895 0.8032 0.6942   -0.714835
 O 0.6737 0.7551 0.8732   -0.617117
