{'_ref': 'TBD', '_srcid': 'CAKYAQ_clean', 'submitters': [{'name': 'Dalar Nazarian Jeff Camp and David Sholl', 'email': 'dalar@gatech.edu jcamp6@gatech.edu'}], '_method': 'VASP DFT with PBE;DDEC'}
data_NdH6(C2O)6
_symmetry_space_group_name_H-M   'P 1'
_cell_length_a   11.14359996
_cell_length_b   17.85000015
_cell_length_c   29.34000000
_cell_angle_alpha   86.63799940
_cell_angle_beta   79.66600098
_cell_angle_gamma   73.20599897
_symmetry_Int_Tables_number   1
_chemical_formula_structural   NdH6(C2O)6
_chemical_formula_sum   'Nd12 H72 C144 O72'
_cell_volume   5496.42813278
_cell_formula_units_Z   12
loop_
 _symmetry_equiv_pos_site_id
 _symmetry_equiv_pos_as_xyz
  1  'x, y, z'
loop_
 _atom_site_label
 _atom_site_fract_x
 _atom_site_fract_y
 _atom_site_fract_z
 _atom_site_charge
 Nd 0.24387 0.28921 0.62066   2.329031
 Nd 0.5606 0.39016 0.96491   2.337138
 Nd 0.11586 0.50474 0.69082   2.337683
 Nd 0.54628 0.11016 0.96419   2.342926
 Nd 0.10735 0.79484 0.71046   2.336788
 Nd 0.19834 0.01381 0.64326   2.369982
 Nd 0.75613 0.71079 0.37934   2.329026
 Nd 0.4394 0.60984 0.03509   2.33714
 Nd 0.88414 0.49526 0.30919   2.337675
 Nd 0.45372 0.88984 0.03581   2.342927
 Nd 0.89265 0.20516 0.28954   2.336789
 Nd 0.80166 0.98619 0.35674   2.369981
 H 0.9894 0.2633 0.9509   0.107068
 H 0.184 0.2085 0.9734   0.113494
 H 0.0484 0.039 0.0405   0.105903
 H 0.8569 0.0925 0.0159   0.10704
 H 0.4966 0.0058 0.6957   0.102725
 H 0.6816 0.946 0.7222   0.105531
 H 0.8551 0.0878 0.6427   0.100008
 H 0.6704 0.145 0.6146   0.107063
 H 0.6894 0.6244 0.7067   0.10241
 H 0.4936 0.6794 0.6862   0.118136
 H 0.5966 0.8734 0.645   0.096666
 H 0.7908 0.8187 0.6676   0.099724
 H 0.7466 0.1568 0.1699   0.094239
 H 0.6888 0.1391 0.1006   0.104968
 H 0.5884 0.9495 0.1527   0.093397
 H 0.6501 0.9659 0.2215   0.103628
 H 0.0377 0.2347 0.422   0.107367
 H 0.096 0.2555 0.4904   0.104771
 H 0.9684 0.0772 0.5492   0.099584
 H 0.9075 0.0579 0.4814   0.095152
 H 0.6192 0.2829 0.6444   0.097972
 H 0.824 0.2678 0.6561   0.110542
 H 0.7432 0.4975 0.6715   0.097357
 H 0.5409 0.5128 0.6586   0.107674
 H 0.4024 0.7012 0.8694   0.110198
 H 0.3132 0.499 0.8954   0.103775
 H 0.3497 0.7066 0.7966   0.102676
 H 0.254 0.5059 0.8236   0.094457
 H 0.4272 0.3819 0.8339   0.094215
 H 0.3643 0.3917 0.7622   0.108883
 H 0.2576 0.1955 0.7897   0.114091
 H 0.3101 0.1908 0.8628   0.102361
 H 0.0261 0.6075 0.5317   0.099757
 H 0.9723 0.6165 0.4594   0.092432
 H 0.9442 0.3912 0.9835   0.098198
 H 0.1462 0.3786 0.9956   0.107526
 H 0.0106 0.7367 0.0491   0.107069
 H 0.816 0.7915 0.0266   0.113495
 H 0.9516 0.961 0.9595   0.105903
 H 0.1431 0.9075 0.9841   0.10704
 H 0.5034 0.9942 0.3043   0.102725
 H 0.3184 0.054 0.2778   0.105532
 H 0.1449 0.9122 0.3573   0.100007
 H 0.3296 0.855 0.3854   0.107062
 H 0.3106 0.3756 0.2933   0.102409
 H 0.5064 0.3206 0.3138   0.118137
 H 0.4034 0.1266 0.355   0.096665
 H 0.2092 0.1813 0.3324   0.099724
 H 0.2534 0.8432 0.8301   0.094237
 H 0.3112 0.8609 0.8994   0.104968
 H 0.4116 0.0505 0.8473   0.093397
 H 0.3499 0.0341 0.7785   0.103628
 H 0.9623 0.7653 0.578   0.107368
 H 0.904 0.7445 0.5096   0.104771
 H 0.0316 0.9228 0.4508   0.099584
 H 0.0925 0.9421 0.5186   0.095152
 H 0.3808 0.7171 0.3556   0.097973
 H 0.176 0.7322 0.3439   0.110542
 H 0.2568 0.5025 0.3285   0.097356
 H 0.4591 0.4872 0.3414   0.107676
 H 0.5976 0.2988 0.1306   0.110195
 H 0.6868 0.501 0.1046   0.103772
 H 0.6503 0.2934 0.2034   0.102676
 H 0.746 0.4941 0.1764   0.094465
 H 0.5728 0.6181 0.1661   0.094215
 H 0.6357 0.6083 0.2378   0.10889
 H 0.7424 0.8045 0.2103   0.11409
 H 0.6899 0.8092 0.1372   0.10236
 H 0.9739 0.3925 0.4683   0.099755
 H 0.0277 0.3835 0.5406   0.092434
 H 0.0558 0.6088 0.0165   0.098198
 H 0.8538 0.6214 0.0044   0.107526
 C 0.9064 0.1822 0.9794   -0.134984
 C 0.0028 0.2171 0.9682   -0.058204
 C 0.1185 0.1853 0.9819   -0.055166
 C 0.1361 0.1163 0.0094   -0.145653
 C 0.0374 0.0836 0.0218   -0.046825
 C 0.9228 0.1154 0.0072   -0.047246
 C 0.7841 0.2143 0.96   0.835184
 C 0.2651 0.0798 0.0238   0.81475
 C 0.5657 0.0802 0.6507   -0.145017
 C 0.5694 0.0212 0.6843   -0.038782
 C 0.6793 0.9863 0.7005   -0.049687
 C 0.7867 0.0095 0.6854   -0.14377
 C 0.7834 0.0707 0.6528   -0.052879
 C 0.6731 0.1045 0.6362   -0.051103
 C 0.4453 0.1161 0.6309   0.838485
 C 0.9119 0.9665 0.7022   0.810432
 C 0.6701 0.6751 0.6948   -0.044682
 C 0.5532 0.7075 0.6825   -0.066055
 C 0.5243 0.7839 0.6641   -0.13782
 C 0.6145 0.8235 0.6581   -0.045144
 C 0.7312 0.7906 0.6712   -0.049745
 C 0.7599 0.7154 0.69   -0.146365
 C 0.3903 0.822 0.6526   0.809292
 C 0.8856 0.6831 0.7066   0.843698
 C 0.7162 0.1145 0.1663   -0.049981
 C 0.6806 0.104 0.1248   -0.05128
 C 0.6336 0.0428 0.1186   -0.139757
 C 0.6214 0.9909 0.1558   -0.051237
 C 0.6582 0.000900000000001 0.1972   -0.050955
 C 0.7064 0.0617 0.2028   -0.141569
 C 0.5917 0.0321 0.0738   0.823191
 C 0.7498 0.0717 0.2473   0.824443
 C 0.0241 0.203 0.4476   -0.042983
 C 0.0594 0.2154 0.4884   -0.053166
 C 0.04 0.1671 0.5271   -0.159284
 C 0.9826 0.1087 0.5236   -0.048108
 C 0.9465 0.097 0.483   -0.040007
 C 0.9678 0.1432 0.4441   -0.140553
 C 0.0888 0.175 0.5709   0.828842
 C 0.9318 0.1259 0.3995   0.817583
 C 0.6446 0.3266 0.6492   -0.05152
 C 0.7667 0.3175 0.6566   -0.066041
 C 0.8039 0.3819 0.6648   -0.129668
 C 0.719 0.4538 0.6656   -0.047842
 C 0.5979 0.463 0.6578   -0.056161
 C 0.5599 0.4 0.649   -0.136555
 C 0.4295 0.4102 0.6386   0.808741
 C 0.9389 0.3726 0.6737   0.781662
 C 0.3734 0.6617 0.8599   -0.063216
 C 0.3626 0.5994 0.8898   -0.105516
 C 0.3193 0.541 0.8758   -0.080848
 C 0.3413 0.6653 0.8165   -0.049095
 C 0.3991 0.5971 0.9368   0.778972
 C 0.2539 0.6114 0.7558   0.825535
 C 0.2849 0.5448 0.8327   -0.025507
 C 0.2964 0.6068 0.8028   -0.162655
 C 0.4145 0.2806 0.9026   0.821969
 C 0.373 0.2857 0.856   -0.158311
 C 0.3911 0.3451 0.8253   -0.025667
 C 0.3559 0.3501 0.7819   -0.086253
 C 0.3084 0.2935 0.7681   -0.105226
 C 0.2907 0.2335 0.7986   -0.069806
 C 0.3228 0.2307 0.8424   -0.03887
 C 0.273 0.2972 0.72   0.770196
 C 0.0158 0.5638 0.5189   -0.037407
 C 0.9832 0.5694 0.4757   -0.069307
 C 0.0334 0.4949 0.5437   -0.12036
 C 0.0705 0.4895 0.5908   0.793205
 C 0.9668 0.4352 0.99   -0.051637
 C 0.087 0.4276 0.9976   -0.057577
 C 0.7452 0.5159 0.9821   0.80252
 C 0.8783 0.5081 0.9918   -0.144236
 C 0.0936 0.8178 0.0206   -0.134984
 C 0.9972 0.7829 0.0318   -0.058204
 C 0.8815 0.8147 0.0181   -0.055165
 C 0.8639 0.8837 0.9906   -0.145653
 C 0.9626 0.9164 0.9782   -0.046826
 C 0.0772 0.8846 0.9928   -0.047247
 C 0.2159 0.7857 0.04   0.835183
 C 0.7349 0.9202 0.9762   0.81475
 C 0.4343 0.9198 0.3493   -0.145019
 C 0.4306 0.9788 0.3157   -0.03878
 C 0.3207 0.0137 0.2995   -0.049687
 C 0.2133 0.9905 0.3146   -0.143768
 C 0.2166 0.9293 0.3472   -0.05288
 C 0.3269 0.8955 0.3638   -0.051103
 C 0.5547 0.8839 0.3691   0.838486
 C 0.0881 0.0335 0.2978   0.810431
 C 0.3299 0.3249 0.3052   -0.044686
 C 0.4468 0.2925 0.3175   -0.066053
 C 0.4757 0.2161 0.3359   -0.137823
 C 0.3855 0.1765 0.3419   -0.045144
 C 0.2688 0.2094 0.3288   -0.049748
 C 0.2401 0.2846 0.31   -0.146364
 C 0.6097 0.178 0.3474   0.809292
 C 0.1144 0.3169 0.2934   0.843681
 C 0.2838 0.8855 0.8337   -0.049982
 C 0.3194 0.896 0.8752   -0.05128
 C 0.3664 0.9572 0.8814   -0.139755
 C 0.3786 0.0091 0.8442   -0.051238
 C 0.3418 0.9991 0.8028   -0.050955
 C 0.2936 0.9383 0.7972   -0.14157
 C 0.4083 0.9679 0.9262   0.82319
 C 0.2502 0.9283 0.7527   0.824444
 C 0.9759 0.797 0.5524   -0.042982
 C 0.9406 0.7846 0.5116   -0.053166
 C 0.96 0.8329 0.4729   -0.159284
 C 0.0174 0.8913 0.4764   -0.048108
 C 0.0535 0.903 0.517   -0.040006
 C 0.0322 0.8568 0.5559   -0.140555
 C 0.9112 0.825 0.4291   0.828842
 C 0.0682 0.8741 0.6005   0.817585
 C 0.3554 0.6734 0.3508   -0.051519
 C 0.2333 0.6825 0.3434   -0.066039
 C 0.1961 0.6181 0.3352   -0.129668
 C 0.281 0.5462 0.3344   -0.047841
 C 0.4021 0.537 0.3422   -0.056157
 C 0.4401 0.6 0.351   -0.136555
 C 0.5705 0.5898 0.3614   0.808744
 C 0.0611 0.6274 0.3263   0.781653
 C 0.6266 0.3383 0.1401   -0.063215
 C 0.6374 0.4006 0.1102   -0.105526
 C 0.6807 0.459 0.1242   -0.08085
 C 0.6587 0.3347 0.1835   -0.049103
 C 0.6009 0.4029 0.0632   0.778977
 C 0.7461 0.3886 0.2442   0.825544
 C 0.7151 0.4552 0.1673   -0.025509
 C 0.7036 0.3932 0.1972   -0.162643
 C 0.5855 0.7194 0.0974   0.82197
 C 0.627 0.7143 0.144   -0.158313
 C 0.6089 0.6549 0.1747   -0.02567
 C 0.6441 0.6499 0.2181   -0.086243
 C 0.6916 0.7065 0.2319   -0.105223
 C 0.7093 0.7665 0.2014   -0.069809
 C 0.6772 0.7693 0.1576   -0.038872
 C 0.727 0.7028 0.28   0.770207
 C 0.9842 0.4362 0.4811   -0.037403
 C 0.0168 0.4306 0.5243   -0.069312
 C 0.9666 0.5051 0.4563   -0.120379
 C 0.9295 0.5105 0.4092   0.793193
 C 0.0332 0.5648 0.01   -0.051637
 C 0.913 0.5724 0.0024   -0.057576
 C 0.2548 0.4841 0.0179   0.80252
 C 0.1217 0.4919 0.0082   -0.144235
 O 0.7201 0.1672 0.9579   -0.836092
 O 0.7556 0.2832 0.9452   -0.765549
 O 0.3464 0.1155 0.0148   -0.764665
 O 0.2789 0.0147 0.0437   -0.759455
 O 0.4384 0.1767 0.6069   -0.757807
 O 0.3599 0.0839 0.6389   -0.845462
 O 0.0051 0.9927 0.69   -0.829686
 O 0.9139 0.909 0.727   -0.716838
 O 0.3746 0.8898 0.6364   -0.778172
 O 0.3118 0.7852 0.6596   -0.737282
 O 0.9201 0.6109 0.7144   -0.785119
 O 0.9436 0.7289 0.7148   -0.811335
 O 0.7421 0.0196 0.2779   -0.749101
 O 0.5511 0.9745 0.0708   -0.808074
 O 0.6048 0.0812 0.0421   -0.746825
 O 0.8849 0.0712 0.3995   -0.770614
 O 0.9539 0.1703 0.3651   -0.775497
 O 0.0707 0.1271 0.6031   -0.825566
 O 0.141 0.2267 0.5727   -0.78145
 O 0.3434 0.474 0.6497   -0.761321
 O 0.4124 0.3543 0.619   -0.754438
 O 0.0242 0.3086 0.6633   -0.734963
 O 0.9547 0.4316 0.6905   -0.74904
 O 0.372 0.6597 0.9584   -0.677824
 O 0.4524 0.5317 0.95379   -0.878922
 O 0.2548 0.6713 0.7319   -0.806408
 O 0.2242 0.5548 0.7442   -0.789938
 O 0.4549 0.3339 0.9137   -0.808952
 O 0.4024 0.2221 0.9278   -0.804459
 O 0.2907 0.2349 0.7001   -0.652531
 O 0.2304 0.363 0.7014   -0.88588
 O 0.0352 0.5518 0.6141   -0.695421
 O 0.1302 0.426 0.606   -0.872064
 O 0.6616 0.5791 0.9928   -0.750662
 O 0.7307 0.4576 0.9642   -0.745043
 O 0.792 0.1286 0.2505   -0.813476
 O 0.2799 0.8328 0.0421   -0.836091
 O 0.2444 0.7168 0.0548   -0.765547
 O 0.6536 0.8845 0.9852   -0.764666
 O 0.7211 0.9853 0.9563   -0.759456
 O 0.5616 0.8233 0.3931   -0.757808
 O 0.6401 0.9161 0.3611   -0.845461
 O 0.9949 0.0073 0.31   -0.829687
 O 0.0861 0.091 0.273   -0.716836
 O 0.6254 0.1102 0.3636   -0.778175
 O 0.6882 0.2148 0.3404   -0.737282
 O 0.0799 0.3891 0.2856   -0.78509
 O 0.0564 0.2711 0.2852   -0.81133
 O 0.2579 0.9804 0.7221   -0.7491
 O 0.4489 0.0255 0.9292   -0.808074
 O 0.3952 0.9188 0.9579   -0.746824
 O 0.1151 0.9288 0.6005   -0.770614
 O 0.0461 0.8297 0.6349   -0.775497
 O 0.9293 0.8729 0.3969   -0.825564
 O 0.859 0.7733 0.4273   -0.781452
 O 0.6566 0.526 0.3503   -0.761323
 O 0.5876 0.6457 0.381   -0.75444
 O 0.9758 0.6914 0.3367   -0.734958
 O 0.0453 0.5684 0.3095   -0.749022
 O 0.628 0.3403 0.0416   -0.677827
 O 0.5476 0.4683 0.04621   -0.878925
 O 0.7452 0.3287 0.2681   -0.80643
 O 0.7758 0.4452 0.2558   -0.789963
 O 0.5451 0.6661 0.0863   -0.808952
 O 0.5976 0.7779 0.0722   -0.804462
 O 0.7093 0.7651 0.2999   -0.65254
 O 0.7696 0.637 0.2986   -0.885892
 O 0.9648 0.4482 0.3859   -0.695399
 O 0.8698 0.574 0.394   -0.872064
 O 0.3384 0.4209 0.0072   -0.750662
 O 0.2693 0.5424 0.0358   -0.74504
 O 0.208 0.8714 0.7495   -0.813479
