{'_ref': 'TBD', '_srcid': 'CAKYAQ_clean', 'submitters': [{'name': 'Dalar Nazarian Jeff Camp and David Sholl', 'email': 'dalar@gatech.edu jcamp6@gatech.edu'}], '_method': 'VASP DFT with PBE;DDEC'}
data_Nd2(C3O4)3
_symmetry_space_group_name_H-M   'P 1'
_cell_length_a   11.25800000
_cell_length_b   12.60200000
_cell_length_c   14.68900000
_cell_angle_alpha   90.00000000
_cell_angle_beta   90.00000000
_cell_angle_gamma   90.00000000
_symmetry_Int_Tables_number   1
_chemical_formula_structural   Nd2(C3O4)3
_chemical_formula_sum   'Nd8 C36 O48'
_cell_volume   2083.97713872
_cell_formula_units_Z   4
loop_
 _symmetry_equiv_pos_site_id
 _symmetry_equiv_pos_as_xyz
  1  'x, y, z'
loop_
 _atom_site_label
 _atom_site_fract_x
 _atom_site_fract_y
 _atom_site_fract_z
 _atom_site_charge
 Nd 0.85083 0.88657 0.99259   2.307473
 Nd 0.64917 0.61343 0.49259   2.307476
 Nd 0.14917 0.88657 0.50741   2.307475
 Nd 0.35083 0.61343 0.00741   2.307479
 Nd 0.14917 0.11343 0.00741   2.307472
 Nd 0.35083 0.38657 0.50741   2.307475
 Nd 0.85083 0.11343 0.49259   2.307474
 Nd 0.64917 0.38657 0.99259   2.307478
 C 0.9675 0.9869 0.8325   0.800899
 C 0.6968 0.116 0.9236   0.782187
 C 0.6145 0.0494 0.8638   -0.188848
 C 0.5705 0.9454 0.9034   0.753986
 C 0.5325 0.5131 0.3325   0.800899
 C 0.8032 0.384 0.4236   0.782187
 C 0.8855 0.4506 0.3638   -0.188848
 C 0.9295 0.5546 0.4034   0.753986
 C 0.0325 0.9869 0.6675   0.800898
 C 0.3032 0.116 0.5764   0.782186
 C 0.3855 0.0494 0.6362   -0.188844
 C 0.4295 0.9454 0.5966   0.753985
 C 0.4675 0.5131 0.1675   0.800898
 C 0.1968 0.384 0.0764   0.782186
 C 0.1145 0.4506 0.1362   -0.188844
 C 0.0705 0.5546 0.0966   0.753985
 C 0.0325 0.0131 0.1675   0.800899
 C 0.3032 0.884 0.0764   0.782187
 C 0.3855 0.9506 0.1362   -0.188848
 C 0.4295 0.0546 0.0966   0.753986
 C 0.4675 0.4869 0.6675   0.800899
 C 0.1968 0.616 0.5764   0.782187
 C 0.1145 0.5494 0.6362   -0.188848
 C 0.0705 0.4454 0.5966   0.753986
 C 0.9675 0.0131 0.3325   0.800898
 C 0.6968 0.884 0.4236   0.782186
 C 0.6145 0.9506 0.3638   -0.188844
 C 0.5705 0.0546 0.4034   0.753985
 C 0.5325 0.4869 0.8325   0.800898
 C 0.8032 0.616 0.9236   0.782186
 C 0.8855 0.5494 0.8638   -0.188844
 C 0.9295 0.4454 0.9034   0.753985
 C 0.0 0.0527 0.75   -0.417037
 C 0.5 0.4473 0.25   -0.417037
 C 0.0 0.9473 0.25   -0.417037
 C 0.5 0.5527 0.75   -0.417037
 O 0.8962 0.915 0.825   -0.588505
 O 0.0167 0.0088 0.9089   -0.887496
 O 0.7801 0.0697 0.9693   -0.707998
 O 0.6853 0.2155 0.9248   -0.750068
 O 0.6455 0.8838 0.9396   -0.765655
 O 0.4657 0.9289 0.9048   -0.547459
 O 0.6038 0.585 0.325   -0.588505
 O 0.4833 0.4912 0.4089   -0.887497
 O 0.7199 0.4303 0.4693   -0.707998
 O 0.8147 0.2845 0.4248   -0.750068
 O 0.8545 0.6162 0.4396   -0.765655
 O 0.0343 0.5711 0.4048   -0.547459
 O 0.1038 0.915 0.675   -0.588505
 O 0.9833 0.0088 0.5911   -0.887496
 O 0.2199 0.0697 0.5307   -0.707998
 O 0.3147 0.2155 0.5752   -0.750068
 O 0.3545 0.8838 0.5604   -0.765655
 O 0.5343 0.9289 0.5952   -0.547459
 O 0.3962 0.585 0.175   -0.588506
 O 0.5167 0.4912 0.0911   -0.887497
 O 0.2801 0.4303 0.0307   -0.707998
 O 0.1853 0.2845 0.0752   -0.750068
 O 0.1455 0.6162 0.0604   -0.765655
 O 0.9657 0.5711 0.0952   -0.547459
 O 0.1038 0.085 0.175   -0.588505
 O 0.9833 0.9912 0.0911   -0.887496
 O 0.2199 0.9303 0.0307   -0.707998
 O 0.3147 0.7845 0.0752   -0.750068
 O 0.3545 0.1162 0.0604   -0.765655
 O 0.5343 0.0711 0.0952   -0.547459
 O 0.3962 0.415 0.675   -0.588505
 O 0.5167 0.5088 0.5911   -0.887497
 O 0.2801 0.5697 0.5307   -0.707998
 O 0.1853 0.7155 0.5752   -0.750068
 O 0.1455 0.3838 0.5604   -0.765655
 O 0.9657 0.4289 0.5952   -0.547459
 O 0.8962 0.085 0.325   -0.588505
 O 0.0167 0.9912 0.4089   -0.887497
 O 0.7801 0.9303 0.4693   -0.707998
 O 0.6853 0.7845 0.4248   -0.750068
 O 0.6455 0.1162 0.4396   -0.765655
 O 0.4657 0.0711 0.4048   -0.547459
 O 0.6038 0.415 0.825   -0.588506
 O 0.4833 0.5088 0.9089   -0.887497
 O 0.7199 0.5697 0.9693   -0.707998
 O 0.8147 0.7155 0.9248   -0.750068
 O 0.8545 0.3838 0.9396   -0.765655
 O 0.0343 0.4289 0.9048   -0.547459
