{'_ref': 'TBD', '_srcid': 'CAKYAQ_clean', 'submitters': [{'name': 'Dalar Nazarian Jeff Camp and David Sholl', 'email': 'dalar@gatech.edu jcamp6@gatech.edu'}], '_method': 'VASP DFT with PBE;DDEC'}
data_ZnH12C15(NO2)2
_symmetry_space_group_name_H-M   'P 1'
_cell_length_a   12.27509978
_cell_length_b   19.92880048
_cell_length_c   19.92880000
_cell_angle_alpha   103.53600053
_cell_angle_beta   93.89760238
_cell_angle_gamma   93.89759822
_symmetry_Int_Tables_number   1
_chemical_formula_structural   ZnH12C15(NO2)2
_chemical_formula_sum   'Zn8 H96 C120 N16 O32'
_cell_volume   4711.04798935
_cell_formula_units_Z   8
loop_
 _symmetry_equiv_pos_site_id
 _symmetry_equiv_pos_as_xyz
  1  'x, y, z'
loop_
 _atom_site_label
 _atom_site_fract_x
 _atom_site_fract_y
 _atom_site_fract_z
 _atom_site_charge
 Zn 0.81324 0.60609 0.11638   0.89675
 Zn 0.6138 0.66722 0.15566   0.891983
 Zn 0.92931 0.19862 0.93606   0.902136
 Zn 0.01809 0.34034 0.08545   0.923805
 Zn 0.31324 0.11638 0.60609   0.89675
 Zn 0.1138 0.15566 0.66722   0.891983
 Zn 0.42931 0.93606 0.19862   0.902136
 Zn 0.51809 0.08545 0.34034   0.923804
 H 0.5053 0.7313 0.2829   0.092795
 H 0.4286 0.6619 0.2481   0.093948
 H 0.3017 0.845 0.2804   0.079558
 H 0.4285 0.8417 0.3031   0.081779
 H 0.3227 0.801 0.0998   0.091773
 H 0.2379 0.8216 0.1572   0.08447
 H 0.1883 0.7417 0.2269   0.069083
 H 0.2383 0.6681 0.2139   0.070591
 H 0.3611 0.6378 0.1258   0.07286
 H 0.3943 0.691 0.0802   0.096621
 H 0.5125 0.7966 0.1326   0.104211
 H 0.5575 0.8126 0.2126   0.088093
 H 0.057 0.5944 0.1736   0.085569
 H 0.0663 0.6401 0.1177   0.080999
 H 0.871 0.4608 0.0714   0.090447
 H 0.9389 0.4864 0.1456   0.096878
 H 0.9631 0.6008 0.0036   0.090563
 H 0.8865 0.5296 0.9852   0.091115
 H 0.2 0.4585 0.0875   0.091242
 H 0.1379 0.4853 0.1555   0.087105
 H 0.1586 0.599 0.0154   0.077242
 H 0.2113 0.5262 0.0034   0.068628
 H 0.9644 0.4219 0.9675   0.08104
 H 0.0948 0.4197 0.9733   0.080148
 H 0.6583 0.836 0.0556   0.116921
 H 0.6338 0.9548 0.0386   0.118035
 H 0.7006 0.0503 0.0033   0.10834
 H 0.9556 0.9504 0.9244   0.106588
 H 0.9799 0.8302 0.941   0.115196
 H 0.9235 0.7397 0.9877   0.095718
 H 0.7924 0.4514 0.2274   0.109031
 H 0.4533 0.4205 0.3149   0.109922
 H 0.4932 0.5152 0.2714   0.099397
 H 0.8473 0.3429 0.2531   0.112048
 H 0.8076 0.2465 0.2953   0.107003
 H 0.5086 0.3076 0.3408   0.104763
 H 0.7646 0.8332 0.3318   0.104182
 H 0.7819 0.9394 0.4296   0.100015
 H 0.163 0.9277 0.4525   0.105737
 H 0.1437 0.8167 0.3603   0.109823
 H 0.0344 0.7357 0.2759   0.086343
 H 0.8904 0.0183 0.5147   0.089328
 H 0.6782 0.3863 0.1065   0.092137
 H 0.4907 0.388 0.1076   0.11349
 H 0.3033 0.3395 0.0559   0.110741
 H 0.642 0.2254 0.9372   0.100378
 H 0.4533 0.1728 0.8884   0.113526
 H 0.2665 0.1742 0.8902   0.096888
 H 0.0053 0.2829 0.7313   0.092794
 H 0.9286 0.2481 0.6619   0.093949
 H 0.8017 0.2804 0.845   0.079558
 H 0.9285 0.3031 0.8417   0.081779
 H 0.8227 0.0998 0.801   0.091773
 H 0.7379 0.1572 0.8216   0.08447
 H 0.6883 0.2269 0.7417   0.069083
 H 0.7383 0.2139 0.6681   0.070591
 H 0.8611 0.1258 0.6378   0.07286
 H 0.8943 0.0802 0.691   0.096621
 H 0.0125 0.1326 0.7966   0.104211
 H 0.0575 0.2126 0.8126   0.088093
 H 0.557 0.1736 0.5944   0.085569
 H 0.5663 0.1177 0.6401   0.080999
 H 0.371 0.0714 0.4608   0.090447
 H 0.4389 0.1456 0.4864   0.096878
 H 0.4631 0.0036 0.6008   0.090563
 H 0.3865 0.9852 0.5296   0.091114
 H 0.7 0.0875 0.4585   0.091242
 H 0.6379 0.1555 0.4853   0.087106
 H 0.6586 0.0154 0.599   0.077242
 H 0.7113 0.0034 0.5262   0.068628
 H 0.4644 0.9675 0.4219   0.081038
 H 0.5948 0.9733 0.4197   0.080147
 H 0.1583 0.0556 0.836   0.116921
 H 0.1338 0.0386 0.9548   0.118035
 H 0.2006 0.0033 0.0503   0.10834
 H 0.4556 0.9244 0.9504   0.106589
 H 0.4799 0.941 0.8302   0.115196
 H 0.4235 0.9877 0.7397   0.095718
 H 0.2924 0.2274 0.4514   0.109031
 H 0.9533 0.3149 0.4205   0.109922
 H 0.9932 0.2714 0.5152   0.099397
 H 0.3473 0.2531 0.3429   0.112048
 H 0.3076 0.2953 0.2465   0.107003
 H 0.0086 0.3408 0.3076   0.104764
 H 0.2646 0.3318 0.8332   0.104182
 H 0.2819 0.4296 0.9394   0.100016
 H 0.663 0.4525 0.9277   0.105736
 H 0.6437 0.3603 0.8167   0.109823
 H 0.5344 0.2759 0.7357   0.086343
 H 0.3904 0.5147 0.0183   0.089328
 H 0.1782 0.1065 0.3863   0.092137
 H 0.9907 0.1076 0.388   0.11349
 H 0.8033 0.0559 0.3395   0.110741
 H 0.142 0.9372 0.2254   0.100378
 H 0.9533 0.8884 0.1728   0.113526
 H 0.7665 0.8902 0.1742   0.096888
 C 0.4431 0.71135 0.24807   0.12419
 C 0.3676 0.82055 0.26767   0.136698
 C 0.304 0.79673 0.14621   0.12308
 C 0.2546 0.71755 0.21441   0.159826
 C 0.3765 0.68743 0.12699   0.12438
 C 0.4941 0.79187 0.17897   0.085463
 C 0.0575 0.59211 0.12345   0.118453
 C 0.9409 0.48493 0.09569   0.091702
 C 0.9559 0.55326 0.01074   0.125709
 C 0.1373 0.48371 0.10547   0.120356
 C 0.1488 0.55125 0.02207   0.161459
 C 0.0337 0.44569 0.99287   0.1378
 C 0.7538 0.72253 0.06023   0.689734
 C 0.7856 0.77988 0.02654   -0.140818
 C 0.7243 0.83586 0.0333   -0.073244
 C 0.7588 0.8937 0.00716   0.040772
 C 0.7003 0.95374 0.01672   -0.126124
 C 0.739 0.00976 0.99484   -0.063957
 C 0.8915 0.95107 0.94859   -0.093795
 C 0.9156 0.83257 0.96505   -0.146177
 C 0.8816 0.77861 0.99221   -0.060784
 C 0.8352 0.00865 0.95985   -0.115641
 C 0.8785 0.07163 0.93749   0.641164
 C 0.8561 0.8919 0.97232   0.046672
 C 0.6702 0.55196 0.2118   0.691141
 C 0.6476 0.49282 0.24484   -0.142572
 C 0.7238 0.44476 0.24542   -0.074624
 C 0.7017 0.38631 0.27207   0.045173
 C 0.5997 0.37638 0.29898   0.042648
 C 0.5225 0.42637 0.29743   -0.133947
 C 0.546 0.48247 0.27159   -0.057305
 C 0.7786 0.3365 0.27102   -0.125068
 C 0.7549 0.27926 0.29558   -0.061795
 C 0.5771 0.31557 0.32319   -0.089346
 C 0.6534 0.26853 0.32127   -0.112739
 C 0.6254 0.20178 0.34304   0.6322
 C 0.8206 0.72609 0.23745   0.688905
 C 0.8886 0.77765 0.29533   -0.126139
 C 0.8415 0.83039 0.33759   -0.082007
 C 0.9061 0.88052 0.38964   0.051223
 C 0.8586 0.93579 0.43447   -0.144781
 C 0.0857 0.92905 0.44799   -0.078575
 C 0.0207 0.8769 0.3971   0.051452
 C 0.0672 0.82102 0.35446   -0.1513
 C 0.0022 0.77279 0.30453   -0.050113
 C 0.0383 0.981 0.49056   -0.124904
 C 0.1065 0.03479 0.54395   0.684804
 C 0.9232 0.98307 0.48395   -0.052032
 C 0.6771 0.30581 0.02007   -0.138557
 C 0.7984 0.30605 0.02015   0.693583
 C 0.6314 0.35415 0.07209   -0.037515
 C 0.5208 0.35468 0.07306   -0.112517
 C 0.3348 0.30606 0.0223   -0.052398
 C 0.1465 0.26049 0.97309   0.69443
 C 0.4507 0.30635 0.02351   0.042494
 C 0.4957 0.25635 0.97171   0.046398
 C 0.6104 0.25796 0.97154   -0.06943
 C 0.4238 0.20682 0.92234   -0.126547
 C 0.2671 0.25827 0.97329   -0.150919
 C 0.3133 0.2078 0.92334   -0.034942
 C 0.9431 0.24807 0.71135   0.12419
 C 0.8676 0.26767 0.82055   0.136698
 C 0.804 0.14621 0.79673   0.12308
 C 0.7546 0.21441 0.71755   0.159826
 C 0.8765 0.12699 0.68743   0.12438
 C 0.9941 0.17897 0.79187   0.085463
 C 0.5575 0.12345 0.59211   0.118453
 C 0.4409 0.09569 0.48493   0.091701
 C 0.4559 0.01074 0.55326   0.125708
 C 0.6373 0.10547 0.48371   0.120354
 C 0.6488 0.02207 0.55125   0.161457
 C 0.5337 0.99287 0.44569   0.137796
 C 0.2538 0.06023 0.72253   0.689734
 C 0.2856 0.02654 0.77988   -0.140819
 C 0.2243 0.0333 0.83586   -0.073243
 C 0.2588 0.00716 0.8937   0.040771
 C 0.2003 0.01672 0.95374   -0.126123
 C 0.239 0.99484 0.00976   -0.063958
 C 0.3915 0.94859 0.95107   -0.093799
 C 0.4156 0.96505 0.83257   -0.146179
 C 0.3816 0.99221 0.77861   -0.060783
 C 0.3352 0.95985 0.00865   -0.11564
 C 0.3785 0.93749 0.07163   0.641164
 C 0.3561 0.97232 0.8919   0.046676
 C 0.1702 0.2118 0.55196   0.691141
 C 0.1476 0.24484 0.49282   -0.142572
 C 0.2238 0.24542 0.44476   -0.074624
 C 0.2017 0.27207 0.38631   0.045173
 C 0.0997 0.29898 0.37638   0.042648
 C 0.0225 0.29743 0.42637   -0.133947
 C 0.046 0.27159 0.48247   -0.057305
 C 0.2786 0.27102 0.3365   -0.125068
 C 0.2549 0.29558 0.27926   -0.061795
 C 0.0771 0.32319 0.31557   -0.089348
 C 0.1534 0.32127 0.26853   -0.112737
 C 0.1254 0.34304 0.20178   0.6322
 C 0.3206 0.23745 0.72609   0.688905
 C 0.3886 0.29533 0.77765   -0.126139
 C 0.3415 0.33759 0.83039   -0.082007
 C 0.4061 0.38964 0.88052   0.051224
 C 0.3586 0.43447 0.93579   -0.144784
 C 0.5857 0.44799 0.92905   -0.078574
 C 0.5207 0.3971 0.8769   0.051452
 C 0.5672 0.35446 0.82102   -0.1513
 C 0.5022 0.30453 0.77279   -0.050113
 C 0.5383 0.49056 0.981   -0.124904
 C 0.6065 0.54395 0.03479   0.684804
 C 0.4232 0.48395 0.98307   -0.05203
 C 0.1771 0.02007 0.30581   -0.138557
 C 0.2984 0.02015 0.30605   0.693583
 C 0.1314 0.07209 0.35415   -0.037515
 C 0.0208 0.07306 0.35468   -0.112517
 C 0.8348 0.0223 0.30606   -0.052398
 C 0.6465 0.97309 0.26049   0.69443
 C 0.9507 0.02351 0.30635   0.042494
 C 0.9957 0.97171 0.25635   0.046399
 C 0.1104 0.97154 0.25796   -0.06943
 C 0.9238 0.92234 0.20682   -0.126547
 C 0.7671 0.97329 0.25827   -0.150919
 C 0.8133 0.92334 0.2078   -0.034942
 N 0.4734 0.71688 0.17796   -0.280066
 N 0.3461 0.74755 0.26747   -0.407462
 N 0.2795 0.72331 0.14471   -0.388877
 N 0.3968 0.82972 0.19842   -0.323342
 N 0.9511 0.55694 0.0865   -0.283835
 N 0.0324 0.44543 0.06861   -0.329278
 N 0.1501 0.55455 0.09615   -0.385446
 N 0.0469 0.51648 0.98312   -0.405192
 N 0.9734 0.17796 0.71688   -0.280066
 N 0.8461 0.26747 0.74755   -0.407462
 N 0.7795 0.14471 0.72331   -0.388877
 N 0.8968 0.19842 0.82972   -0.323342
 N 0.4511 0.0865 0.55694   -0.283835
 N 0.5324 0.06861 0.44543   -0.329271
 N 0.6501 0.09615 0.55455   -0.385445
 N 0.5469 0.98312 0.51648   -0.405188
 O 0.8162 0.67478 0.05604   -0.599248
 O 0.6693 0.72696 0.09282   -0.596413
 O 0.8354 0.1274 0.96234   -0.601482
 O 0.9529 0.0686 0.89832   -0.585011
 O 0.7601 0.55436 0.18536   -0.604524
 O 0.5992 0.59422 0.21226   -0.59089
 O 0.6949 0.1596 0.3422   -0.589937
 O 0.5285 0.19016 0.358   -0.593065
 O 0.8736 0.68509 0.19761   -0.59175
 O 0.7188 0.72817 0.23399   -0.594246
 O 0.0565 0.07198 0.59142   -0.604322
 O 0.2075 0.04258 0.53938   -0.594632
 O 0.1097 0.31523 0.00627   -0.638591
 O 0.0885 0.2074 0.93918   -0.545425
 O 0.8549 0.33801 0.07493   -0.552501
 O 0.8382 0.27698 0.9648   -0.642745
 O 0.3162 0.05604 0.67478   -0.599247
 O 0.1693 0.09282 0.72696   -0.596413
 O 0.3354 0.96234 0.1274   -0.601482
 O 0.4529 0.89832 0.0686   -0.585011
 O 0.2601 0.18536 0.55436   -0.604524
 O 0.0992 0.21226 0.59422   -0.59089
 O 0.1949 0.3422 0.1596   -0.589938
 O 0.0285 0.358 0.19016   -0.593066
 O 0.3736 0.19761 0.68509   -0.59175
 O 0.2188 0.23399 0.72817   -0.594245
 O 0.5565 0.59142 0.07198   -0.604322
 O 0.7075 0.53938 0.04258   -0.594632
 O 0.6097 0.00627 0.31523   -0.638591
 O 0.5885 0.93918 0.2074   -0.545425
 O 0.3549 0.07493 0.33801   -0.552501
 O 0.3382 0.9648 0.27698   -0.642745
