{'_ref': 'TBD', '_srcid': 'CAKYAQ_clean', 'submitters': [{'name': 'Dalar Nazarian Jeff Camp and David Sholl', 'email': 'dalar@gatech.edu jcamp6@gatech.edu'}], '_method': 'VASP DFT with PBE;DDEC'}
data_Gd2H3(C5O4)3
_symmetry_space_group_name_H-M   'P 1'
_cell_length_a   10.85300000
_cell_length_b   13.29100007
_cell_length_c   14.33700000
_cell_angle_alpha   90.00000000
_cell_angle_beta   90.00000000
_cell_angle_gamma   90.03199959
_symmetry_Int_Tables_number   1
_chemical_formula_structural   Gd2H3(C5O4)3
_chemical_formula_sum   'Gd8 H12 C60 O48'
_cell_volume   2068.07212495
_cell_formula_units_Z   4
loop_
 _symmetry_equiv_pos_site_id
 _symmetry_equiv_pos_as_xyz
  1  'x, y, z'
loop_
 _atom_site_label
 _atom_site_fract_x
 _atom_site_fract_y
 _atom_site_fract_z
 _atom_site_charge
 Gd 0.75557 0.78529 0.7822   2.148136
 Gd 0.00454 0.13225 0.86169   2.15245
 Gd 0.74443 0.71471 0.2822   2.148136
 Gd 0.49546 0.36775 0.36169   2.152481
 Gd 0.24443 0.21471 0.2178   2.148223
 Gd 0.99546 0.86775 0.13831   2.152618
 Gd 0.25557 0.28529 0.7178   2.148223
 Gd 0.50454 0.63225 0.63831   2.152648
 H 0.5608 0.0869 0.8677   0.118443
 H 0.8763 0.8674 0.5448   0.114487
 H 0.0309 0.5643 0.8528   0.123737
 H 0.9392 0.4131 0.3677   0.118443
 H 0.6237 0.6326 0.0448   0.114488
 H 0.4691 0.9357 0.3528   0.123736
 H 0.4392 0.9131 0.1323   0.118443
 H 0.1237 0.1326 0.4552   0.114471
 H 0.9691 0.4357 0.1472   0.123697
 H 0.0608 0.5869 0.6323   0.118443
 H 0.3763 0.3674 0.9552   0.114472
 H 0.5309 0.0643 0.6472   0.123697
 C 0.7539 0.9935 0.9334   0.781466
 C 0.6229 0.9972 0.9716   -0.050256
 C 0.5874 0.9447 0.0523   -0.120961
 C 0.6812 0.8881 0.1114   0.779472
 C 0.5359 0.052 0.9207   -0.027021
 C 0.9104 0.9793 0.6888   0.776199
 C 0.9608 0.9928 0.5927   -0.107954
 C 0.0355 0.0729 0.5661   -0.064655
 C 0.0864 0.1526 0.6303   0.70149
 C 0.9262 0.9209 0.5266   -0.01757
 C 0.9599 0.7107 0.9532   0.825263
 C 0.978 0.6032 0.9828   -0.113277
 C 0.9574 0.563 0.0723   -0.10243
 C 0.9033 0.6225 0.1527   0.662131
 C 0.019 0.5384 0.9123   -0.013252
 C 0.7461 0.5065 0.4334   0.781466
 C 0.8771 0.5028 0.4716   -0.050256
 C 0.9126 0.5553 0.5523   -0.120961
 C 0.8188 0.6119 0.6114   0.779473
 C 0.9641 0.448 0.4207   -0.027021
 C 0.5896 0.5207 0.1888   0.776201
 C 0.5392 0.5072 0.0927   -0.107954
 C 0.4645 0.4271 0.0661   -0.06465
 C 0.4136 0.3474 0.1303   0.70149
 C 0.5738 0.5791 0.0266   -0.017579
 C 0.5401 0.7893 0.4532   0.825264
 C 0.522 0.8968 0.4828   -0.11328
 C 0.5426 0.937 0.5723   -0.102432
 C 0.5967 0.8775 0.6527   0.662133
 C 0.481 0.9616 0.4123   -0.01325
 C 0.2461 0.0065 0.0666   0.781462
 C 0.3771 0.0028 0.0284   -0.050166
 C 0.4126 0.0553 0.9477   -0.121236
 C 0.3188 0.1119 0.8886   0.779497
 C 0.4641 0.948 0.0793   -0.027309
 C 0.0896 0.0207 0.3112   0.776205
 C 0.0392 0.0072 0.4073   -0.107996
 C 0.9645 0.9271 0.4339   -0.064485
 C 0.9136 0.8474 0.3697   0.70147
 C 0.0738 0.0791 0.4734   -0.017402
 C 0.0401 0.2893 0.0468   0.825267
 C 0.022 0.3968 0.0172   -0.113312
 C 0.0426 0.437 0.9277   -0.102325
 C 0.0967 0.3775 0.8473   0.662116
 C 0.981 0.4616 0.0877   -0.013128
 C 0.2539 0.4935 0.5666   0.781463
 C 0.1229 0.4972 0.5284   -0.050166
 C 0.0874 0.4447 0.4477   -0.121236
 C 0.1812 0.3881 0.3886   0.779497
 C 0.0359 0.552 0.5793   -0.027309
 C 0.4104 0.4793 0.8112   0.776207
 C 0.4608 0.4928 0.9073   -0.107995
 C 0.5355 0.5729 0.9339   -0.064482
 C 0.5864 0.6526 0.8697   0.70147
 C 0.4262 0.4209 0.9734   -0.017411
 C 0.4599 0.2107 0.5468   0.825267
 C 0.478 0.1032 0.5172   -0.113315
 C 0.4574 0.063 0.4277   -0.10233
 C 0.4033 0.1225 0.3473   0.662119
 C 0.519 0.0384 0.5877   -0.013127
 O 0.8191 0.0721 0.9414   -0.734812
 O 0.7866 0.9154 0.892   -0.713881
 O 0.7926 0.9067 0.094   -0.720444
 O 0.6428 0.8305 0.1753   -0.67271
 O 0.8914 0.055 0.7393   -0.726749
 O 0.8909 0.8888 0.7107   -0.697945
 O 0.1068 0.2385 0.5973   -0.613816
 O 0.1177 0.133 0.7143   -0.843666
 O 0.9001 0.7209 0.8792   -0.705839
 O 0.0102 0.7812 0.9962   -0.713548
 O 0.8875 0.5808 0.2297   -0.602633
 O 0.8674 0.7123 0.1389   -0.819953
 O 0.6809 0.4279 0.4414   -0.734813
 O 0.7134 0.5846 0.392   -0.713881
 O 0.7074 0.5933 0.594   -0.720446
 O 0.8572 0.6695 0.6753   -0.67271
 O 0.6086 0.445 0.2393   -0.726757
 O 0.6091 0.6112 0.2107   -0.697945
 O 0.3932 0.2615 0.0973   -0.613816
 O 0.3823 0.367 0.2143   -0.843667
 O 0.5999 0.7791 0.3792   -0.705839
 O 0.4898 0.7188 0.4962   -0.713549
 O 0.6125 0.9192 0.7297   -0.60264
 O 0.6326 0.7877 0.6389   -0.819954
 O 0.1809 0.9279 0.0586   -0.73482
 O 0.2134 0.0846 0.108   -0.713886
 O 0.2074 0.0933 0.906   -0.720437
 O 0.3572 0.1695 0.8247   -0.672718
 O 0.1086 0.945 0.2607   -0.726757
 O 0.1091 0.1112 0.2893   -0.697951
 O 0.8932 0.7615 0.4027   -0.613813
 O 0.8823 0.867 0.2857   -0.843667
 O 0.0999 0.2791 0.1208   -0.705844
 O 0.9898 0.2188 0.0038   -0.713545
 O 0.1125 0.4192 0.7703   -0.602629
 O 0.1326 0.2877 0.8611   -0.819951
 O 0.3191 0.5721 0.5586   -0.734821
 O 0.2866 0.4154 0.608   -0.713886
 O 0.2926 0.4067 0.406   -0.720439
 O 0.1428 0.3305 0.3247   -0.672718
 O 0.3914 0.555 0.7607   -0.726765
 O 0.3909 0.3888 0.7893   -0.697951
 O 0.6068 0.7385 0.9027   -0.613813
 O 0.6177 0.633 0.7857   -0.843668
 O 0.4001 0.2209 0.6208   -0.705844
 O 0.5102 0.2812 0.5038   -0.713546
 O 0.3875 0.0808 0.2703   -0.602636
 O 0.3674 0.2123 0.3611   -0.819952
