{'_ref': 'TBD', '_srcid': 'CAKYAQ_clean', 'submitters': [{'name': 'Dalar Nazarian Jeff Camp and David Sholl', 'email': 'dalar@gatech.edu jcamp6@gatech.edu'}], '_method': 'VASP DFT with PBE;DDEC'}
data_Dy2H3(C5O4)3
_symmetry_space_group_name_H-M   'P 1'
_cell_length_a   10.80740000
_cell_length_b   13.20229996
_cell_length_c   14.25710000
_cell_angle_alpha   90.00000000
_cell_angle_beta   90.00000000
_cell_angle_gamma   90.40200205
_symmetry_Int_Tables_number   1
_chemical_formula_structural   Dy2H3(C5O4)3
_chemical_formula_sum   'Dy8 H12 C60 O48'
_cell_volume   2034.18912184
_cell_formula_units_Z   4
loop_
 _symmetry_equiv_pos_site_id
 _symmetry_equiv_pos_as_xyz
  1  'x, y, z'
loop_
 _atom_site_label
 _atom_site_fract_x
 _atom_site_fract_y
 _atom_site_fract_z
 _atom_site_charge
 Dy 0.75541 0.78586 0.78202   2.318595
 Dy 0.99373 0.86767 0.13822   2.360811
 Dy 0.74459 0.71414 0.28202   2.31859
 Dy 0.50627 0.63233 0.63822   2.360803
 Dy 0.24459 0.21414 0.21798   2.318592
 Dy 0.00627 0.13233 0.86178   2.3608
 Dy 0.25541 0.28586 0.71798   2.318587
 Dy 0.49373 0.36767 0.36178   2.360792
 H 0.5615 0.0865 0.8667   0.114632
 H 0.5307 0.0661 0.6476   0.126178
 H 0.6239 0.6339 0.0458   0.117009
 H 0.9385 0.4135 0.3667   0.114632
 H 0.9693 0.4339 0.1476   0.126178
 H 0.8761 0.8661 0.5458   0.117008
 H 0.4385 0.9135 0.1333   0.114632
 H 0.4693 0.9339 0.3524   0.126178
 H 0.3761 0.3661 0.9542   0.117008
 H 0.0615 0.5865 0.6333   0.114632
 H 0.0307 0.5661 0.8524   0.126178
 H 0.1239 0.1339 0.4542   0.117008
 C 0.5433 0.7891 0.4536   0.849682
 C 0.7534 0.9938 0.9325   0.819879
 C 0.6233 0.9975 0.9713   -0.061081
 C 0.588 0.9439 0.052   -0.125427
 C 0.5969 0.8791 0.6529   0.674066
 C 0.5231 0.8974 0.4832   -0.114604
 C 0.6807 0.8876 0.1114   0.802761
 C 0.5433 0.9369 0.573   -0.099396
 C 0.5365 0.052 0.9204   -0.030709
 C 0.5867 0.6543 0.8699   0.71601
 C 0.5187 0.0393 0.5879   -0.009709
 C 0.4109 0.4792 0.8098   0.8049
 C 0.5741 0.5799 0.027   -0.017395
 C 0.4605 0.4929 0.9074   -0.111614
 C 0.5359 0.5737 0.9336   -0.06325
 C 0.9567 0.7109 0.9536   0.849682
 C 0.7466 0.5062 0.4325   0.819879
 C 0.8767 0.5025 0.4713   -0.061081
 C 0.912 0.5561 0.552   -0.125427
 C 0.9031 0.6209 0.1529   0.674066
 C 0.9769 0.6026 0.9832   -0.114603
 C 0.8193 0.6124 0.6114   0.802761
 C 0.9567 0.5631 0.073   -0.099395
 C 0.9635 0.448 0.4204   -0.030709
 C 0.9133 0.8457 0.3699   0.71601
 C 0.9813 0.4607 0.0879   -0.009709
 C 0.0891 0.0208 0.3098   0.8049
 C 0.9259 0.9201 0.527   -0.017393
 C 0.0395 0.0071 0.4074   -0.111614
 C 0.9641 0.9263 0.4336   -0.063251
 C 0.4567 0.2109 0.5464   0.849681
 C 0.2466 0.0062 0.0675   0.819879
 C 0.3767 0.0025 0.0287   -0.061079
 C 0.412 0.0561 0.948   -0.125432
 C 0.4031 0.1209 0.3471   0.674066
 C 0.4769 0.1026 0.5168   -0.114599
 C 0.3193 0.1124 0.8886   0.802762
 C 0.4567 0.0631 0.427   -0.099398
 C 0.4635 0.948 0.0796   -0.030715
 C 0.4133 0.3457 0.1301   0.716009
 C 0.4813 0.9607 0.4121   -0.009704
 C 0.5891 0.5208 0.1902   0.804901
 C 0.4259 0.4201 0.973   -0.017393
 C 0.5395 0.5071 0.0926   -0.111611
 C 0.4641 0.4263 0.0664   -0.063252
 C 0.0433 0.2891 0.0464   0.849681
 C 0.2534 0.4938 0.5675   0.819879
 C 0.1233 0.4975 0.5287   -0.061079
 C 0.088 0.4439 0.448   -0.125432
 C 0.0969 0.3791 0.8471   0.674066
 C 0.0231 0.3974 0.0168   -0.114598
 C 0.1807 0.3876 0.3886   0.802762
 C 0.0433 0.4369 0.927   -0.099397
 C 0.0365 0.552 0.5796   -0.030715
 C 0.0867 0.1543 0.6301   0.716009
 C 0.0187 0.5393 0.9121   -0.009704
 C 0.9109 0.9792 0.6902   0.804901
 C 0.0741 0.0799 0.473   -0.01739
 C 0.9605 0.9929 0.5926   -0.111612
 C 0.0359 0.0737 0.5664   -0.063252
 O 0.7871 0.915 0.8913   -0.776514
 O 0.7933 0.9057 0.0936   -0.759604
 O 0.634 0.7877 0.6401   -0.886128
 O 0.4938 0.7172 0.4967   -0.749398
 O 0.6426 0.8291 0.1759   -0.705532
 O 0.8207 0.0729 0.9412   -0.806289
 O 0.6137 0.9204 0.7304   -0.611477
 O 0.6074 0.7401 0.9018   -0.625725
 O 0.3933 0.5549 0.7595   -0.765635
 O 0.6029 0.7789 0.3792   -0.740869
 O 0.3915 0.3883 0.788   -0.735238
 O 0.6199 0.6335 0.7849   -0.908921
 O 0.7129 0.585 0.3913   -0.776514
 O 0.7067 0.5943 0.5936   -0.759603
 O 0.866 0.7123 0.1401   -0.886128
 O 0.0062 0.7828 0.9967   -0.749398
 O 0.8574 0.6709 0.6759   -0.705532
 O 0.6793 0.4271 0.4412   -0.806289
 O 0.8863 0.5796 0.2304   -0.611477
 O 0.8926 0.7599 0.4018   -0.625725
 O 0.1067 0.9451 0.2595   -0.765635
 O 0.8971 0.7211 0.8792   -0.740869
 O 0.1085 0.1117 0.288   -0.735239
 O 0.8801 0.8665 0.2849   -0.908921
 O 0.2129 0.085 0.1087   -0.776514
 O 0.2067 0.0943 0.9064   -0.759603
 O 0.366 0.2123 0.3599   -0.886127
 O 0.5062 0.2828 0.5033   -0.749398
 O 0.3574 0.1709 0.8241   -0.705532
 O 0.1793 0.9271 0.0588   -0.80629
 O 0.3863 0.0796 0.2696   -0.611477
 O 0.3926 0.2599 0.0982   -0.625724
 O 0.6067 0.4451 0.2405   -0.765634
 O 0.3971 0.2211 0.6208   -0.740868
 O 0.6085 0.6117 0.212   -0.735238
 O 0.3801 0.3665 0.2151   -0.908921
 O 0.2871 0.415 0.6087   -0.776513
 O 0.2933 0.4057 0.4064   -0.759603
 O 0.134 0.2877 0.8599   -0.886127
 O 0.9938 0.2172 0.0033   -0.749398
 O 0.1426 0.3291 0.3241   -0.705532
 O 0.3207 0.5729 0.5588   -0.80629
 O 0.1137 0.4204 0.7696   -0.611476
 O 0.1074 0.2401 0.5982   -0.625724
 O 0.8933 0.0549 0.7405   -0.765634
 O 0.1029 0.2789 0.1208   -0.740868
 O 0.8915 0.8883 0.712   -0.735239
 O 0.1199 0.1335 0.7151   -0.908921
