{'_ref': 'TBD', '_srcid': 'CAKYAQ_clean', 'submitters': [{'name': 'Dalar Nazarian Jeff Camp and David Sholl', 'email': 'dalar@gatech.edu jcamp6@gatech.edu'}], '_method': 'VASP DFT with PBE;DDEC'}
data_CuH5C15NO6
_symmetry_space_group_name_H-M   'P 1'
_cell_length_a   10.30360000
_cell_length_b   15.22479942
_cell_length_c   20.40690000
_cell_angle_alpha   111.90259922
_cell_angle_beta   104.62279770
_cell_angle_gamma   90.00000187
_symmetry_Int_Tables_number   1
_chemical_formula_structural   CuH5C15NO6
_chemical_formula_sum   'Cu4 H20 C60 N4 O24'
_cell_volume   2858.10533849
_cell_formula_units_Z   4
loop_
 _symmetry_equiv_pos_site_id
 _symmetry_equiv_pos_as_xyz
  1  'x, y, z'
loop_
 _atom_site_label
 _atom_site_fract_x
 _atom_site_fract_y
 _atom_site_fract_z
 _atom_site_charge
 Cu 0.61855 0.52527 0.05054   0.901531
 Cu 0.06801 0.97473 0.94946   0.902317
 Cu 0.93199 0.02527 0.05054   0.902317
 Cu 0.38145 0.47473 0.94946   0.901531
 H 0.4843 0.7567 0.2176   0.133772
 H 0.2411 0.8226 0.4354   0.119659
 H 0.7667 0.7433 0.7824   0.13464
 H 0.3057 0.6774 0.5646   0.119359
 H 0.2333 0.9609 0.2176   0.134867
 H 0.6943 0.1128 0.4354   0.119357
 H 0.5157 0.5391 0.7824   0.134323
 H 0.7589 0.3872 0.5646   0.120247
 H 0.5157 0.2433 0.7824   0.133773
 H 0.7589 0.1774 0.5646   0.11966
 H 0.2333 0.2567 0.2176   0.13464
 H 0.6943 0.3226 0.4354   0.119359
 H 0.7667 0.0391 0.7824   0.134868
 H 0.3057 0.8872 0.5646   0.119358
 H 0.4843 0.4609 0.2176   0.134323
 H 0.2411 0.6128 0.4354   0.120248
 H 0.2625 0.7625 0.025   0.124887
 H 0.7375 0.7375 0.975   0.124861
 H 0.7375 0.2375 0.975   0.124887
 H 0.2625 0.2625 0.025   0.124861
 C 0.4284 0.65415 0.0738   0.672551
 C 0.37712 0.74471 0.11464   -0.072387
 C 0.41908 0.78433 0.19136   -0.109229
 C 0.33192 0.86662 0.34204   0.50782
 C 0.37471 0.90731 0.42382   -0.124041
 C 0.3118 0.8731 0.4614   -0.042337
 C 0.8546 0.84585 0.9262   0.673928
 C 0.76248 0.75529 0.88536   -0.071991
 C 0.72772 0.71567 0.80864   -0.111277
 C 0.48988 0.63338 0.65796   0.506683
 C 0.45089 0.59269 0.57618   -0.124922
 C 0.3504 0.6269 0.5386   -0.039977
 C 0.1454 0.91965 0.0738   0.674965
 C 0.23752 0.86993 0.11464   -0.071154
 C 0.27228 0.90703 0.19136   -0.111773
 C 0.51012 0.97542 0.34204   0.507093
 C 0.54911 0.01651 0.42382   -0.125767
 C 0.6496 0.0883 0.4614   -0.039927
 C 0.5716 0.58035 0.9262   0.673547
 C 0.62288 0.63007 0.88536   -0.072256
 C 0.58092 0.59297 0.80864   -0.109533
 C 0.66808 0.52458 0.65796   0.508984
 C 0.62529 0.48349 0.57618   -0.123867
 C 0.6882 0.4117 0.5386   -0.04354
 C 0.5716 0.34585 0.9262   0.672551
 C 0.62288 0.25529 0.88536   -0.072386
 C 0.58092 0.21567 0.80864   -0.109229
 C 0.66808 0.13338 0.65796   0.50782
 C 0.62529 0.09269 0.57618   -0.124041
 C 0.6882 0.1269 0.5386   -0.042336
 C 0.1454 0.15415 0.0738   0.673928
 C 0.23752 0.24471 0.11464   -0.071991
 C 0.27228 0.28433 0.19136   -0.111277
 C 0.51012 0.36662 0.34204   0.506683
 C 0.54911 0.40731 0.42382   -0.124922
 C 0.6496 0.3731 0.4614   -0.039977
 C 0.8546 0.08035 0.9262   0.674965
 C 0.76248 0.13007 0.88536   -0.071154
 C 0.72772 0.09297 0.80864   -0.111773
 C 0.48988 0.02458 0.65796   0.507093
 C 0.45089 0.98349 0.57618   -0.125767
 C 0.3504 0.9117 0.5386   -0.039927
 C 0.4284 0.41965 0.0738   0.673547
 C 0.37712 0.36993 0.11464   -0.072256
 C 0.41908 0.40703 0.19136   -0.109533
 C 0.33192 0.47542 0.34204   0.508984
 C 0.37471 0.51651 0.42382   -0.123867
 C 0.3118 0.5883 0.4614   -0.04354
 C 0.28857 0.78857 0.07714   -0.034804
 C 0.364 0.864 0.228   0.168224
 C 0.48059 0.98059 0.46118   0.055766
 C 0.71143 0.71143 0.92286   -0.034655
 C 0.636 0.636 0.772   0.168724
 C 0.51941 0.51941 0.53882   0.055653
 C 0.71143 0.21143 0.92286   -0.034804
 C 0.636 0.136 0.772   0.168224
 C 0.51941 0.01941 0.53882   0.05577
 C 0.28857 0.28857 0.07714   -0.034655
 C 0.364 0.364 0.228   0.168724
 C 0.48059 0.48059 0.46118   0.055656
 N 0.4039 0.9039 0.3078   -0.254697
 N 0.5961 0.5961 0.6922   -0.256179
 N 0.5961 0.0961 0.6922   -0.254697
 N 0.4039 0.4039 0.3078   -0.256179
 O 0.54465 0.64012 0.1025   -0.548996
 O 0.34779 0.59967 0.0148   -0.56726
 O 0.24221 0.80381 0.30642   -0.450374
 O 0.94215 0.85988 0.8975   -0.549389
 O 0.83299 0.90033 0.9852   -0.56859
 O 0.43579 0.69619 0.69358   -0.448664
 O 0.05785 0.96238 0.1025   -0.549848
 O 0.16701 0.91513 0.0148   -0.569306
 O 0.56421 0.00261 0.30642   -0.448996
 O 0.45535 0.53762 0.8975   -0.549407
 O 0.65221 0.58487 0.9852   -0.568134
 O 0.75779 0.49739 0.69358   -0.450488
 O 0.45535 0.35988 0.8975   -0.548996
 O 0.65221 0.40033 0.9852   -0.56726
 O 0.75779 0.19619 0.69358   -0.450374
 O 0.05785 0.14012 0.1025   -0.549389
 O 0.16701 0.09967 0.0148   -0.56859
 O 0.56421 0.30381 0.30642   -0.448664
 O 0.94215 0.03762 0.8975   -0.549848
 O 0.83299 0.08487 0.9852   -0.569306
 O 0.43579 0.99739 0.69358   -0.448996
 O 0.54465 0.46238 0.1025   -0.549408
 O 0.34779 0.41513 0.0148   -0.568134
 O 0.24221 0.50261 0.30642   -0.450488
