{'_ref': 'TBD', '_srcid': 'CAKYAQ_clean', 'submitters': [{'name': 'Dalar Nazarian Jeff Camp and David Sholl', 'email': 'dalar@gatech.edu jcamp6@gatech.edu'}], '_method': 'VASP DFT with PBE;DDEC'}
data_Zn2H13C29O10
_symmetry_space_group_name_H-M   'P 1'
_cell_length_a   11.85859960
_cell_length_b   16.48849999
_cell_length_c   17.45160000
_cell_angle_alpha   89.64650033
_cell_angle_beta   89.01689905
_cell_angle_gamma   68.92419918
_symmetry_Int_Tables_number   1
_chemical_formula_structural   Zn2H13C29O10
_chemical_formula_sum   'Zn4 H26 C58 O20'
_cell_volume   3183.58624195
_cell_formula_units_Z   2
loop_
 _symmetry_equiv_pos_site_id
 _symmetry_equiv_pos_as_xyz
  1  'x, y, z'
loop_
 _atom_site_label
 _atom_site_fract_x
 _atom_site_fract_y
 _atom_site_fract_z
 _atom_site_charge
 Zn 0.85271 0.13004 0.67142   1.047876
 Zn 0.01725 0.13004 0.82858   1.047805
 Zn 0.14729 0.86996 0.32858   1.047876
 Zn 0.98275 0.86996 0.17142   1.047805
 H 0.7365 0.9322 0.7557   0.112486
 H 0.8894 0.9694 0.9504   0.113527
 H 0.79 0.675 0.8232   0.114754
 H 0.7626 0.7748 0.936   0.106817
 H 0.6413 0.5456 0.6528   0.111245
 H 0.7277 0.3986 0.6475   0.112131
 H 0.3313 0.9322 0.7443   0.112142
 H 0.1412 0.9694 0.5496   0.113963
 H 0.535 0.675 0.6768   0.114155
 H 0.4626 0.7748 0.564   0.106404
 H 0.8131 0.5456 0.8472   0.111555
 H 0.8737 0.3986 0.8525   0.111876
 H 0.2635 0.0678 0.2443   0.112486
 H 0.1106 0.0306 0.0496   0.113527
 H 0.21 0.325 0.1768   0.114754
 H 0.2374 0.2252 0.064   0.106817
 H 0.3587 0.4544 0.3472   0.111245
 H 0.2723 0.6014 0.3525   0.112131
 H 0.6687 0.0678 0.2557   0.112142
 H 0.8588 0.0306 0.4504   0.113964
 H 0.465 0.325 0.3232   0.114155
 H 0.5374 0.2252 0.436   0.106405
 H 0.1869 0.4544 0.1528   0.111555
 H 0.1263 0.6014 0.1475   0.111877
 H 0.5497 0.9006 0.75   0.117252
 H 0.4503 0.0994 0.25   0.117252
 C 0.67731 0.79758 0.7951   0.068697
 C 0.81525 0.9623 0.847   -0.154211
 C 0.75953 0.91634 0.8059   -0.047019
 C 0.85125 0.9385 0.9233   0.022249
 C 0.73757 0.84626 0.8392   0.010292
 C 0.7232 0.7056 0.794   -0.13301
 C 0.77445 0.8227 0.914   -0.055213
 C 0.84699 0.03422 0.8083   0.722445
 C 0.86652 0.84536 0.0383   0.665791
 C 0.83006 0.87008 0.9574   -0.146704
 C 0.69274 0.51612 0.6916   -0.132474
 C 0.74096 0.42788 0.6898   -0.01857
 C 0.52511 0.79758 0.7049   0.068227
 C 0.22245 0.9623 0.653   -0.154561
 C 0.32413 0.91634 0.6941   -0.046497
 C 0.21025 0.9385 0.5767   0.02125
 C 0.41617 0.84626 0.6608   0.00951
 C 0.5712 0.7056 0.706   -0.132366
 C 0.40285 0.8227 0.586   -0.054128
 C 0.11879 0.03422 0.6917   0.723927
 C 0.28812 0.84536 0.4617   0.666156
 C 0.29986 0.87008 0.5426   -0.146624
 C 0.79114 0.51612 0.8084   -0.13388
 C 0.83116 0.42788 0.8102   -0.018139
 C 0.32269 0.20242 0.2049   0.068697
 C 0.18475 0.0377 0.153   -0.154211
 C 0.24047 0.08366 0.1941   -0.047019
 C 0.14875 0.0615 0.0767   0.022249
 C 0.26243 0.15374 0.1608   0.010292
 C 0.2768 0.2944 0.206   -0.13301
 C 0.22555 0.1773 0.086   -0.055213
 C 0.15301 0.96578 0.1917   0.722445
 C 0.13348 0.15464 0.9617   0.665791
 C 0.16994 0.12992 0.0426   -0.146704
 C 0.30726 0.48388 0.3084   -0.132474
 C 0.25904 0.57212 0.3102   -0.01857
 C 0.47489 0.20242 0.2951   0.068227
 C 0.77755 0.0377 0.347   -0.154561
 C 0.67587 0.08366 0.3059   -0.046497
 C 0.78975 0.0615 0.4233   0.02125
 C 0.58383 0.15374 0.3392   0.00951
 C 0.4288 0.2944 0.294   -0.132366
 C 0.59715 0.1773 0.414   -0.054128
 C 0.88121 0.96578 0.3083   0.723927
 C 0.71188 0.15464 0.5383   0.666156
 C 0.70014 0.12992 0.4574   -0.146624
 C 0.20886 0.48388 0.1916   -0.13388
 C 0.16884 0.57212 0.1898   -0.018139
 C 0.5799 0.8402 0.75   -0.138921
 C 0.7184 0.5632 0.75   0.056714
 C 0.6695 0.661 0.75   0.049229
 C 0.8581 0.2838 0.75   0.730516
 C 0.8099 0.3802 0.75   -0.14061
 C 0.4201 0.1598 0.25   -0.138921
 C 0.2816 0.4368 0.25   0.056714
 C 0.3305 0.339 0.25   0.049229
 C 0.1419 0.7162 0.25   0.730516
 C 0.1901 0.6198 0.25   -0.14061
 O 0.91843 0.88974 0.07048   -0.561551
 O 0.92617 0.24746 0.80359   -0.611013
 O 0.90137 0.07126 0.84565   -0.60959
 O 0.81689 0.04942 0.74028   -0.609689
 O 0.84936 0.78388 0.0685   -0.465557
 O 0.19183 0.88974 0.42952   -0.561612
 O 0.82637 0.24746 0.69641   -0.611019
 O 0.02737 0.07126 0.65435   -0.61045
 O 0.13369 0.04942 0.75972   -0.609829
 O 0.36676 0.78388 0.4315   -0.465753
 O 0.08157 0.11026 0.92952   -0.561551
 O 0.07383 0.75254 0.19641   -0.611013
 O 0.09863 0.92874 0.15435   -0.60959
 O 0.18311 0.95058 0.25972   -0.609689
 O 0.15064 0.21612 0.9315   -0.465557
 O 0.80817 0.11026 0.57048   -0.561612
 O 0.17363 0.75254 0.30359   -0.611019
 O 0.97263 0.92874 0.34565   -0.61045
 O 0.86631 0.95058 0.24028   -0.609829
 O 0.63324 0.21612 0.5685   -0.465753
