{'_ref': 'TBD', '_srcid': 'CAKYAQ_clean', 'submitters': [{'name': 'Dalar Nazarian Jeff Camp and David Sholl', 'email': 'dalar@gatech.edu jcamp6@gatech.edu'}], '_method': 'VASP DFT with PBE;DDEC'}
data_Mn2Nb(CN)8
_symmetry_space_group_name_H-M   'P 1'
_cell_length_a   9.63550017
_cell_length_b   13.99670000
_cell_length_c   14.17400000
_cell_angle_alpha   90.00000000
_cell_angle_beta   96.17400104
_cell_angle_gamma   90.00000000
_symmetry_Int_Tables_number   1
_chemical_formula_structural   Mn2Nb(CN)8
_chemical_formula_sum   'Mn8 Nb4 C32 N32'
_cell_volume   1900.49200653
_cell_formula_units_Z   4
loop_
 _symmetry_equiv_pos_site_id
 _symmetry_equiv_pos_as_xyz
  1  'x, y, z'
loop_
 _atom_site_label
 _atom_site_fract_x
 _atom_site_fract_y
 _atom_site_fract_z
 _atom_site_charge
 Mn 0.6468 0.7854 0.0067   1.109631
 Mn 0.163 0.8836 0.3394   1.056536
 Mn 0.3532 0.2854 0.4933   1.109629
 Mn 0.837 0.3836 0.1606   1.056534
 Mn 0.3532 0.2146 0.9933   1.109628
 Mn 0.837 0.1164 0.6606   1.056533
 Mn 0.6468 0.7146 0.5067   1.109627
 Mn 0.163 0.6164 0.8394   1.056531
 Nb 0.3387 0.9505 0.7061   0.276354
 Nb 0.6613 0.4505 0.7939   0.276354
 Nb 0.6613 0.0495 0.2939   0.276354
 Nb 0.3387 0.5495 0.2061   0.276354
 C 0.4741 0.8754 0.8219   0.146249
 C 0.2552 0.905 0.5594   0.123772
 C 0.117 0.9991 0.7126   0.115881
 C 0.4855 0.6492 0.141   0.130354
 C 0.5571 0.0082 0.7096   0.125847
 C 0.6676 0.9472 0.1724   0.125803
 C 0.6811 0.5865 0.8773   0.109153
 C 0.2347 0.8206 0.7594   0.114462
 C 0.5259 0.3754 0.6781   0.146249
 C 0.7448 0.405 0.9406   0.123772
 C 0.883 0.4991 0.7874   0.115881
 C 0.5145 0.1492 0.359   0.130354
 C 0.4429 0.5082 0.7904   0.125849
 C 0.3324 0.4472 0.3276   0.125803
 C 0.3189 0.0865 0.6227   0.109155
 C 0.7653 0.3206 0.7406   0.114462
 C 0.5259 0.1246 0.1781   0.146248
 C 0.7448 0.095 0.4406   0.123773
 C 0.883 0.000900000000001 0.2874   0.115882
 C 0.5145 0.3508 0.859   0.130357
 C 0.4429 0.9918 0.2904   0.125849
 C 0.3324 0.0528 0.8276   0.125804
 C 0.3189 0.4135 0.1227   0.109153
 C 0.7653 0.1794 0.2406   0.114463
 C 0.4741 0.6246 0.3219   0.146248
 C 0.2552 0.595 0.0594   0.123773
 C 0.117 0.5009 0.2126   0.115882
 C 0.4855 0.8508 0.641   0.130357
 C 0.5571 0.4918 0.2096   0.125851
 C 0.6676 0.5528 0.6724   0.125804
 C 0.6811 0.9135 0.3773   0.109155
 C 0.2347 0.6794 0.2594   0.114463
 N 0.214 0.8853 0.4832   -0.429069
 N 0.5419 0.839 0.8824   -0.434258
 N 0.005 0.0262 0.7147   -0.430008
 N 0.5619 0.6971 0.1063   -0.422541
 N 0.6657 0.0402 0.7047   -0.411861
 N 0.6702 0.8965 0.1096   -0.444257
 N 0.6906 0.6547 0.9219   -0.433005
 N 0.1888 0.753 0.7891   -0.429045
 N 0.786 0.3853 0.0168   -0.429068
 N 0.4581 0.339 0.6176   -0.434258
 N 0.995 0.5262 0.7853   -0.430008
 N 0.4381 0.1971 0.3937   -0.422541
 N 0.3343 0.5402 0.7953   -0.411861
 N 0.3298 0.3965 0.3904   -0.444257
 N 0.3094 0.1547 0.5781   -0.433005
 N 0.8112 0.253 0.7109   -0.429045
 N 0.786 0.1147 0.5168   -0.429068
 N 0.4581 0.161 0.1176   -0.434258
 N 0.995 0.9738 0.2853   -0.430008
 N 0.4381 0.3029 0.8937   -0.422541
 N 0.3343 0.9598 0.2953   -0.411861
 N 0.3298 0.1035 0.8904   -0.444257
 N 0.3094 0.3453 0.0781   -0.433004
 N 0.8112 0.247 0.2109   -0.429045
 N 0.214 0.6147 0.9832   -0.429068
 N 0.5419 0.661 0.3824   -0.434258
 N 0.005 0.4738 0.2147   -0.430008
 N 0.5619 0.8029 0.6063   -0.422541
 N 0.6657 0.4598 0.2047   -0.411861
 N 0.6702 0.6035 0.6096   -0.444257
 N 0.6906 0.8453 0.4219   -0.433004
 N 0.1888 0.747 0.2891   -0.429046
