{'_ref': 'TBD', '_srcid': 'CAKYAQ_clean', 'submitters': [{'name': 'Dalar Nazarian Jeff Camp and David Sholl', 'email': 'dalar@gatech.edu jcamp6@gatech.edu'}], '_method': 'VASP DFT with PBE;DDEC'}
data_Nd2H5(C3O4)3
_symmetry_space_group_name_H-M   'P 1'
_cell_length_a   10.60260041
_cell_length_b   10.60260018
_cell_length_c   10.97346276
_cell_angle_alpha   101.34033055
_cell_angle_beta   117.44137431
_cell_angle_gamma   108.63400248
_symmetry_Int_Tables_number   1
_chemical_formula_structural   Nd2H5(C3O4)3
_chemical_formula_sum   'Nd4 H10 C18 O24'
_cell_volume   946.695348506
_cell_formula_units_Z   2
loop_
 _symmetry_equiv_pos_site_id
 _symmetry_equiv_pos_as_xyz
  1  'x, y, z'
loop_
 _atom_site_label
 _atom_site_fract_x
 _atom_site_fract_y
 _atom_site_fract_z
 _atom_site_charge
 Nd 0.25579 0.06921 0.61984   2.349936
 Nd 0.94937 0.63595 0.88016   2.349719
 Nd 0.74421 0.93079 0.38016   2.349938
 Nd 0.05063 0.36405 0.11984   2.34972
 H 0.3063 0.7246 0.6897   0.19492
 H 0.37 0.7522 0.8578   0.178799
 H 0.5349 0.6166 0.8103   0.195295
 H 0.3944 0.5122 0.6422   0.179688
 H 0.6937 0.2754 0.3103   0.19492
 H 0.63 0.2478 0.1422   0.178799
 H 0.4651 0.3834 0.1897   0.195295
 H 0.6056 0.4878 0.3578   0.179688
 H 0.2012 0.4512 0.75   0.192767
 H 0.7988 0.5488 0.25   0.192767
 C 0.188 0.8049 0.7573   0.960996
 C 0.3345 0.7901 0.7828   -0.61954
 C 0.4825 0.9278 0.8327   0.858842
 C 0.000700000000002 0.2251 0.6256   0.779961
 C 0.5476 0.4307 0.7427   0.960857
 C 0.5073 0.5517 0.7172   -0.622694
 C 0.5951 0.6498 0.6673   0.861399
 C 0.0995 0.3751 0.8744   0.780817
 C 0.812 0.1951 0.2427   0.960996
 C 0.6655 0.2099 0.2172   -0.61954
 C 0.5175 0.0722 0.1673   0.858841
 C 0.9993 0.7749 0.3744   0.779961
 C 0.4524 0.5693 0.2573   0.960857
 C 0.4927 0.4483 0.2828   -0.622694
 C 0.4049 0.3502 0.3327   0.861397
 C 0.9005 0.6249 0.1256   0.780817
 C 0.1244 0.3744 0.75   -0.329483
 C 0.8756 0.6256 0.25   -0.329483
 O 0.1529 0.8947 0.7102   -0.757739
 O 0.105 0.7178 0.7858   -0.877868
 O 0.6159 0.9433 0.9272   -0.62412
 O 0.4662 0.019 0.7742   -0.867037
 O 0.0418 0.1313 0.5919   -0.863212
 O 0.8527 0.1932 0.5589   -0.645728
 O 0.6845 0.4427 0.7898   -0.758403
 O 0.432 0.3192 0.7142   -0.876723
 O 0.5161 0.6887 0.5728   -0.624071
 O 0.7448 0.692 0.7258   -0.867984
 O 0.0394 0.4499 0.9081   -0.862993
 O 0.1343 0.2938 0.9411   -0.646402
 O 0.8471 0.1053 0.2898   -0.757739
 O 0.895 0.2822 0.2142   -0.877868
 O 0.3841 0.0567 0.0728   -0.62412
 O 0.5338 0.981 0.2258   -0.867037
 O 0.9582 0.8687 0.4081   -0.863212
 O 0.1473 0.8068 0.4411   -0.645728
 O 0.3155 0.5573 0.2102   -0.758402
 O 0.568 0.6808 0.2858   -0.876723
 O 0.4839 0.3113 0.4272   -0.62407
 O 0.2552 0.308 0.2742   -0.867984
 O 0.9606 0.5501 0.0919   -0.862993
 O 0.8657 0.7062 0.0589   -0.646401
