{'_ref': 'TBD', '_srcid': 'CAKYAQ_clean', 'submitters': [{'name': 'Dalar Nazarian Jeff Camp and David Sholl', 'email': 'dalar@gatech.edu jcamp6@gatech.edu'}], '_method': 'VASP DFT with PBE;DDEC'}
data_Cu6H15C25(NO)10
_symmetry_space_group_name_H-M   'P 1'
_cell_length_a   11.40290000
_cell_length_b   12.99640014
_cell_length_c   23.05700000
_cell_angle_alpha   90.00000000
_cell_angle_beta   90.00000000
_cell_angle_gamma   111.63599769
_symmetry_Int_Tables_number   1
_chemical_formula_structural   Cu6H15C25(NO)10
_chemical_formula_sum   'Cu12 H30 C50 N20 O20'
_cell_volume   3176.22761224
_cell_formula_units_Z   2
loop_
 _symmetry_equiv_pos_site_id
 _symmetry_equiv_pos_as_xyz
  1  'x, y, z'
loop_
 _atom_site_label
 _atom_site_fract_x
 _atom_site_fract_y
 _atom_site_fract_z
 _atom_site_charge
 Cu 0.0309 0.4095 0.44309   0.629334
 Cu 0.779 0.0599 0.93868   0.470958
 Cu 0.7181 0.5412 0.97288   0.328578
 Cu 0.1076 0.9342 0.48365   0.487889
 Cu 0.4155 0.3995 0.31891   0.372096
 Cu 0.5132 0.1685 0.7525   0.409724
 Cu 0.5309 0.9095 0.55691   0.629336
 Cu 0.279 0.5599 0.06132   0.470962
 Cu 0.2181 0.0412 0.02712   0.328581
 Cu 0.6076 0.4342 0.51635   0.487892
 Cu 0.9155 0.8995 0.68109   0.372105
 Cu 0.0132 0.6685 0.2475   0.409731
 H 0.5954 0.6604 0.9002   0.100835
 H 0.9278 0.0339 0.5283   0.102187
 H 0.1981 0.647 0.3809   0.110912
 H 0.8982 0.1965 0.5195   0.107223
 H 0.1958 0.1262 0.4073   0.125665
 H 0.2186 0.8193 0.4039   0.098485
 H 0.0706 0.9757 0.8004   0.11178
 H 0.8959 0.2647 0.0182   0.083832
 H 0.8924 0.7661 0.998   0.083343
 H 0.6529 0.3658 0.9009   0.073173
 H 0.3519 0.0575 0.6498   0.078941
 H 0.2904 0.0655 0.8171   0.10114
 H 0.6074 0.8455 0.8927   0.095554
 H 0.9378 0.7125 0.5151   0.090811
 H 0.8891 0.4416 0.0204   0.087686
 H 0.0954 0.1604 0.0998   0.100837
 H 0.4278 0.5339 0.4717   0.102187
 H 0.6981 0.147 0.6191   0.110914
 H 0.3982 0.6965 0.4805   0.107225
 H 0.6958 0.6262 0.5927   0.125664
 H 0.7186 0.3193 0.5961   0.098486
 H 0.5706 0.4757 0.1996   0.111779
 H 0.3959 0.7647 0.9818   0.083835
 H 0.3924 0.2661 0.002   0.083342
 H 0.1529 0.8658 0.0991   0.073172
 H 0.8519 0.5575 0.3502   0.078941
 H 0.7904 0.5655 0.1829   0.101139
 H 0.1074 0.3455 0.1073   0.095555
 H 0.4378 0.2125 0.4849   0.09081
 H 0.3891 0.9416 0.9796   0.087685
 C 0.109 0.241 0.4256   0.02068
 C 0.631 0.138 0.8814   0.640941
 C 0.703 0.241 0.9197   -0.083782
 C 0.975 0.588 0.4778   0.00474
 C 0.657 0.716 0.9204   0.025406
 C 0.188 0.321 0.3846   0.584015
 C 0.975 0.085 0.501   0.074473
 C 0.147 0.659 0.4092   0.034334
 C 0.958 0.183 0.4965   0.060867
 C 0.133 0.138 0.4292   0.091559
 C 0.156 0.76 0.4223   0.060525
 C 0.128 0.993 0.7698   0.016804
 C 0.843 0.282 0.9922   0.11115
 C 0.829 0.777 0.9767   0.110233
 C 0.7 0.344 0.9276   0.155703
 C 0.835 0.88 0.9686   -0.044051
 C 0.936 0.981 0.9968   0.61737
 C 0.889 0.492 0.5081   0.623634
 C 0.125 0.964 0.6109   0.585189
 C 0.297 0.042 0.6812   0.102998
 C 0.261 0.047 0.7794   0.040176
 C 0.668 0.829 0.9136   0.109836
 C 0.991 0.698 0.4885   0.129471
 C 0.177 0.994 0.6713   0.023356
 C 0.835 0.388 0.9959   -0.029009
 C 0.609 0.741 0.5744   0.02068
 C 0.131 0.638 0.1186   0.640941
 C 0.203 0.741 0.0803   -0.083781
 C 0.475 0.088 0.5222   0.00474
 C 0.157 0.216 0.0796   0.025405
 C 0.688 0.821 0.6154   0.584016
 C 0.475 0.585 0.499   0.074474
 C 0.647 0.159 0.5908   0.034333
 C 0.458 0.683 0.5035   0.060868
 C 0.633 0.638 0.5708   0.09156
 C 0.656 0.26 0.5777   0.060525
 C 0.628 0.493 0.2302   0.016806
 C 0.343 0.782 0.0078   0.111152
 C 0.329 0.277 0.0233   0.110234
 C 0.2 0.844 0.0724   0.155704
 C 0.335 0.38 0.0314   -0.044051
 C 0.436 0.481 0.0032   0.61737
 C 0.389 0.992 0.4919   0.623635
 C 0.625 0.464 0.3891   0.585189
 C 0.797 0.542 0.3188   0.102999
 C 0.761 0.547 0.2206   0.040178
 C 0.168 0.329 0.0864   0.109835
 C 0.491 0.198 0.5115   0.129472
 C 0.677 0.494 0.3287   0.023356
 C 0.335 0.888 0.0041   -0.029006
 N 0.752 0.411 0.9659   -0.207596
 N 0.03 0.262 0.4579   -0.246101
 N 0.054 0.564 0.4387   -0.318758
 N 0.079 0.783 0.4618   -0.302661
 N 0.088 0.967 0.7132   -0.288834
 N 0.753 0.901 0.9343   -0.21445
 N 0.784 0.212 0.9553   -0.256999
 N 0.736 0.69 0.9558   -0.25509
 N 0.348 0.073 0.7348   -0.317955
 N 0.057 0.059 0.4676   -0.296262
 N 0.252 0.911 0.0341   -0.207597
 N 0.53 0.762 0.5421   -0.246101
 N 0.554 0.064 0.5613   -0.318759
 N 0.579 0.283 0.5382   -0.302661
 N 0.588 0.467 0.2868   -0.288833
 N 0.253 0.401 0.0657   -0.214451
 N 0.284 0.712 0.0447   -0.257
 N 0.236 0.19 0.0442   -0.25509
 N 0.848 0.573 0.2652   -0.317956
 N 0.557 0.559 0.5324   -0.296262
 O 0.189 0.9782 0.5688   -0.492596
 O 0.6515 0.0565 0.8814   -0.482068
 O 0.555 0.155 0.8435   -0.661581
 O 0.2631 0.3049 0.3525   -0.44504
 O 0.174 0.42 0.3911   -0.613094
 O 0.9004 0.3993 0.4981   -0.56663
 O 0.921 0.07 0.9891   -0.560117
 O 0.023 0.964 0.0214   -0.556845
 O 0.8102 0.5066 0.5411   -0.560221
 O 0.9976 0.9147 0.6059   -0.573888
 O 0.689 0.4782 0.4312   -0.492596
 O 0.1515 0.5565 0.1186   -0.482068
 O 0.055 0.655 0.1565   -0.661582
 O 0.7631 0.8049 0.6475   -0.445041
 O 0.674 0.92 0.6089   -0.613095
 O 0.4004 0.8993 0.5019   -0.566631
 O 0.421 0.57 0.0109   -0.560117
 O 0.523 0.464 0.9786   -0.556845
 O 0.3102 0.0066 0.4589   -0.560221
 O 0.4976 0.4147 0.3941   -0.573888
