{'_ref': 'TBD', '_srcid': 'CAKYAQ_clean', 'submitters': [{'name': 'Dalar Nazarian Jeff Camp and David Sholl', 'email': 'dalar@gatech.edu jcamp6@gatech.edu'}], '_method': 'VASP DFT with PBE;DDEC'}
data_NaBiH22C22(NO5)2
_symmetry_space_group_name_H-M   'P 1'
_cell_length_a   7.08000032
_cell_length_b   17.32650000
_cell_length_c   20.78669710
_cell_angle_alpha   90.00000000
_cell_angle_beta   99.27519223
_cell_angle_gamma   90.00000000
_symmetry_Int_Tables_number   1
_chemical_formula_structural   NaBiH22C22(NO5)2
_chemical_formula_sum   'Na4 Bi4 H88 C88 N8 O40'
_cell_volume   2516.59900218
_cell_formula_units_Z   4
loop_
 _symmetry_equiv_pos_site_id
 _symmetry_equiv_pos_as_xyz
  1  'x, y, z'
loop_
 _atom_site_label
 _atom_site_fract_x
 _atom_site_fract_y
 _atom_site_fract_z
 _atom_site_charge
 Na 0.7778 0.23795 0.6122   0.96903
 Na 0.7222 0.73795 0.8878   0.96903
 Na 0.2222 0.76205 0.3878   0.96903
 Na 0.2778 0.26205 0.1122   0.96903
 Bi 0.305475 0.230068 0.634625   1.484835
 Bi 0.194525 0.730068 0.865375   1.484835
 Bi 0.694525 0.769932 0.365375   1.484835
 Bi 0.805475 0.269932 0.134625   1.484835
 H 0.8696 0.0891 0.6992   0.104131
 H 0.6304 0.5891 0.8008   0.104131
 H 0.1304 0.9109 0.3008   0.104131
 H 0.3696 0.4109 0.1992   0.104131
 H 0.4269 0.953 0.7256   0.101739
 H 0.0731 0.453 0.7744   0.101739
 H 0.5731 0.047 0.2744   0.101739
 H 0.9269 0.547 0.2256   0.101739
 H 0.6386 0.8638 0.7795   0.101861
 H 0.8614 0.3638 0.7205   0.101861
 H 0.3614 0.1362 0.2205   0.101861
 H 0.1386 0.6362 0.2795   0.101861
 H 0.0818 0.999 0.7531   0.103006
 H 0.4182 0.499 0.7469   0.103006
 H 0.9182 0.000999999999998 0.2469   0.103006
 H 0.5818 0.501 0.2531   0.103006
 H 0.8353 0.2744 0.3691   0.096279
 H 0.6647 0.7744 0.1309   0.096279
 H 0.1647 0.7256 0.6309   0.096279
 H 0.3353 0.2256 0.8691   0.096279
 H 0.2853 0.2844 0.2819   0.112532
 H 0.2147 0.7844 0.2181   0.112532
 H 0.7147 0.7156 0.7181   0.112532
 H 0.7853 0.2156 0.7819   0.112532
 H 0.1897 0.2866 0.3833   0.100144
 H 0.3103 0.7866 0.1167   0.100144
 H 0.8103 0.7134 0.6167   0.100144
 H 0.6897 0.2134 0.8833   0.100144
 H 0.7392 0.2711 0.4698   0.09697
 H 0.7608 0.7711 0.0302   0.09697
 H 0.2608 0.7289 0.5302   0.09697
 H 0.2392 0.2289 0.9698   0.09697
 H 0.8542 0.0421 0.3732   0.120277
 H 0.6458 0.5421 0.1268   0.120277
 H 0.1458 0.9579 0.6268   0.120277
 H 0.3542 0.4579 0.8732   0.120277
 H 0.9757 0.1179 0.3739   0.099621
 H 0.5243 0.6179 0.1261   0.099621
 H 0.0243 0.8821 0.6261   0.099621
 H 0.4757 0.3821 0.8739   0.099621
 H 0.0699 0.0423 0.4058   0.094643
 H 0.4301 0.5423 0.0942   0.094643
 H 0.9301 0.9577 0.5942   0.094643
 H 0.5699 0.4577 0.9058   0.094643
 H 0.6479 0.0425 0.433   0.103991
 H 0.8521 0.5425 0.067   0.103991
 H 0.3521 0.9575 0.567   0.103991
 H 0.1479 0.4575 0.933   0.103991
 H 0.7127 0.0429 0.5087   0.095328
 H 0.7873 0.5429 0.9913   0.095328
 H 0.2873 0.9571 0.4913   0.095328
 H 0.2127 0.4571 0.0087   0.095328
 H 0.6319 0.1183 0.4728   0.097997
 H 0.8681 0.6183 0.0272   0.097997
 H 0.3681 0.8817 0.5272   0.097997
 H 0.1319 0.3817 0.9728   0.097997
 H 0.1307 0.1491 0.4944   0.019143
 H 0.3693 0.6491 0.0056   0.019143
 H 0.8693 0.8509 0.5056   0.019143
 H 0.6307 0.3509 0.9944   0.019143
 H 0.969 0.5957 0.5938   0.106433
 H 0.531 0.0957 0.9062   0.106433
 H 0.031 0.4043 0.4062   0.106433
 H 0.469 0.9043 0.0938   0.106433
 H 0.1145 0.5404 0.636   0.096017
 H 0.3855 0.0404 0.864   0.096017
 H 0.8855 0.4596 0.364   0.096017
 H 0.6145 0.9596 0.136   0.096017
 H 0.1171 0.5487 0.561   0.092349
 H 0.3829 0.0487 0.939   0.092349
 H 0.8829 0.4513 0.439   0.092349
 H 0.6171 0.9513 0.061   0.092349
 H 0.6877 0.5601 0.5801   0.094559
 H 0.8123 0.0601 0.9199   0.094559
 H 0.3123 0.4399 0.4199   0.094558
 H 0.1877 0.9399 0.0801   0.094558
 H 0.6288 0.4869 0.5372   0.09242
 H 0.8712 0.9869 0.9628   0.09242
 H 0.3712 0.5131 0.4628   0.092419
 H 0.1288 0.0131 0.0372   0.092419
 H 0.6501 0.4815 0.6133   0.085644
 H 0.8499 0.9815 0.8867   0.085644
 H 0.3499 0.5185 0.3867   0.085644
 H 0.1501 0.0185 0.1133   0.085644
 H 0.0883 0.4027 0.582   0.019985
 H 0.4117 0.9027 0.918   0.019985
 H 0.9117 0.5973 0.418   0.019985
 H 0.5883 0.0973 0.082   0.019985
 C 0.4902 0.0892 0.6748   0.645661
 C 0.0098 0.5892 0.8252   0.645661
 C 0.5098 0.9108 0.3252   0.645661
 C 0.9902 0.4108 0.1748   0.645661
 C 0.6267 0.0295 0.7066   -0.137392
 C 0.8733 0.5295 0.7934   -0.137392
 C 0.3733 0.9705 0.2934   -0.137392
 C 0.1267 0.4705 0.2066   -0.137392
 C 0.8238 0.0438 0.7152   -0.043812
 C 0.6762 0.5438 0.7848   -0.043812
 C 0.1762 0.9562 0.2848   -0.043812
 C 0.3238 0.4562 0.2152   -0.043812
 C 0.5579 0.9622 0.731   -0.055742
 C 0.9421 0.4622 0.769   -0.055742
 C 0.4421 0.0378 0.269   -0.055742
 C 0.0579 0.5378 0.231   -0.055742
 C 0.6843 0.909 0.7634   -0.038149
 C 0.8157 0.409 0.7366   -0.038149
 C 0.3157 0.091 0.2366   -0.038149
 C 0.1843 0.591 0.2634   -0.038149
 C 0.9506 0.9902 0.7476   -0.05507
 C 0.5494 0.4902 0.7524   -0.05507
 C 0.0494 0.0098 0.2524   -0.05507
 C 0.4506 0.5098 0.2476   -0.05507
 C 0.8802 0.9232 0.7718   -0.128743
 C 0.6198 0.4232 0.7282   -0.128743
 C 0.1198 0.0768 0.2282   -0.128743
 C 0.3802 0.5768 0.2718   -0.128743
 C 0.0185 0.8656 0.8074   0.644704
 C 0.4815 0.3656 0.6926   0.644704
 C 0.9815 0.1344 0.1926   0.644704
 C 0.5185 0.6344 0.3074   0.644704
 C 0.6339 0.2774 0.2494   0.678233
 C 0.8661 0.7774 0.2506   0.678233
 C 0.3661 0.7226 0.7506   0.678233
 C 0.1339 0.2226 0.7494   0.678233
 C 0.5706 0.2785 0.3152   -0.136483
 C 0.9294 0.7785 0.1848   -0.136483
 C 0.4294 0.7215 0.6848   -0.136483
 C 0.0706 0.2215 0.8152   -0.136483
 C 0.7055 0.2754 0.3719   -0.053151
 C 0.7945 0.7754 0.1281   -0.053151
 C 0.2945 0.7246 0.6281   -0.053151
 C 0.2055 0.2246 0.8719   -0.053151
 C 0.3762 0.2822 0.3196   -0.039905
 C 0.1238 0.7822 0.1804   -0.039905
 C 0.6238 0.7178 0.6804   -0.039905
 C 0.8762 0.2178 0.8196   -0.039905
 C 0.319 0.2826 0.3803   -0.093921
 C 0.181 0.7826 0.1197   -0.093921
 C 0.681 0.7174 0.6197   -0.093921
 C 0.819 0.2174 0.8803   -0.093921
 C 0.6482 0.274 0.4322   -0.064835
 C 0.8518 0.774 0.0678   -0.064835
 C 0.3518 0.726 0.5678   -0.064835
 C 0.1482 0.226 0.9322   -0.064835
 C 0.4541 0.277 0.437   -0.101991
 C 0.0459 0.777 0.063   -0.101991
 C 0.5459 0.723 0.563   -0.101991
 C 0.9541 0.223 0.937   -0.101991
 C 0.3898 0.2725 0.5025   0.667118
 C 0.1102 0.7725 0.9975   0.667118
 C 0.6102 0.7275 0.4975   0.667118
 C 0.8898 0.2275 0.0025   0.667118
 C 0.9544 0.0722 0.3979   -0.195289
 C 0.5456 0.5722 0.1021   -0.195289
 C 0.0456 0.9278 0.6021   -0.195289
 C 0.4544 0.4278 0.8979   -0.195289
 C 0.7065 0.0727 0.4695   -0.164559
 C 0.7935 0.5727 0.0305   -0.164559
 C 0.2935 0.9273 0.5305   -0.164559
 C 0.2065 0.4273 0.9695   -0.164559
 C 0.0109 0.1363 0.5041   0.428493
 C 0.4891 0.6363 0.9959   0.428493
 C 0.9891 0.8637 0.4959   0.428493
 C 0.5109 0.3637 0.0041   0.428493
 C 0.0369 0.5477 0.5941   -0.176654
 C 0.4631 0.0477 0.9059   -0.176654
 C 0.9631 0.4523 0.4059   -0.176654
 C 0.5369 0.9523 0.0941   -0.176654
 C 0.6996 0.505 0.5776   -0.149745
 C 0.8004 0.005 0.9224   -0.149745
 C 0.3004 0.495 0.4224   -0.149745
 C 0.1996 0.995 0.0776   -0.149745
 C 0.9576 0.4116 0.5789   0.436231
 C 0.5424 0.9116 0.9211   0.436231
 C 0.0424 0.5884 0.4211   0.436231
 C 0.4576 0.0884 0.0789   0.436231
 N 0.8983 0.0943 0.4605   -0.075385
 N 0.6017 0.5943 0.0395   -0.075385
 N 0.1017 0.9057 0.5395   -0.075385
 N 0.3983 0.4057 0.9605   -0.075385
 N 0.9003 0.4846 0.5812   -0.093222
 N 0.5997 0.9846 0.9188   -0.093222
 N 0.0997 0.5154 0.4188   -0.093222
 N 0.4003 0.0154 0.0812   -0.093222
 O 0.56429 0.15427 0.66219   -0.612596
 O 0.93571 0.65427 0.83781   -0.612596
 O 0.43571 0.84573 0.33781   -0.612596
 O 0.06429 0.34573 0.16219   -0.612596
 O 0.31544 0.0783 0.66174   -0.557769
 O 0.18456 0.5783 0.83826   -0.557769
 O 0.68456 0.9217 0.33826   -0.557769
 O 0.81544 0.4217 0.16174   -0.557769
 O 0.19448 0.87429 0.81388   -0.552538
 O 0.30552 0.37429 0.68612   -0.552538
 O 0.80552 0.12571 0.18612   -0.552538
 O 0.69448 0.62571 0.31388   -0.552538
 O 0.94304 0.80608 0.83114   -0.621049
 O 0.55696 0.30608 0.66886   -0.621049
 O 0.05696 0.19392 0.16886   -0.621049
 O 0.44304 0.69392 0.33114   -0.621049
 O 0.81194 0.28097 0.24714   -0.572963
 O 0.68806 0.78097 0.25286   -0.572963
 O 0.18806 0.71903 0.75286   -0.572963
 O 0.31194 0.21903 0.74714   -0.572963
 O 0.51011 0.27264 0.19901   -0.696212
 O 0.98989 0.77264 0.30099   -0.696212
 O 0.48989 0.72736 0.80099   -0.696212
 O 0.01011 0.22736 0.69901   -0.696212
 O 0.48142 0.22616 0.54362   -0.703406
 O 0.01858 0.72616 0.95638   -0.703406
 O 0.51858 0.77384 0.45638   -0.703406
 O 0.98142 0.27384 0.04362   -0.703406
 O 0.24992 0.3103 0.51372   -0.58863
 O 0.25008 0.8103 0.98628   -0.58863
 O 0.75008 0.6897 0.48628   -0.58863
 O 0.74992 0.1897 0.01372   -0.58863
 O 0.9722 0.16 0.5562   -0.640544
 O 0.5278 0.66 0.9438   -0.640544
 O 0.0278 0.84 0.4438   -0.640544
 O 0.4722 0.34 0.0562   -0.640544
 O 0.8514 0.3551 0.5731   -0.63962
 O 0.6486 0.8551 0.9269   -0.63962
 O 0.1486 0.6449 0.4269   -0.63962
 O 0.3514 0.1449 0.0731   -0.63962
