{'_ref': 'TBD', '_srcid': 'CAKYAQ_clean', 'submitters': [{'name': 'Dalar Nazarian Jeff Camp and David Sholl', 'email': 'dalar@gatech.edu jcamp6@gatech.edu'}], '_method': 'VASP DFT with PBE;DDEC'}
data_Cd2H11C20N2O9
_symmetry_space_group_name_H-M   'P 1'
_cell_length_a   11.94099991
_cell_length_b   15.29860016
_cell_length_c   17.31600000
_cell_angle_alpha   84.72179861
_cell_angle_beta   76.36610224
_cell_angle_gamma   67.02910123
_symmetry_Int_Tables_number   1
_chemical_formula_structural   Cd2H11C20N2O9
_chemical_formula_sum   'Cd8 H44 C80 N8 O36'
_cell_volume   2830.38956062
_cell_formula_units_Z   4
loop_
 _symmetry_equiv_pos_site_id
 _symmetry_equiv_pos_as_xyz
  1  'x, y, z'
loop_
 _atom_site_label
 _atom_site_fract_x
 _atom_site_fract_y
 _atom_site_fract_z
 _atom_site_charge
 Cd 0.52726 0.56266 0.33444   0.996398
 Cd 0.20915 0.36928 0.18588   1.122098
 Cd 0.91008 0.56266 0.16556   0.99628
 Cd 0.42157 0.36928 0.31412   1.12172
 Cd 0.47274 0.43734 0.66556   0.996398
 Cd 0.79085 0.63072 0.81412   1.122099
 Cd 0.08992 0.43734 0.83444   0.99628
 Cd 0.57843 0.63072 0.68588   1.12172
 H 0.8921 0.6514 0.4643   0.106304
 H 0.0892 0.6196 0.3856   0.122408
 H 0.509 0.7088 0.1928   0.095212
 H 0.4384 0.8648 0.162   0.131371
 H 0.4458 0.0062 0.1504   0.121764
 H 0.3889 0.166 0.125   0.084143
 H 0.1351 0.2246 0.3204   0.08433
 H 0.1903 0.0684 0.3529   0.134923
 H 0.3227 0.926 0.3932   0.135585
 H 0.4015 0.7636 0.4177   0.092286
 H 0.153 0.348 0.0277   0.382655
 H 0.4565 0.6514 0.0357   0.106898
 H 0.2912 0.6196 0.1144   0.121594
 H 0.7822 0.7088 0.3072   0.095585
 H 0.6968 0.8648 0.338   0.131216
 H 0.548 0.0062 0.3496   0.121772
 H 0.4451 0.166 0.375   0.084171
 H 0.6403 0.2246 0.1796   0.084562
 H 0.7413 0.0684 0.1471   0.135052
 H 0.7513 0.926 0.1068   0.135819
 H 0.8349 0.7636 0.0823   0.091926
 H 0.499 0.348 0.4723   0.38261
 H 0.1079 0.3486 0.5357   0.106304
 H 0.9108 0.3804 0.6144   0.122408
 H 0.491 0.2912 0.8072   0.095212
 H 0.5616 0.1352 0.838   0.131371
 H 0.5542 0.9938 0.8496   0.121763
 H 0.6111 0.834 0.875   0.084143
 H 0.8649 0.7754 0.6796   0.08433
 H 0.8097 0.9316 0.6471   0.134923
 H 0.6773 0.074 0.6068   0.135585
 H 0.5985 0.2364 0.5823   0.092286
 H 0.847 0.652 0.9723   0.382655
 H 0.5435 0.3486 0.9643   0.106898
 H 0.7088 0.3804 0.8856   0.121594
 H 0.2178 0.2912 0.6928   0.095585
 H 0.3032 0.1352 0.662   0.131216
 H 0.452 0.9938 0.6504   0.121771
 H 0.5549 0.834 0.625   0.08417
 H 0.3597 0.7754 0.8204   0.084562
 H 0.2587 0.9316 0.8529   0.135051
 H 0.2487 0.074 0.8932   0.135818
 H 0.1651 0.2364 0.9177   0.091926
 H 0.501 0.652 0.5277   0.38261
 C 0.3072 0.561 0.4246   0.646854
 C 0.1822 0.5696 0.4738   -0.069722
 C 0.1676 0.5466 0.5538   -0.035801
 C 0.281 0.4994 0.5888   0.614237
 C 0.0489 0.5656 0.6022   -0.047434
 C 0.0403 0.5402 0.6888   0.667618
 C 0.9449 0.6072 0.5677   -0.137342
 C 0.8149 0.6248 0.615   0.638498
 C 0.9613 0.6258 0.4872   -0.039741
 C 0.0793 0.607 0.4398   -0.087462
 C 0.4712 0.753 0.2338   0.188541
 C 0.4282 0.8468 0.2151   -0.203197
 C 0.3707 0.9148 0.2727   0.097536
 C 0.3261 0.0176 0.2547   0.095736
 C 0.3829 0.0496 0.1868   -0.211388
 C 0.3476 0.1464 0.1715   0.182838
 C 0.2003 0.1802 0.286   0.206624
 C 0.2319 0.0862 0.3056   -0.205556
 C 0.3603 0.8832 0.3512   -0.219257
 C 0.4081 0.7848 0.3653   0.190558
 C 0.1318 0.561 0.0754   0.647092
 C 0.2482 0.5696 0.0262   -0.071375
 C 0.2858 0.5466 0.9462   -0.034879
 C 0.2196 0.4994 0.9112   0.614303
 C 0.3855 0.5656 0.8978   -0.047526
 C 0.4195 0.5402 0.8112   0.66801
 C 0.4479 0.6072 0.9323   -0.137707
 C 0.5603 0.6248 0.885   0.639912
 C 0.4129 0.6258 0.0128   -0.041131
 C 0.3137 0.607 0.0602   -0.085576
 C 0.7758 0.753 0.2662   0.188844
 C 0.725 0.8468 0.2849   -0.203093
 C 0.7145 0.9148 0.2273   0.097632
 C 0.6563 0.0176 0.2453   0.096221
 C 0.5675 0.0496 0.3132   -0.210641
 C 0.506 0.1464 0.3285   0.181766
 C 0.6195 0.1802 0.214   0.205333
 C 0.6819 0.0862 0.1944   -0.205705
 C 0.7565 0.8832 0.1488   -0.219851
 C 0.8071 0.7848 0.1347   0.191796
 C 0.6928 0.439 0.5754   0.646854
 C 0.8178 0.4304 0.5262   -0.069722
 C 0.8324 0.4534 0.4462   -0.035801
 C 0.719 0.5006 0.4112   0.614237
 C 0.9511 0.4344 0.3978   -0.047434
 C 0.9597 0.4598 0.3112   0.667618
 C 0.0551 0.3928 0.4323   -0.137342
 C 0.1851 0.3752 0.385   0.638498
 C 0.0387 0.3742 0.5128   -0.039742
 C 0.9207 0.393 0.5602   -0.087462
 C 0.5288 0.247 0.7662   0.188541
 C 0.5718 0.1532 0.7849   -0.203197
 C 0.6293 0.0852 0.7273   0.097536
 C 0.6739 0.9824 0.7453   0.095736
 C 0.6171 0.9504 0.8132   -0.211387
 C 0.6524 0.8536 0.8285   0.182838
 C 0.7997 0.8198 0.714   0.206624
 C 0.7681 0.9138 0.6944   -0.205556
 C 0.6397 0.1168 0.6488   -0.219256
 C 0.5919 0.2152 0.6347   0.190558
 C 0.8682 0.439 0.9246   0.647092
 C 0.7518 0.4304 0.9738   -0.071375
 C 0.7142 0.4534 0.0538   -0.034879
 C 0.7804 0.5006 0.0888   0.614303
 C 0.6145 0.4344 0.1022   -0.047526
 C 0.5805 0.4598 0.1888   0.66801
 C 0.5521 0.3928 0.0677   -0.137707
 C 0.4397 0.3752 0.115   0.639911
 C 0.5871 0.3742 0.9872   -0.041131
 C 0.6863 0.393 0.9398   -0.085576
 C 0.2242 0.247 0.7338   0.188844
 C 0.275 0.1532 0.7151   -0.203092
 C 0.2855 0.0852 0.7727   0.097632
 C 0.3437 0.9824 0.7547   0.096221
 C 0.4325 0.9504 0.6868   -0.210641
 C 0.494 0.8536 0.6715   0.181766
 C 0.3805 0.8198 0.786   0.205333
 C 0.3181 0.9138 0.8056   -0.205705
 C 0.2435 0.1168 0.8512   -0.21985
 C 0.1929 0.2152 0.8653   0.191795
 N 0.4614 0.7216 0.3087   -0.341754
 N 0.2572 0.2122 0.2205   -0.349628
 N 0.817 0.7216 0.1913   -0.343424
 N 0.5306 0.2122 0.2795   -0.348335
 N 0.5386 0.2784 0.6913   -0.341754
 N 0.7428 0.7878 0.7795   -0.349628
 N 0.183 0.2784 0.8087   -0.343424
 N 0.4694 0.7878 0.7205   -0.348335
 O 0.3697 0.593 0.4528   -0.534683
 O 0.34405 0.5283 0.3546   -0.614283
 O 0.35798 0.41964 0.5642   -0.543206
 O 0.2912 0.5404 0.6445   -0.498265
 O 0.0901 0.454 0.7048   -0.573826
 O 0.98918 0.60464 0.7405   -0.584487
 O 0.79779 0.58902 0.6832   -0.625627
 O 0.7248 0.6706 0.5843   -0.580391
 O 0.1323 0.3454 0.0803   -0.635322
 O 0.0373 0.593 0.0472   -0.534506
 O 0.12765 0.5283 0.1454   -0.614046
 O 0.22238 0.41964 0.9358   -0.542638
 O 0.1684 0.5404 0.8555   -0.498796
 O 0.4559 0.454 0.7952   -0.574141
 O 0.40618 0.60464 0.7595   -0.584455
 O 0.61319 0.58902 0.8168   -0.625985
 O 0.6046 0.6706 0.9157   -0.581325
 O 0.5223 0.3454 0.4197   -0.635119
 O 0.6303 0.407 0.5472   -0.534684
 O 0.65595 0.4717 0.6454   -0.614283
 O 0.64202 0.58036 0.4358   -0.543206
 O 0.7088 0.4596 0.3555   -0.498266
 O 0.9099 0.546 0.2952   -0.573826
 O 0.01082 0.39536 0.2595   -0.584487
 O 0.20221 0.41098 0.3168   -0.625627
 O 0.2752 0.3294 0.4157   -0.580391
 O 0.8677 0.6546 0.9197   -0.635323
 O 0.9627 0.407 0.9528   -0.534506
 O 0.87235 0.4717 0.8546   -0.614046
 O 0.77762 0.58036 0.0642   -0.542638
 O 0.8316 0.4596 0.1445   -0.498796
 O 0.5441 0.546 0.2048   -0.574141
 O 0.59382 0.39536 0.2405   -0.584455
 O 0.38681 0.41098 0.1832   -0.625985
 O 0.3954 0.3294 0.0843   -0.581325
 O 0.4777 0.6546 0.5803   -0.635121
