{'_ref': 'TBD', '_srcid': 'CAKYAQ_clean', 'submitters': [{'name': 'Dalar Nazarian Jeff Camp and David Sholl', 'email': 'dalar@gatech.edu jcamp6@gatech.edu'}], '_method': 'VASP DFT with PBE;DDEC'}
data_ZnHC5O4
_symmetry_space_group_name_H-M   'P 1'
_cell_length_a   11.81050000
_cell_length_b   18.77750000
_cell_length_c   18.77750000
_cell_angle_alpha   90.00000000
_cell_angle_beta   90.00000000
_cell_angle_gamma   90.00000000
_symmetry_Int_Tables_number   1
_chemical_formula_structural   ZnHC5O4
_chemical_formula_sum   'Zn16 H16 C80 O64'
_cell_volume   4164.31741607
_cell_formula_units_Z   16
loop_
 _symmetry_equiv_pos_site_id
 _symmetry_equiv_pos_as_xyz
  1  'x, y, z'
loop_
 _atom_site_label
 _atom_site_fract_x
 _atom_site_fract_y
 _atom_site_fract_z
 _atom_site_charge
 Zn 0.50004 0.14728 0.81009   1.185856
 Zn 0.32154 0.27739 0.7732   1.046631
 Zn 0.50004 0.85272 0.18991   1.185856
 Zn 0.32154 0.72261 0.2268   1.046631
 Zn 3.99999999985e-05 0.18991 0.14728   1.185856
 Zn 0.82154 0.2268 0.27739   1.046631
 Zn 3.99999999985e-05 0.81009 0.85272   1.185856
 Zn 0.82154 0.7732 0.72261   1.046631
 Zn 0.50004 0.64728 0.68991   1.185856
 Zn 0.32154 0.77739 0.7268   1.046631
 Zn 0.50004 0.35272 0.31009   1.185856
 Zn 0.32154 0.22261 0.2732   1.046631
 Zn 3.99999999985e-05 0.68991 0.35272   1.185856
 Zn 0.82154 0.7268 0.22261   1.046631
 Zn 3.99999999985e-05 0.31009 0.64728   1.185856
 Zn 0.82154 0.2732 0.77739   1.046631
 H 0.7647 0.2309 0.0011   0.109065
 H 0.3878 0.2735 0.0475   0.118845
 H 0.7647 0.7691 0.9989   0.109065
 H 0.3878 0.7265 0.9525   0.118845
 H 0.2647 0.9989 0.2309   0.109065
 H 0.8878 0.9525 0.2735   0.118845
 H 0.2647 0.0011 0.7691   0.109065
 H 0.8878 0.0475 0.7265   0.118845
 H 0.7647 0.7309 0.4989   0.109065
 H 0.3878 0.7735 0.4525   0.118845
 H 0.7647 0.2691 0.5011   0.109065
 H 0.3878 0.2265 0.5475   0.118845
 H 0.2647 0.4989 0.2691   0.109065
 H 0.8878 0.4525 0.2265   0.118845
 H 0.2647 0.5011 0.7309   0.109065
 H 0.8878 0.5475 0.7735   0.118845
 C 0.5004 0.2604 0.9676   -0.112132
 C 0.6152 0.247 0.9538   -0.11946
 C 0.6884 0.2388 0.0104   -0.016647
 C 0.6521 0.2418 0.081   -0.129021
 C 0.5381 0.2564 0.0956   -0.04819
 C 0.4639 0.2648 0.0384   -0.036877
 C 0.4103 0.269 0.9109   0.676857
 C 0.6704 0.2407 0.881   0.723576
 C 0.7399 0.2267 0.1369   0.743001
 C 0.4886 0.2642 0.1693   0.741925
 C 0.5004 0.7396 0.0324   -0.112132
 C 0.6152 0.753 0.0462   -0.11946
 C 0.6884 0.7612 0.9896   -0.016647
 C 0.6521 0.7582 0.919   -0.129022
 C 0.5381 0.7436 0.9044   -0.04819
 C 0.4639 0.7352 0.9616   -0.036877
 C 0.4103 0.731 0.0891   0.676857
 C 0.6704 0.7593 0.119   0.723576
 C 0.7399 0.7733 0.8631   0.743001
 C 0.4886 0.7358 0.8307   0.741925
 C 0.000399999999999 0.0324 0.2604   -0.112132
 C 0.1152 0.0462 0.247   -0.11946
 C 0.1884 0.9896 0.2388   -0.016647
 C 0.1521 0.919 0.2418   -0.129021
 C 0.0381 0.9044 0.2564   -0.04819
 C 0.9639 0.9616 0.2648   -0.036877
 C 0.9103 0.0891 0.269   0.676857
 C 0.1704 0.119 0.2407   0.723576
 C 0.2399 0.8631 0.2267   0.743001
 C 0.9886 0.8307 0.2642   0.741925
 C 0.000399999999999 0.9676 0.7396   -0.112132
 C 0.1152 0.9538 0.753   -0.11946
 C 0.1884 0.0104 0.7612   -0.016647
 C 0.1521 0.081 0.7582   -0.129022
 C 0.0381 0.0956 0.7436   -0.04819
 C 0.9639 0.0384 0.7352   -0.036877
 C 0.9103 0.9109 0.731   0.676857
 C 0.1704 0.881 0.7593   0.723576
 C 0.2399 0.1369 0.7733   0.743001
 C 0.9886 0.1693 0.7358   0.741925
 C 0.5004 0.7604 0.5324   -0.112132
 C 0.6152 0.747 0.5462   -0.11946
 C 0.6884 0.7388 0.4896   -0.016647
 C 0.6521 0.7418 0.419   -0.129021
 C 0.5381 0.7564 0.4044   -0.04819
 C 0.4639 0.7648 0.4616   -0.036877
 C 0.4103 0.769 0.5891   0.676857
 C 0.6704 0.7407 0.619   0.723576
 C 0.7399 0.7267 0.3631   0.743001
 C 0.4886 0.7642 0.3307   0.741925
 C 0.5004 0.2396 0.4676   -0.112132
 C 0.6152 0.253 0.4538   -0.11946
 C 0.6884 0.2612 0.5104   -0.016647
 C 0.6521 0.2582 0.581   -0.129021
 C 0.5381 0.2436 0.5956   -0.04819
 C 0.4639 0.2352 0.5384   -0.036877
 C 0.4103 0.231 0.4109   0.676857
 C 0.6704 0.2593 0.381   0.723576
 C 0.7399 0.2733 0.6369   0.743001
 C 0.4886 0.2358 0.6693   0.741925
 C 0.000399999999999 0.5324 0.2396   -0.112132
 C 0.1152 0.5462 0.253   -0.11946
 C 0.1884 0.4896 0.2612   -0.016647
 C 0.1521 0.419 0.2582   -0.129021
 C 0.0381 0.4044 0.2436   -0.04819
 C 0.9639 0.4616 0.2352   -0.036877
 C 0.9103 0.5891 0.231   0.676857
 C 0.1704 0.619 0.2593   0.723576
 C 0.2399 0.3631 0.2733   0.743001
 C 0.9886 0.3307 0.2358   0.741925
 C 0.000399999999999 0.4676 0.7604   -0.112132
 C 0.1152 0.4538 0.747   -0.11946
 C 0.1884 0.5104 0.7388   -0.016647
 C 0.1521 0.581 0.7418   -0.129021
 C 0.0381 0.5956 0.7564   -0.04819
 C 0.9639 0.5384 0.7648   -0.036877
 C 0.9103 0.4109 0.769   0.676857
 C 0.1704 0.381 0.7407   0.723576
 C 0.2399 0.6369 0.7267   0.743001
 C 0.9886 0.6693 0.7642   0.741925
 O 0.4391 0.2558 0.8462   -0.708563
 O 0.316 0.2852 0.9275   -0.525069
 O 0.6503 0.1915 0.8394   -0.619095
 O 0.7477 0.2864 0.8698   -0.532706
 O 0.8375 0.2128 0.116   -0.677963
 O 0.7094 0.2265 0.2003   -0.570601
 O 0.4159 0.2176 0.1864   -0.620538
 O 0.5154 0.3161 0.2055   -0.628894
 O 0.4391 0.7442 0.1538   -0.708563
 O 0.316 0.7148 0.0725   -0.525069
 O 0.6503 0.8085 0.1606   -0.619095
 O 0.7477 0.7136 0.1302   -0.532706
 O 0.8375 0.7872 0.884   -0.677963
 O 0.7094 0.7735 0.7997   -0.570601
 O 0.4159 0.7824 0.8136   -0.620538
 O 0.5154 0.6839 0.7945   -0.628894
 O 0.9391 0.1538 0.2558   -0.708563
 O 0.816 0.0725 0.2852   -0.525069
 O 0.1503 0.1606 0.1915   -0.619095
 O 0.2477 0.1302 0.2864   -0.532706
 O 0.3375 0.884 0.2128   -0.677963
 O 0.2094 0.7997 0.2265   -0.570601
 O 0.9159 0.8136 0.2176   -0.620538
 O 0.0154 0.7945 0.3161   -0.628894
 O 0.9391 0.8462 0.7442   -0.708563
 O 0.816 0.9275 0.7148   -0.525069
 O 0.1503 0.8394 0.8085   -0.619095
 O 0.2477 0.8698 0.7136   -0.532706
 O 0.3375 0.116 0.7872   -0.677963
 O 0.2094 0.2003 0.7735   -0.570601
 O 0.9159 0.1864 0.7824   -0.620538
 O 0.0154 0.2055 0.6839   -0.628894
 O 0.4391 0.7558 0.6538   -0.708563
 O 0.316 0.7852 0.5725   -0.525069
 O 0.6503 0.6915 0.6606   -0.619095
 O 0.7477 0.7864 0.6302   -0.532706
 O 0.8375 0.7128 0.384   -0.677963
 O 0.7094 0.7265 0.2997   -0.570601
 O 0.4159 0.7176 0.3136   -0.620538
 O 0.5154 0.8161 0.2945   -0.628894
 O 0.4391 0.2442 0.3462   -0.708563
 O 0.316 0.2148 0.4275   -0.525069
 O 0.6503 0.3085 0.3394   -0.619095
 O 0.7477 0.2136 0.3698   -0.532706
 O 0.8375 0.2872 0.616   -0.677963
 O 0.7094 0.2735 0.7003   -0.570601
 O 0.4159 0.2824 0.6864   -0.620538
 O 0.5154 0.1839 0.7055   -0.628894
 O 0.9391 0.6538 0.2442   -0.708563
 O 0.816 0.5725 0.2148   -0.525069
 O 0.1503 0.6606 0.3085   -0.619095
 O 0.2477 0.6302 0.2136   -0.532706
 O 0.3375 0.384 0.2872   -0.677963
 O 0.2094 0.2997 0.2735   -0.570601
 O 0.9159 0.3136 0.2824   -0.620538
 O 0.0154 0.2945 0.1839   -0.628894
 O 0.9391 0.3462 0.7558   -0.708563
 O 0.816 0.4275 0.7852   -0.525069
 O 0.1503 0.3394 0.6915   -0.619095
 O 0.2477 0.3698 0.7864   -0.532706
 O 0.3375 0.616 0.7128   -0.677963
 O 0.2094 0.7003 0.7265   -0.570601
 O 0.9159 0.6864 0.7176   -0.620538
 O 0.0154 0.7055 0.8161   -0.628894
