{'_ref': 'TBD', '_srcid': 'CAKYAQ_clean', 'submitters': [{'name': 'Dalar Nazarian Jeff Camp and David Sholl', 'email': 'dalar@gatech.edu jcamp6@gatech.edu'}], '_method': 'VASP DFT with PBE;DDEC'}
data_MnH2(CO2)2
_symmetry_space_group_name_H-M   'P 1'
_cell_length_a   10.00500000
_cell_length_b   11.51899972
_cell_length_c   14.96100000
_cell_angle_alpha   91.22849896
_cell_angle_beta   90.00000000
_cell_angle_gamma   90.00000000
_symmetry_Int_Tables_number   1
_chemical_formula_structural   MnH2(CO2)2
_chemical_formula_sum   'Mn12 H24 C24 O48'
_cell_volume   1723.82290343
_cell_formula_units_Z   12
loop_
 _symmetry_equiv_pos_site_id
 _symmetry_equiv_pos_as_xyz
  1  'x, y, z'
loop_
 _atom_site_label
 _atom_site_fract_x
 _atom_site_fract_y
 _atom_site_fract_z
 _atom_site_charge
 Mn 0.91411 0.75624 0.13161   1.150955
 Mn 0.09713 0.73582 0.31485   1.146768
 Mn 0.41411 0.74376 0.36839   1.150955
 Mn 0.59713 0.76418 0.18515   1.146768
 Mn 0.08589 0.24376 0.86839   1.150955
 Mn 0.90287 0.26418 0.68515   1.146768
 Mn 0.58589 0.25624 0.63161   1.150955
 Mn 0.40287 0.23582 0.81485   1.146768
 Mn 0.0 0.5 0.0   1.152968
 Mn 0.5 0.0 0.5   1.152968
 Mn 0.0 0.0 0.0   1.16431
 Mn 0.5 0.5 0.5   1.16431
 H 0.746 0.868 0.364   -0.004241
 H 0.026 0.4715 0.2645   0.013425
 H 0.611 0.5517 0.0457   0.007862
 H 0.195 0.973 0.231   -0.000129
 H 0.163 0.697 0.935   -0.001982
 H 0.701 0.9905 0.0045   0.00739
 H 0.246 0.632 0.136   -0.004241
 H 0.526 0.0285 0.2355   0.013425
 H 0.111 0.9483 0.4543   0.007862
 H 0.695 0.527 0.269   -0.00013
 H 0.663 0.803 0.565   -0.001982
 H 0.201 0.5095 0.4955   0.007389
 H 0.254 0.132 0.636   -0.004241
 H 0.974 0.5285 0.7355   0.013424
 H 0.389 0.4483 0.9543   0.007859
 H 0.805 0.027 0.769   -0.00013
 H 0.837 0.303 0.065   -0.001984
 H 0.299 0.0095 0.9955   0.007389
 H 0.754 0.368 0.864   -0.004241
 H 0.474 0.9715 0.7645   0.013423
 H 0.889 0.0517 0.5457   0.007859
 H 0.305 0.473 0.731   -0.00013
 H 0.337 0.197 0.435   -0.001984
 H 0.799 0.4905 0.5045   0.007389
 C 0.8169 0.8362 0.3282   0.68954
 C 0.0079 0.51286 0.21116   0.673925
 C 0.7055 0.57332 0.05232   0.671812
 C 0.1284 0.94929 0.18659   0.68012
 C 0.1081 0.74222 0.97112   0.713485
 C 0.7144 0.93212 0.04842   0.69291
 C 0.3169 0.6638 0.1718   0.689539
 C 0.5079 0.98714 0.28884   0.673925
 C 0.2055 0.92668 0.44768   0.671812
 C 0.6284 0.55071 0.31341   0.68012
 C 0.6081 0.75778 0.52888   0.713485
 C 0.2144 0.56788 0.45158   0.69291
 C 0.1831 0.1638 0.6718   0.689539
 C 0.9921 0.48714 0.78884   0.673925
 C 0.2945 0.42668 0.94768   0.671812
 C 0.8716 0.05071 0.81341   0.68012
 C 0.8919 0.25778 0.02888   0.713486
 C 0.2856 0.06788 0.95158   0.69291
 C 0.6831 0.3362 0.8282   0.689539
 C 0.4921 0.01286 0.71116   0.673925
 C 0.7945 0.07332 0.55232   0.671812
 C 0.3716 0.44929 0.68659   0.68012
 C 0.3919 0.24222 0.47112   0.713486
 C 0.7856 0.43212 0.54842   0.69291
 O 0.79148 0.81348 0.24635   -0.670594
 O 0.92286 0.81581 0.36771   -0.599666
 O 0.995 0.62283 0.21985   -0.676626
 O 0.00206 0.45674 0.14044   -0.591077
 O 0.73392 0.65254 0.10953   -0.667642
 O 0.78527 0.51754 0.00554   -0.582908
 O 0.07764 0.84888 0.19695   -0.676193
 O 0.10551 0.01572 0.12572   -0.586293
 O 0.03015 0.68649 0.02251   -0.683124
 O 0.11568 0.84818 0.96548   -0.60096
 O 0.83505 0.8996 0.05777   -0.667407
 O 0.61635 0.89664 0.09015   -0.597985
 O 0.29148 0.68652 0.25365   -0.670594
 O 0.42286 0.68419 0.13229   -0.599666
 O 0.495 0.87717 0.28015   -0.676626
 O 0.50206 0.04326 0.35956   -0.591077
 O 0.23392 0.84746 0.39047   -0.667642
 O 0.28527 0.98246 0.49446   -0.582908
 O 0.57764 0.65112 0.30305   -0.676193
 O 0.60551 0.48428 0.37428   -0.586293
 O 0.53015 0.81351 0.47749   -0.683124
 O 0.61568 0.65182 0.53452   -0.60096
 O 0.33505 0.6004 0.44223   -0.667407
 O 0.11635 0.60336 0.40985   -0.597985
 O 0.20852 0.18652 0.75365   -0.670594
 O 0.07714 0.18419 0.63229   -0.599666
 O 0.005 0.37717 0.78015   -0.676626
 O 0.99794 0.54326 0.85956   -0.591077
 O 0.26608 0.34746 0.89047   -0.667642
 O 0.21473 0.48246 0.99446   -0.582908
 O 0.92236 0.15112 0.80305   -0.676193
 O 0.89449 0.98428 0.87428   -0.586293
 O 0.96985 0.31351 0.97749   -0.683124
 O 0.88432 0.15182 0.03452   -0.60096
 O 0.16495 0.1004 0.94223   -0.667407
 O 0.38365 0.10336 0.90985   -0.597985
 O 0.70852 0.31348 0.74635   -0.670594
 O 0.57714 0.31581 0.86771   -0.599666
 O 0.505 0.12283 0.71985   -0.676626
 O 0.49794 0.95674 0.64044   -0.591077
 O 0.76608 0.15254 0.60953   -0.667642
 O 0.71473 0.01754 0.50554   -0.582908
 O 0.42236 0.34888 0.69695   -0.676193
 O 0.39449 0.51572 0.62572   -0.586293
 O 0.46985 0.18649 0.52251   -0.683124
 O 0.38432 0.34818 0.46548   -0.60096
 O 0.66495 0.3996 0.55777   -0.667407
 O 0.88365 0.39664 0.59015   -0.597985
