{'_ref': 'TBD', '_srcid': 'CAKYAQ_clean', 'submitters': [{'name': 'Dalar Nazarian Jeff Camp and David Sholl', 'email': 'dalar@gatech.edu jcamp6@gatech.edu'}], '_method': 'VASP DFT with PBE;DDEC'}
data_Mn(CO2)2
_symmetry_space_group_name_H-M   'P 1'
_cell_length_a   10.24380000
_cell_length_b   11.68799971
_cell_length_c   14.89900000
_cell_angle_alpha   91.13759796
_cell_angle_beta   90.00000000
_cell_angle_gamma   90.00000000
_symmetry_Int_Tables_number   1
_chemical_formula_structural   Mn(CO2)2
_chemical_formula_sum   'Mn12 C24 O48'
_cell_volume   1783.49869107
_cell_formula_units_Z   12
loop_
 _symmetry_equiv_pos_site_id
 _symmetry_equiv_pos_as_xyz
  1  'x, y, z'
loop_
 _atom_site_label
 _atom_site_fract_x
 _atom_site_fract_y
 _atom_site_fract_z
 _atom_site_charge
 Mn 0.91357 0.75435 0.1298   1.147488
 Mn 0.10038 0.74027 0.31488   1.156998
 Mn 0.41357 0.74565 0.3702   1.147493
 Mn 0.60038 0.75973 0.18512   1.157002
 Mn 0.08643 0.24565 0.8702   1.147489
 Mn 0.89962 0.25973 0.68512   1.156999
 Mn 0.58643 0.25435 0.6298   1.147494
 Mn 0.39962 0.24027 0.81488   1.157003
 Mn 0.0 0.5 0.0   1.160182
 Mn 0.5 0.0 0.5   1.160183
 Mn 0.0 0.0 0.0   1.157946
 Mn 0.5 0.5 0.5   1.157948
 C 0.8149 0.8214 0.3289   0.386548
 C 0.0092 0.5197 0.2121   0.377725
 C 0.7144 0.5704 0.0522   0.458273
 C 0.119 0.9517 0.1904   0.455
 C 0.0997 0.7426 0.9678   0.444758
 C 0.7199 0.9307 0.0504   0.418643
 C 0.3149 0.6786 0.1711   0.386483
 C 0.5092 0.9803 0.2879   0.377684
 C 0.2144 0.9296 0.4478   0.458346
 C 0.619 0.5483 0.3096   0.455105
 C 0.5997 0.7574 0.5322   0.444733
 C 0.2199 0.5693 0.4496   0.418618
 C 0.1851 0.1786 0.6711   0.386554
 C 0.9908 0.4803 0.7879   0.377685
 C 0.2856 0.4296 0.9478   0.45838
 C 0.881 0.0483 0.8096   0.454998
 C 0.9003 0.2574 0.0322   0.44477
 C 0.2801 0.0693 0.9496   0.418604
 C 0.6851 0.3214 0.8289   0.386488
 C 0.4908 0.0197 0.7121   0.377646
 C 0.7856 0.0704 0.5522   0.458452
 C 0.381 0.4517 0.6904   0.455103
 C 0.4003 0.2426 0.4678   0.444745
 C 0.7801 0.4307 0.5504   0.41858
 O 0.7918 0.80297 0.24617   -0.524583
 O 0.9226 0.8072 0.3662   -0.442889
 O 0.0017 0.6287 0.2187   -0.563633
 O 0.9985 0.4644 0.1416   -0.433335
 O 0.7372 0.6514 0.1082   -0.553619
 O 0.7936 0.5238 0.0023   -0.441667
 O 0.0713 0.8528 0.198   -0.556315
 O 0.0988 0.0173 0.1274   -0.453441
 O 0.028 0.6852 0.0217   -0.576245
 O 0.1032 0.8478 0.9666   -0.45169
 O 0.8386 0.9001 0.0578   -0.553412
 O 0.6261 0.8889 0.0908   -0.453703
 O 0.2918 0.69703 0.25383   -0.524577
 O 0.4226 0.6928 0.1338   -0.442884
 O 0.5017 0.8713 0.2813   -0.56363
 O 0.4985 0.0356 0.3584   -0.433332
 O 0.2372 0.8486 0.3918   -0.553626
 O 0.2936 0.9762 0.4977   -0.441673
 O 0.5713 0.6472 0.302   -0.556326
 O 0.5988 0.4827 0.3726   -0.453449
 O 0.528 0.8148 0.4783   -0.576243
 O 0.6032 0.6522 0.5334   -0.451687
 O 0.3386 0.5999 0.4422   -0.553411
 O 0.1261 0.6111 0.4092   -0.4537
 O 0.2082 0.19703 0.75383   -0.524583
 O 0.0774 0.1928 0.6338   -0.442889
 O 0.9983 0.3713 0.7813   -0.56363
 O 0.0015 0.5356 0.8584   -0.433332
 O 0.2628 0.3486 0.8918   -0.553629
 O 0.2064 0.4762 0.9977   -0.441675
 O 0.9287 0.1472 0.802   -0.556315
 O 0.9012 0.9827 0.8726   -0.453439
 O 0.972 0.3148 0.9783   -0.576246
 O 0.8968 0.1522 0.0334   -0.451689
 O 0.1614 0.0999 0.9422   -0.553409
 O 0.3739 0.1111 0.9092   -0.453699
 O 0.7082 0.30297 0.74617   -0.524577
 O 0.5774 0.3072 0.8662   -0.442884
 O 0.4983 0.1287 0.7187   -0.563627
 O 0.5015 0.9644 0.6416   -0.433329
 O 0.7628 0.1514 0.6082   -0.553635
 O 0.7064 0.0238 0.5023   -0.441681
 O 0.4287 0.3528 0.698   -0.556326
 O 0.4012 0.5173 0.6274   -0.453447
 O 0.472 0.1852 0.5217   -0.576245
 O 0.3968 0.3478 0.4666   -0.451687
 O 0.6614 0.4001 0.5578   -0.553407
 O 0.8739 0.3889 0.5908   -0.453697
