{'_ref': 'TBD', '_srcid': 'CAKYAQ_clean', 'submitters': [{'name': 'Dalar Nazarian Jeff Camp and David Sholl', 'email': 'dalar@gatech.edu jcamp6@gatech.edu'}], '_method': 'VASP DFT with PBE;DDEC'}
data_MnH2(CO2)2
_symmetry_space_group_name_H-M   'P 1'
_cell_length_a   10.12790000
_cell_length_b   11.64950005
_cell_length_c   14.86080000
_cell_angle_alpha   91.67000056
_cell_angle_beta   90.00000000
_cell_angle_gamma   90.00000000
_symmetry_Int_Tables_number   1
_chemical_formula_structural   MnH2(CO2)2
_chemical_formula_sum   'Mn12 H24 C24 O48'
_cell_volume   1752.60634075
_cell_formula_units_Z   12
loop_
 _symmetry_equiv_pos_site_id
 _symmetry_equiv_pos_as_xyz
  1  'x, y, z'
loop_
 _atom_site_label
 _atom_site_fract_x
 _atom_site_fract_y
 _atom_site_fract_z
 _atom_site_charge
 Mn 0.91559 0.75683 0.13115   1.156291
 Mn 0.10029 0.73955 0.31508   1.146938
 Mn 0.41559 0.74317 0.36885   1.156292
 Mn 0.60029 0.76045 0.18492   1.146938
 Mn 0.08441 0.24317 0.86885   1.156291
 Mn 0.89971 0.26045 0.68492   1.146938
 Mn 0.58441 0.25683 0.63115   1.156292
 Mn 0.39971 0.23955 0.81508   1.146938
 Mn 0.0 0.5 0.0   1.159965
 Mn 0.5 0.0 0.5   1.159964
 Mn 0.0 0.0 0.0   1.164491
 Mn 0.5 0.5 0.5   1.16449
 H 0.7494 0.8639 0.3646   -0.005848
 H 0.0234 0.4785 0.265   0.007146
 H 0.6188 0.554 0.0426   0.004637
 H 0.1877 0.9755 0.2323   -0.005187
 H 0.1576 0.6989 0.9288   -0.000262
 H 0.7021 0.9942 0.013   0.005221
 H 0.2494 0.6361 0.1354   -0.005848
 H 0.5234 0.0215 0.235   0.007144
 H 0.1188 0.946 0.4574   0.004637
 H 0.6877 0.5245 0.2677   -0.005187
 H 0.6576 0.8011 0.5712   -0.000262
 H 0.2021 0.5058 0.487   0.00522
 H 0.2506 0.1361 0.6354   -0.005848
 H 0.9766 0.5215 0.735   0.007145
 H 0.3812 0.446 0.9574   0.004632
 H 0.8123 0.0245 0.7677   -0.005186
 H 0.8424 0.3011 0.0712   -0.000261
 H 0.2979 0.0058 0.987   0.005219
 H 0.7506 0.3639 0.8646   -0.005848
 H 0.4766 0.9785 0.765   0.007144
 H 0.8812 0.054 0.5426   0.004632
 H 0.3123 0.4755 0.7323   -0.005187
 H 0.3424 0.1989 0.4288   -0.000261
 H 0.7979 0.4942 0.513   0.005218
 C 0.8186 0.83115 0.32915   0.697131
 C 0.0073 0.519 0.2115   0.686224
 C 0.7093 0.57378 0.04908   0.685789
 C 0.1274 0.94947 0.18717   0.692706
 C 0.1017 0.74269 0.96809   0.70869
 C 0.7184 0.93282 0.05222   0.698042
 C 0.3186 0.66885 0.17085   0.697129
 C 0.5073 0.981 0.2885   0.686224
 C 0.2093 0.92622 0.45092   0.685789
 C 0.6274 0.55053 0.31283   0.692705
 C 0.6017 0.75731 0.53191   0.708689
 C 0.2184 0.56718 0.44778   0.698042
 C 0.1814 0.16885 0.67085   0.697131
 C 0.9927 0.481 0.7885   0.686225
 C 0.2907 0.42622 0.95092   0.68579
 C 0.8726 0.05053 0.81283   0.692706
 C 0.8983 0.25731 0.03191   0.70869
 C 0.2816 0.06718 0.94778   0.698042
 C 0.6814 0.33115 0.82915   0.697129
 C 0.4927 0.019 0.7115   0.686224
 C 0.7907 0.07378 0.54908   0.68579
 C 0.3726 0.44947 0.68717   0.692705
 C 0.3983 0.24269 0.46809   0.708689
 C 0.7816 0.43282 0.55222   0.698043
 O 0.79272 0.80811 0.24728   -0.669588
 O 0.92548 0.81493 0.36767   -0.607019
 O 0.9995 0.62737 0.2193   -0.677586
 O 0.99627 0.46169 0.14175   -0.596242
 O 0.73732 0.65364 0.10609   -0.67489
 O 0.78908 0.51969 0.00144   -0.589434
 O 0.07601 0.85156 0.19747   -0.676535
 O 0.10724 0.01397 0.12488   -0.595203
 O 0.02882 0.68646 0.02115   -0.685655
 O 0.10695 0.8464 0.96261   -0.59857
 O 0.83768 0.90078 0.05982   -0.668102
 O 0.62173 0.89258 0.09046   -0.600918
 O 0.29272 0.69189 0.25272   -0.669588
 O 0.42548 0.68507 0.13233   -0.607018
 O 0.4995 0.87263 0.2807   -0.677586
 O 0.49627 0.03831 0.35825   -0.596242
 O 0.23732 0.84636 0.39391   -0.67489
 O 0.28908 0.98031 0.49856   -0.589434
 O 0.57601 0.64844 0.30253   -0.676534
 O 0.60724 0.48603 0.37512   -0.595203
 O 0.52882 0.81354 0.47885   -0.685655
 O 0.60695 0.6536 0.53739   -0.59857
 O 0.33768 0.59922 0.44018   -0.668102
 O 0.12173 0.60742 0.40954   -0.600918
 O 0.20728 0.19189 0.75272   -0.669588
 O 0.07452 0.18507 0.63233   -0.607019
 O 0.000500000000002 0.37263 0.7807   -0.677586
 O 0.00373 0.53831 0.85825   -0.596242
 O 0.26268 0.34636 0.89391   -0.674891
 O 0.21092 0.48031 0.99856   -0.589434
 O 0.92399 0.14844 0.80253   -0.676535
 O 0.89276 0.98603 0.87512   -0.595203
 O 0.97118 0.31354 0.97885   -0.685655
 O 0.89305 0.1536 0.03739   -0.59857
 O 0.16232 0.09922 0.94018   -0.668102
 O 0.37827 0.10742 0.90954   -0.600918
 O 0.70728 0.30811 0.74728   -0.669588
 O 0.57452 0.31493 0.86767   -0.607018
 O 0.5005 0.12737 0.7193   -0.677586
 O 0.50373 0.96169 0.64175   -0.596242
 O 0.76268 0.15364 0.60609   -0.674891
 O 0.71092 0.01969 0.50144   -0.589434
 O 0.42399 0.35156 0.69747   -0.676534
 O 0.39276 0.51397 0.62488   -0.595203
 O 0.47118 0.18646 0.52115   -0.685655
 O 0.39305 0.3464 0.46261   -0.59857
 O 0.66232 0.40078 0.55982   -0.668102
 O 0.87827 0.39258 0.59046   -0.600918
