{'_ref': 'TBD', '_srcid': 'CAKYAQ_clean', 'submitters': [{'name': 'Dalar Nazarian Jeff Camp and David Sholl', 'email': 'dalar@gatech.edu jcamp6@gatech.edu'}], '_method': 'VASP DFT with PBE;DDEC'}
data_CoPH9C6NO3
_symmetry_space_group_name_H-M   'P 1'
_cell_length_a   6.26309948
_cell_length_b   23.92829998
_cell_length_c   23.92830000
_cell_angle_alpha   119.24739932
_cell_angle_beta   95.00529786
_cell_angle_gamma   95.00530163
_symmetry_Int_Tables_number   1
_chemical_formula_structural   CoPH9C6NO3
_chemical_formula_sum   'Co6 P6 H54 C36 N6 O18'
_cell_volume   3081.94632952
_cell_formula_units_Z   6
loop_
 _symmetry_equiv_pos_site_id
 _symmetry_equiv_pos_as_xyz
  1  'x, y, z'
loop_
 _atom_site_label
 _atom_site_fract_x
 _atom_site_fract_y
 _atom_site_fract_z
 _atom_site_charge
 Co 0.3398 0.72237 0.32773   0.949707
 Co 0.01207 0.67227 0.39464   0.93805
 Co 0.61743 0.60536 0.27763   0.891666
 Co 0.6602 0.27763 0.67227   0.884342
 Co 0.98793 0.32773 0.60536   0.983642
 Co 0.38257 0.39464 0.72237   0.941959
 P 0.82629 0.75812 0.33155   1.421425
 P 0.49474 0.66845 0.42657   1.402052
 P 0.06817 0.57343 0.24188   1.411015
 P 0.17371 0.24188 0.66845   1.413876
 P 0.50526 0.33155 0.57343   1.418058
 P 0.93183 0.42657 0.75812   1.405005
 H 0.46387 0.82223 0.48507   0.068222
 H 0.23402 0.84695 0.45214   0.076308
 H 0.43944 0.94374 0.55408   0.089907
 H 0.69835 0.92853 0.52023   0.099024
 H 0.45941 0.96209 0.38132   0.0867
 H 0.71501 0.94235 0.40797   0.102274
 H 0.26588 0.85528 0.34754   0.080836
 H 0.52877 0.84263 0.31615   0.034251
 H 0.9788 0.51493 0.33716   0.096737
 H 0.78187 0.54786 0.3948   0.080277
 H 0.88536 0.44592 0.38966   0.089218
 H 0.17812 0.47977 0.4083   0.099971
 H 0.07808 0.61868 0.58077   0.08688
 H 0.30704 0.59203 0.53438   0.102575
 H 0.91834 0.65246 0.50774   0.078727
 H 0.21262 0.68385 0.52649   0.089772
 H 0.64164 0.66284 0.17777   0.080251
 H 0.38707 0.6052 0.15305   0.078193
 H 0.49569 0.61034 0.05626   0.087419
 H 0.76982 0.5917 0.07147   0.101302
 H 0.49732 0.41923 0.03791   0.088598
 H 0.77266 0.46562 0.05765   0.106168
 H 0.4106 0.49226 0.14472   0.048469
 H 0.68613 0.47351 0.15737   0.094464
 H 0.76603 0.15276 0.54712   0.080988
 H 0.53495 0.17818 0.51551   0.103166
 H 0.30173 0.07156 0.47972   0.102165
 H 0.56073 0.05616 0.44595   0.091235
 H 0.28494 0.05654 0.59142   0.107268
 H 0.54256 0.03888 0.6195   0.087062
 H 0.47233 0.15684 0.68404   0.094136
 H 0.73444 0.14518 0.6521   0.042497
 H 0.21891 0.45288 0.60564   0.074834
 H 0.01944 0.48449 0.66267   0.083853
 H 0.82201 0.52028 0.59184   0.10237
 H 0.11479 0.55405 0.61021   0.089374
 H 0.69352 0.40858 0.46512   0.082082
 H 0.92306 0.3805 0.41939   0.084658
 H 0.78829 0.31596 0.4728   0.067254
 H 0.08234 0.3479 0.49308   0.057255
 H 0.61327 0.39436 0.84724   0.077296
 H 0.35677 0.33733 0.82182   0.09976
 H 0.23017 0.40816 0.92844   0.102698
 H 0.50458 0.38979 0.94384   0.091992
 H 0.2284 0.53488 0.94346   0.101625
 H 0.50368 0.58061 0.96112   0.085465
 H 0.31549 0.5272 0.84316   0.033251
 H 0.58926 0.50692 0.85482   0.081722
 H 0.73525 0.7946 0.26461   0.395632
 H 0.68064 0.76057 0.50734   0.36857
 H 0.27403 0.49529 0.21239   0.350213
 H 0.93641 0.20859 0.71388   0.351031
 H 0.43254 0.31131 0.47206   0.395647
 H 0.06121 0.53057 0.7984   0.393595
 C 0.7276 0.81 0.4018   -0.780349
 C 0.41814 0.85169 0.46133   -0.002216
 C 0.51561 0.92427 0.50776   -0.213392
 C 0.46967 0.96367 0.47514   -0.009636
 C 0.53114 0.93511 0.40491   -0.163283
 C 0.44891 0.86261 0.36182   -0.036831
 C 0.3258 0.5982 0.4082   -0.705558
 C 0.95681 0.53867 0.39036   -0.028123
 C 0.00785 0.49224 0.41651   -0.206845
 C 0.99453 0.52486 0.48853   0.000131
 C 0.12623 0.59509 0.5302   -0.152368
 C 0.08709 0.63818 0.50079   -0.085687
 C 0.9176 0.5918 0.19   -0.706642
 C 0.56645 0.60964 0.14831   -0.014003
 C 0.59134 0.58349 0.07573   -0.209597
 C 0.506 0.51147 0.03633   -0.01235
 C 0.59603 0.4698 0.06489   -0.151447
 C 0.5863 0.49921 0.13739   -0.074409
 C 0.2724 0.19 0.5982   -0.702028
 C 0.58186 0.14831 0.53867   -0.029054
 C 0.48439 0.07573 0.49224   -0.206887
 C 0.53033 0.03633 0.52486   -0.010521
 C 0.46886 0.06489 0.59509   -0.152796
 C 0.55109 0.13739 0.63818   -0.067301
 C 0.6742 0.4018 0.5918   -0.769538
 C 0.04319 0.46133 0.60964   -0.012155
 C 0.99215 0.50776 0.58349   -0.206464
 C 0.00547 0.47514 0.51147   -0.023035
 C 0.87377 0.40491 0.4698   -0.154468
 C 0.91291 0.36182 0.49921   -0.063008
 C 0.0824 0.4082 0.81   -0.72835
 C 0.43355 0.39036 0.85169   -0.025052
 C 0.40866 0.41651 0.92427   -0.207963
 C 0.494 0.48853 0.96367   -0.008885
 C 0.40397 0.5302 0.93511   -0.162931
 C 0.4137 0.50079 0.86261   -0.038659
 N 0.50104 0.82437 0.39625   0.020296
 N 0.10479 0.60375 0.42812   0.036973
 N 0.67667 0.57188 0.17563   0.030175
 N 0.49896 0.17563 0.60375   0.029525
 N 0.89521 0.39625 0.57188   0.026718
 N 0.32333 0.42812 0.82437   0.020267
 O 0.88563 0.78643 0.28596   -0.654493
 O 0.04074 0.73677 0.35155   -0.788052
 O 0.64511 0.69527 0.29876   -0.793239
 O 0.59967 0.71404 0.50047   -0.648232
 O 0.68919 0.64845 0.38522   -0.809888
 O 0.34635 0.70124 0.39651   -0.792254
 O 0.0992 0.49953 0.21357   -0.640558
 O 0.30397 0.61478 0.26323   -0.824243
 O 0.94984 0.60349 0.30473   -0.767577
 O 0.11437 0.21357 0.71404   -0.640975
 O 0.95926 0.26323 0.64845   -0.82996
 O 0.35489 0.30473 0.70124   -0.769925
 O 0.40033 0.28596 0.49953   -0.65948
 O 0.31081 0.35155 0.61478   -0.808459
 O 0.65365 0.29876 0.60349   -0.77104
 O 0.9008 0.50047 0.78643   -0.651411
 O 0.69603 0.38522 0.73677   -0.774461
 O 0.05016 0.39651 0.69527   -0.804042
