{'_ref': 'TBD', '_srcid': 'CAKYAQ_clean', 'submitters': [{'name': 'Dalar Nazarian Jeff Camp and David Sholl', 'email': 'dalar@gatech.edu jcamp6@gatech.edu'}], '_method': 'VASP DFT with PBE;DDEC'}
data_Zn2H16C20N3O8
_symmetry_space_group_name_H-M   'P 1'
_cell_length_a   13.82240006
_cell_length_b   13.82240021
_cell_length_c   14.37600000
_cell_angle_alpha   61.91820121
_cell_angle_beta   61.91820089
_cell_angle_gamma   79.70990122
_symmetry_Int_Tables_number   1
_chemical_formula_structural   Zn2H16C20N3O8
_chemical_formula_sum   'Zn4 H32 C40 N6 O16'
_cell_volume   2134.77480797
_cell_formula_units_Z   2
loop_
 _symmetry_equiv_pos_site_id
 _symmetry_equiv_pos_as_xyz
  1  'x, y, z'
loop_
 _atom_site_label
 _atom_site_fract_x
 _atom_site_fract_y
 _atom_site_fract_z
 _atom_site_charge
 Zn 0.10439 0.89561 0.5   0.854259
 Zn 0.89561 0.10439 0.5   0.85425
 Zn 0.01934 0.01934 0.08497   0.974111
 Zn 0.98066 0.98066 0.91503   0.974111
 H 0.9259 0.7425 0.541   0.415806
 H 0.0693 0.3777 0.8847   0.099633
 H 0.0741 0.5639 0.7715   0.083219
 H 0.9584 0.511 0.5963   0.078334
 H 0.9595 0.3259 0.7022   0.091253
 H 0.1844 0.8508 0.6936   0.148651
 H 0.1116 0.8292 0.825   0.174072
 H 0.0864 0.7622 0.7755   0.155698
 H 0.2575 0.0741 0.459   0.415806
 H 0.6223 0.9307 0.1153   0.099633
 H 0.4361 0.9259 0.2285   0.083219
 H 0.489 0.0416 0.4037   0.078334
 H 0.6741 0.0405 0.2978   0.091253
 H 0.1492 0.8156 0.3064   0.148651
 H 0.1708 0.8884 0.175   0.174072
 H 0.2378 0.9136 0.2245   0.155698
 H 0.0741 0.2575 0.459   0.415804
 H 0.9307 0.6223 0.1153   0.099632
 H 0.9259 0.4361 0.2285   0.083219
 H 0.0416 0.489 0.4037   0.078334
 H 0.0405 0.6741 0.2978   0.091253
 H 0.8156 0.1492 0.3064   0.148651
 H 0.8884 0.1708 0.175   0.174072
 H 0.9136 0.2378 0.2245   0.155697
 H 0.7425 0.9259 0.541   0.415804
 H 0.3777 0.0693 0.8847   0.099633
 H 0.5639 0.0741 0.7715   0.083219
 H 0.511 0.9584 0.5963   0.078334
 H 0.3259 0.9595 0.7022   0.091253
 H 0.8508 0.1844 0.6936   0.148651
 H 0.8292 0.1116 0.825   0.174072
 H 0.7622 0.0864 0.7755   0.155697
 C 0.0075 0.2091 0.8825   0.684162
 C 0.0144 0.3318 0.8067   -0.121183
 C 0.0485 0.4035 0.8245   -0.061997
 C 0.0536 0.516 0.7544   -0.053749
 C 0.0298 0.557 0.6638   -0.202055
 C 0.9861 0.4841 0.6511   -0.073455
 C 0.983 0.3736 0.7173   -0.067566
 C 0.0385 0.6783 0.5851   0.656803
 C 0.0369 0.9173 0.721   0.483655
 C 0.1114 0.8324 0.7569   -0.462049
 C 0.7909 0.9925 0.1175   0.684162
 C 0.6682 0.9856 0.1933   -0.121183
 C 0.5965 0.9515 0.1755   -0.061997
 C 0.484 0.9464 0.2456   -0.05375
 C 0.443 0.9702 0.3362   -0.202055
 C 0.5159 0.0139 0.3489   -0.073455
 C 0.6264 0.017 0.2827   -0.067565
 C 0.3217 0.9615 0.4149   0.656803
 C 0.0827 0.9631 0.279   0.483655
 C 0.1676 0.8886 0.2431   -0.462049
 C 0.9925 0.7909 0.1175   0.684162
 C 0.9856 0.6682 0.1933   -0.121183
 C 0.9515 0.5965 0.1755   -0.061996
 C 0.9464 0.484 0.2456   -0.05375
 C 0.9702 0.443 0.3362   -0.202055
 C 0.0139 0.5159 0.3489   -0.073455
 C 0.017 0.6264 0.2827   -0.067565
 C 0.9615 0.3217 0.4149   0.656802
 C 0.9631 0.0827 0.279   0.483649
 C 0.8886 0.1676 0.2431   -0.462048
 C 0.2091 0.0075 0.8825   0.684161
 C 0.3318 0.0144 0.8067   -0.121183
 C 0.4035 0.0485 0.8245   -0.061996
 C 0.516 0.0536 0.7544   -0.05375
 C 0.557 0.0298 0.6638   -0.202055
 C 0.4841 0.9861 0.6511   -0.073455
 C 0.3736 0.983 0.7173   -0.067565
 C 0.6783 0.0385 0.5851   0.656802
 C 0.9173 0.0369 0.721   0.483649
 C 0.8324 0.1114 0.7569   -0.462048
 N 0.025 0.949 0.6241   -0.374317
 N 0.051 0.975 0.3759   -0.374317
 N 0.975 0.051 0.3759   -0.374279
 N 0.949 0.025 0.6241   -0.374279
 N 0.9722 0.9722 0.7823   -0.484099
 N 0.0278 0.0278 0.2177   -0.484099
 O 0.0221 0.1775 0.9718   -0.605686
 O 0.9879 0.1477 0.8509   -0.618706
 O 0.0827 0.7367 0.5924   -0.529693
 O 0.9891 0.7143 0.5232   -0.572979
 O 0.8225 0.9779 0.0282   -0.605686
 O 0.8523 0.0121 0.1491   -0.618705
 O 0.2633 0.9173 0.4076   -0.529693
 O 0.2857 0.0109 0.4768   -0.572979
 O 0.9779 0.8225 0.0282   -0.605686
 O 0.0121 0.8523 0.1491   -0.618706
 O 0.9173 0.2633 0.4076   -0.529692
 O 0.0109 0.2857 0.4768   -0.572979
 O 0.1775 0.0221 0.9718   -0.605686
 O 0.1477 0.9879 0.8509   -0.618705
 O 0.7367 0.0827 0.5924   -0.529692
 O 0.7143 0.9891 0.5232   -0.572979
