{'_ref': 'TBD', '_srcid': 'CAKYAQ_clean', 'submitters': [{'name': 'Dalar Nazarian Jeff Camp and David Sholl', 'email': 'dalar@gatech.edu jcamp6@gatech.edu'}], '_method': 'VASP DFT with PBE;DDEC'}
data_Zn2H16C20N3O8
_symmetry_space_group_name_H-M   'P 1'
_cell_length_a   14.05990016
_cell_length_b   14.05990029
_cell_length_c   14.35000000
_cell_angle_alpha   60.97540024
_cell_angle_beta   60.97539993
_cell_angle_gamma   83.89110059
_symmetry_Int_Tables_number   1
_chemical_formula_structural   Zn2H16C20N3O8
_chemical_formula_sum   'Zn4 H32 C40 N6 O16'
_cell_volume   2137.85676012
_cell_formula_units_Z   2
loop_
 _symmetry_equiv_pos_site_id
 _symmetry_equiv_pos_as_xyz
  1  'x, y, z'
loop_
 _atom_site_label
 _atom_site_fract_x
 _atom_site_fract_y
 _atom_site_fract_z
 _atom_site_charge
 Zn 0.98025 0.98025 0.91571   0.965843
 Zn 0.01975 0.01975 0.08429   0.965843
 Zn 0.90049 0.09951 0.5   0.874529
 Zn 0.09951 0.90049 0.5   0.874526
 H 0.623 0.9352 0.1157   0.101497
 H 0.4333 0.9167 0.2392   0.09458
 H 0.4924 0.0362 0.4099   0.073288
 H 0.6795 0.0335 0.3025   0.084668
 H 0.7642 0.066 0.7905   0.160956
 H 0.8549 0.1721 0.6925   0.14242
 H 0.8373 0.1029 0.8259   0.172146
 H 0.2752 0.0686 0.4928   0.503378
 H 0.0648 0.377 0.8843   0.101497
 H 0.0833 0.5667 0.7608   0.09458
 H 0.9638 0.5076 0.5901   0.073288
 H 0.9665 0.3205 0.6975   0.084668
 H 0.934 0.2358 0.2095   0.160956
 H 0.8279 0.1451 0.3075   0.14242
 H 0.8971 0.1627 0.1741   0.172146
 H 0.9314 0.7248 0.5072   0.503378
 H 0.377 0.0648 0.8843   0.101497
 H 0.5667 0.0833 0.7608   0.094581
 H 0.5076 0.9638 0.5901   0.073288
 H 0.3205 0.9665 0.6975   0.084668
 H 0.2358 0.934 0.2095   0.160957
 H 0.1451 0.8279 0.3075   0.14242
 H 0.1627 0.8971 0.1741   0.172146
 H 0.7248 0.9314 0.5072   0.503376
 H 0.9352 0.623 0.1157   0.101497
 H 0.9167 0.4333 0.2392   0.094581
 H 0.0362 0.4924 0.4099   0.073288
 H 0.0335 0.6795 0.3025   0.084668
 H 0.066 0.7642 0.7905   0.160957
 H 0.1721 0.8549 0.6925   0.14242
 H 0.1029 0.8373 0.8259   0.172146
 H 0.0686 0.2752 0.4928   0.503376
 C 0.7908 0.987 0.1257   0.68824
 C 0.6694 0.9846 0.1987   -0.129934
 C 0.5966 0.9524 0.178   -0.063291
 C 0.4822 0.9448 0.2496   -0.06365
 C 0.4434 0.9784 0.3334   -0.198808
 C 0.5179 0.0129 0.3525   -0.081078
 C 0.6308 0.0134 0.2862   -0.067811
 C 0.3206 0.9714 0.4101   0.67011
 C 0.9185 0.0311 0.7228   0.487558
 C 0.8365 0.0991 0.7613   -0.462335
 C 0.013 0.2092 0.8743   0.688239
 C 0.0154 0.3306 0.8013   -0.129934
 C 0.0476 0.4034 0.822   -0.06329
 C 0.0552 0.5178 0.7504   -0.063651
 C 0.0216 0.5566 0.6666   -0.198807
 C 0.9871 0.4821 0.6475   -0.081078
 C 0.9866 0.3692 0.7138   -0.067809
 C 0.0286 0.6794 0.5899   0.67011
 C 0.9689 0.0815 0.2772   0.487558
 C 0.9009 0.1635 0.2387   -0.462334
 C 0.2092 0.013 0.8743   0.688239
 C 0.3306 0.0154 0.8013   -0.129934
 C 0.4034 0.0476 0.822   -0.06329
 C 0.5178 0.0552 0.7504   -0.063651
 C 0.5566 0.0216 0.6666   -0.198807
 C 0.4821 0.9871 0.6475   -0.081078
 C 0.3692 0.9866 0.7138   -0.067811
 C 0.6794 0.0286 0.5899   0.67011
 C 0.0815 0.9689 0.2772   0.487557
 C 0.1635 0.9009 0.2387   -0.462335
 C 0.987 0.7908 0.1257   0.688239
 C 0.9846 0.6694 0.1987   -0.129934
 C 0.9524 0.5966 0.178   -0.06329
 C 0.9448 0.4822 0.2496   -0.063651
 C 0.9784 0.4434 0.3334   -0.198807
 C 0.0129 0.5179 0.3525   -0.081078
 C 0.0134 0.6308 0.2862   -0.067809
 C 0.9714 0.3206 0.4101   0.67011
 C 0.0311 0.9185 0.7228   0.487557
 C 0.0991 0.8365 0.7613   -0.462334
 N 0.9486 0.0228 0.6253   -0.370665
 N 0.9772 0.0514 0.3747   -0.370665
 N 0.0514 0.9772 0.3747   -0.370656
 N 0.0228 0.9486 0.6253   -0.370656
 N 0.9698 0.9698 0.7842   -0.502722
 N 0.0302 0.0302 0.2158   -0.502722
 O 0.8214 0.9732 0.035   -0.614848
 O 0.8512 0.0026 0.158   -0.612744
 O 0.2579 0.9279 0.4015   -0.543547
 O 0.289 0.0166 0.4746   -0.638962
 O 0.0268 0.1786 0.965   -0.614848
 O 0.9974 0.1488 0.842   -0.612744
 O 0.0721 0.7421 0.5985   -0.543547
 O 0.9834 0.711 0.5254   -0.638962
 O 0.1786 0.0268 0.965   -0.614848
 O 0.1488 0.9974 0.842   -0.612744
 O 0.7421 0.0721 0.5985   -0.543548
 O 0.711 0.9834 0.5254   -0.638961
 O 0.9732 0.8214 0.035   -0.614848
 O 0.0026 0.8512 0.158   -0.612744
 O 0.9279 0.2579 0.4015   -0.543548
 O 0.0166 0.289 0.4746   -0.638961
