{'_ref': 'TBD', '_srcid': 'CAKYAQ_clean', 'submitters': [{'name': 'Dalar Nazarian Jeff Camp and David Sholl', 'email': 'dalar@gatech.edu jcamp6@gatech.edu'}], '_method': 'VASP DFT with PBE;DDEC'}
data_CdH8C12(NO2)2
_symmetry_space_group_name_H-M   'P 1'
_cell_length_a   12.33970000
_cell_length_b   15.50500000
_cell_length_c   18.94370000
_cell_angle_alpha   90.00000000
_cell_angle_beta   90.00000000
_cell_angle_gamma   90.00000000
_symmetry_Int_Tables_number   1
_chemical_formula_structural   CdH8C12(NO2)2
_chemical_formula_sum   'Cd8 H64 C96 N16 O32'
_cell_volume   3624.44220867
_cell_formula_units_Z   8
loop_
 _symmetry_equiv_pos_site_id
 _symmetry_equiv_pos_as_xyz
  1  'x, y, z'
loop_
 _atom_site_label
 _atom_site_fract_x
 _atom_site_fract_y
 _atom_site_fract_z
 _atom_site_charge
 Cd 0.68866 0.784 0.31782   0.930734
 Cd 0.31134 0.284 0.18218   0.930734
 Cd 0.81134 0.216 0.81782   0.930734
 Cd 0.18866 0.716 0.68218   0.930734
 Cd 0.31134 0.216 0.68218   0.930734
 Cd 0.68866 0.716 0.81782   0.930734
 Cd 0.18866 0.784 0.18218   0.930734
 Cd 0.81134 0.284 0.31782   0.930734
 H 0.307 0.0768 0.1581   0.090752
 H 0.3957 0.9501 0.1844   0.135383
 H 0.5807 0.0828 0.3204   0.12186
 H 0.4879 0.2055 0.2894   0.077315
 H 0.3451 0.1771 0.0343   0.075023
 H 0.4597 0.158 0.9403   0.136961
 H 0.6159 0.3708 0.9996   0.132165
 H 0.5006 0.3816 0.0937   0.073298
 H 0.693 0.5768 0.3419   0.090752
 H 0.6043 0.4501 0.3156   0.135383
 H 0.4193 0.5828 0.1796   0.12186
 H 0.5121 0.7055 0.2106   0.077315
 H 0.6549 0.6771 0.4657   0.075023
 H 0.5403 0.658 0.5597   0.136961
 H 0.3841 0.8708 0.5004   0.132165
 H 0.4994 0.8816 0.4063   0.073297
 H 0.1549 0.8229 0.5343   0.075023
 H 0.0403 0.842 0.4403   0.136961
 H 0.8841 0.6292 0.4996   0.132165
 H 0.9994 0.6184 0.5937   0.073298
 H 0.193 0.9232 0.6581   0.090752
 H 0.1043 0.0499 0.6844   0.135383
 H 0.9193 0.9172 0.8204   0.12186
 H 0.0121 0.7945 0.7894   0.077315
 H 0.8451 0.3229 0.9657   0.075023
 H 0.9597 0.342 0.0597   0.136961
 H 0.1159 0.1292 0.000399999999999   0.132165
 H 0.000599999999999 0.1184 0.9063   0.073297
 H 0.807 0.4232 0.8419   0.090752
 H 0.8957 0.5499 0.8156   0.135383
 H 0.0807 0.4172 0.6796   0.12186
 H 0.9879 0.2945 0.7106   0.077315
 H 0.693 0.9232 0.8419   0.090752
 H 0.6043 0.0499 0.8156   0.135383
 H 0.4193 0.9172 0.6796   0.12186
 H 0.5121 0.7945 0.7106   0.077315
 H 0.6549 0.8229 0.9657   0.075023
 H 0.5403 0.842 0.0597   0.13696
 H 0.3841 0.6292 0.000399999999999   0.132165
 H 0.4994 0.6184 0.9063   0.073297
 H 0.307 0.4232 0.6581   0.090752
 H 0.3957 0.5499 0.6844   0.135383
 H 0.5807 0.4172 0.8204   0.12186
 H 0.4879 0.2945 0.7894   0.077315
 H 0.3451 0.3229 0.5343   0.075023
 H 0.4597 0.342 0.4403   0.13696
 H 0.6159 0.1292 0.4996   0.132165
 H 0.5006 0.1184 0.5937   0.073297
 H 0.8451 0.1771 0.4657   0.075023
 H 0.9597 0.158 0.5597   0.136961
 H 0.1159 0.3708 0.5004   0.132165
 H 0.000599999999999 0.3816 0.4063   0.073298
 H 0.807 0.0768 0.3419   0.090752
 H 0.8957 0.9501 0.3156   0.135383
 H 0.0807 0.0828 0.1796   0.12186
 H 0.9879 0.2055 0.2106   0.077315
 H 0.1549 0.6771 0.0343   0.075023
 H 0.0403 0.658 0.9403   0.136961
 H 0.8841 0.8708 0.9996   0.132165
 H 0.9994 0.8816 0.0937   0.073297
 H 0.193 0.5768 0.1581   0.090752
 H 0.1043 0.4501 0.1844   0.135383
 H 0.9193 0.5828 0.3204   0.12186
 H 0.0121 0.7055 0.2894   0.077315
 C 0.3633 0.07798 0.19072   0.164888
 C 0.41608 0.00129 0.20631   -0.137788
 C 0.49949 0.00244 0.25491   -0.009215
 C 0.52584 0.08016 0.28683   -0.153813
 C 0.46936 0.15357 0.26792   0.159689
 C 0.56133 0.92144 0.27417   0.614174
 C 0.40185 0.21581 0.02809   0.15709
 C 0.47017 0.20392 0.9711   -0.160539
 C 0.55386 0.26105 0.96064   0.008509
 C 0.56265 0.32916 0.0064   -0.16839
 C 0.49217 0.33567 0.06258   0.167669
 C 0.63778 0.24714 0.90394   0.607222
 C 0.6367 0.57798 0.30928   0.164888
 C 0.58392 0.50129 0.29369   -0.137788
 C 0.50051 0.50244 0.24509   -0.009215
 C 0.47416 0.58016 0.21317   -0.153813
 C 0.53064 0.65357 0.23208   0.159689
 C 0.43867 0.42144 0.22583   0.614174
 C 0.59815 0.71581 0.47191   0.15709
 C 0.52983 0.70392 0.5289   -0.160539
 C 0.44614 0.76105 0.53936   0.008509
 C 0.43735 0.82916 0.4936   -0.16839
 C 0.50783 0.83567 0.43742   0.167669
 C 0.36222 0.74714 0.59606   0.607222
 C 0.09815 0.78419 0.52809   0.15709
 C 0.02983 0.79608 0.4711   -0.160539
 C 0.94614 0.73895 0.46064   0.008509
 C 0.93735 0.67084 0.5064   -0.16839
 C 0.00783 0.66433 0.56258   0.167669
 C 0.86222 0.75286 0.40394   0.607222
 C 0.1367 0.92202 0.69072   0.164888
 C 0.08392 0.99871 0.70631   -0.137788
 C 0.000509999999999 0.99756 0.75491   -0.009215
 C 0.97416 0.91984 0.78683   -0.153813
 C 0.03064 0.84643 0.76792   0.159689
 C 0.93867 0.07856 0.77417   0.614174
 C 0.90185 0.28419 0.97191   0.15709
 C 0.97017 0.29608 0.0289   -0.160539
 C 0.05386 0.23895 0.03936   0.008509
 C 0.06265 0.17084 0.9936   -0.16839
 C 0.99217 0.16433 0.93742   0.167669
 C 0.13778 0.25286 0.09606   0.607222
 C 0.8633 0.42202 0.80928   0.164888
 C 0.91608 0.49871 0.79369   -0.137788
 C 0.99949 0.49756 0.74509   -0.009215
 C 0.02584 0.41984 0.71317   -0.153813
 C 0.96936 0.34643 0.73208   0.159689
 C 0.06133 0.57856 0.72583   0.614174
 C 0.6367 0.92202 0.80928   0.164888
 C 0.58392 0.99871 0.79369   -0.137788
 C 0.50051 0.99756 0.74509   -0.009215
 C 0.47416 0.91984 0.71317   -0.153813
 C 0.53064 0.84643 0.73208   0.159689
 C 0.43867 0.07856 0.72583   0.614174
 C 0.59815 0.78419 0.97191   0.15709
 C 0.52983 0.79608 0.0289   -0.160539
 C 0.44614 0.73895 0.03936   0.008509
 C 0.43735 0.67084 0.9936   -0.16839
 C 0.50783 0.66433 0.93742   0.167669
 C 0.36222 0.75286 0.09606   0.607222
 C 0.3633 0.42202 0.69072   0.164888
 C 0.41608 0.49871 0.70631   -0.137788
 C 0.49949 0.49756 0.75491   -0.009215
 C 0.52584 0.41984 0.78683   -0.153813
 C 0.46936 0.34643 0.76792   0.159689
 C 0.56133 0.57856 0.77417   0.614174
 C 0.40185 0.28419 0.52809   0.15709
 C 0.47017 0.29608 0.4711   -0.160539
 C 0.55386 0.23895 0.46064   0.008509
 C 0.56265 0.17084 0.5064   -0.16839
 C 0.49217 0.16433 0.56258   0.167669
 C 0.63778 0.25286 0.40394   0.607222
 C 0.90185 0.21581 0.47191   0.15709
 C 0.97017 0.20392 0.5289   -0.160539
 C 0.05386 0.26105 0.53936   0.008509
 C 0.06265 0.32916 0.4936   -0.16839
 C 0.99217 0.33567 0.43742   0.167669
 C 0.13778 0.24714 0.59606   0.607222
 C 0.8633 0.07798 0.30928   0.164888
 C 0.91608 0.00129 0.29369   -0.137788
 C 0.99949 0.00244 0.24509   -0.009215
 C 0.02584 0.08016 0.21317   -0.153813
 C 0.96936 0.15357 0.23208   0.159689
 C 0.06133 0.92144 0.22583   0.614174
 C 0.09815 0.71581 0.02809   0.15709
 C 0.02983 0.70392 0.9711   -0.160539
 C 0.94614 0.76105 0.96064   0.008509
 C 0.93735 0.82916 0.0064   -0.16839
 C 0.00783 0.83567 0.06258   0.167669
 C 0.86222 0.74714 0.90394   0.607222
 C 0.1367 0.57798 0.19072   0.164888
 C 0.08392 0.50129 0.20631   -0.137788
 C 0.000509999999999 0.50244 0.25491   -0.009215
 C 0.97416 0.58016 0.28683   -0.153813
 C 0.03064 0.65357 0.26792   0.159689
 C 0.93867 0.42144 0.27417   0.614174
 N 0.38933 0.15374 0.22034   -0.367993
 N 0.41285 0.27958 0.07449   -0.346114
 N 0.61067 0.65374 0.27966   -0.367993
 N 0.58715 0.77958 0.42551   -0.346114
 N 0.08715 0.72042 0.57449   -0.346114
 N 0.11067 0.84626 0.72034   -0.367993
 N 0.91285 0.22042 0.92551   -0.346114
 N 0.88933 0.34626 0.77966   -0.367993
 N 0.61067 0.84626 0.77966   -0.367993
 N 0.58715 0.72042 0.92551   -0.346114
 N 0.38933 0.34626 0.72034   -0.367993
 N 0.41285 0.22042 0.57449   -0.346114
 N 0.91285 0.27958 0.42551   -0.346114
 N 0.88933 0.15374 0.27966   -0.367993
 N 0.08715 0.77958 0.07449   -0.346114
 N 0.11067 0.65374 0.22034   -0.367993
 O 0.52159 0.84993 0.25883   -0.599636
 O 0.64893 0.93015 0.30586   -0.565628
 O 0.65422 0.17189 0.88337   -0.561056
 O 0.69024 0.31116 0.88292   -0.582562
 O 0.47841 0.34993 0.24117   -0.599636
 O 0.35107 0.43015 0.19414   -0.565628
 O 0.34578 0.67189 0.61663   -0.561056
 O 0.30976 0.81116 0.61708   -0.582562
 O 0.84578 0.82811 0.38337   -0.561056
 O 0.80976 0.68884 0.38292   -0.582562
 O 0.97841 0.15007 0.75883   -0.599636
 O 0.85107 0.06985 0.80586   -0.565628
 O 0.15422 0.32811 0.11663   -0.561056
 O 0.19024 0.18884 0.11708   -0.582562
 O 0.02159 0.65007 0.74117   -0.599636
 O 0.14893 0.56985 0.69414   -0.565628
 O 0.47841 0.15007 0.74117   -0.599636
 O 0.35107 0.06985 0.69414   -0.565628
 O 0.34578 0.82811 0.11663   -0.561056
 O 0.30976 0.68884 0.11708   -0.582562
 O 0.52159 0.65007 0.75883   -0.599636
 O 0.64893 0.56985 0.80586   -0.565628
 O 0.65422 0.32811 0.38337   -0.561056
 O 0.69024 0.18884 0.38292   -0.582562
 O 0.15422 0.17189 0.61663   -0.561056
 O 0.19024 0.31116 0.61708   -0.582562
 O 0.02159 0.84993 0.24117   -0.599636
 O 0.14893 0.93015 0.19414   -0.565628
 O 0.84578 0.67189 0.88337   -0.561056
 O 0.80976 0.81116 0.88292   -0.582562
 O 0.97841 0.34993 0.25883   -0.599636
 O 0.85107 0.43015 0.30586   -0.565628
