{'_ref': 'TBD', '_srcid': 'CAKYAQ_clean', 'submitters': [{'name': 'Dalar Nazarian Jeff Camp and David Sholl', 'email': 'dalar@gatech.edu jcamp6@gatech.edu'}], '_method': 'VASP DFT with PBE;DDEC'}
data_Ag2PH12C6N3O
_symmetry_space_group_name_H-M   'P 1'
_cell_length_a   6.90080000
_cell_length_b   10.35510000
_cell_length_c   16.65970000
_cell_angle_alpha   90.00000000
_cell_angle_beta   90.00000000
_cell_angle_gamma   90.00000000
_symmetry_Int_Tables_number   1
_chemical_formula_structural   Ag2PH12C6N3O
_chemical_formula_sum   'Ag8 P4 H48 C24 N12 O4'
_cell_volume   1190.47674063
_cell_formula_units_Z   4
loop_
 _symmetry_equiv_pos_site_id
 _symmetry_equiv_pos_as_xyz
  1  'x, y, z'
loop_
 _atom_site_label
 _atom_site_fract_x
 _atom_site_fract_y
 _atom_site_fract_z
 _atom_site_charge
 Ag 0.6116 0.0134 0.28457   -0.103077
 Ag 0.37773 0.22839 0.9284   -0.368926
 Ag 0.1116 0.5134 0.21543   -0.103077
 Ag 0.87773 0.72839 0.5716   -0.368926
 Ag 0.1116 0.9866 0.71543   -0.103079
 Ag 0.87773 0.77161 0.0716   -0.368928
 Ag 0.6116 0.4866 0.78457   -0.103079
 Ag 0.37773 0.27161 0.4284   -0.368928
 P 0.00389 0.06061 0.15152   0.891288
 P 0.50389 0.56061 0.34848   0.891287
 P 0.50389 0.93939 0.84848   0.891288
 P 0.00389 0.43939 0.65152   0.891287
 H 0.1716 0.0109 0.2678   0.126328
 H 0.2527 0.9288 0.1959   0.123357
 H 0.8749 0.2675 0.1461   0.139278
 H 0.9221 0.231 0.2356   0.124263
 H 0.1603 0.9948 0.0352   0.141447
 H 0.0239 0.1125 0.0163   0.139282
 H 0.5488 0.1679 0.1129   0.075131
 H 0.467 0.0286 0.0988   0.088621
 H 0.1229 0.3289 0.0568   0.065537
 H 0.3349 0.3551 0.0861   0.060503
 H 0.2571 0.2338 0.2811   0.071787
 H 0.4194 0.2959 0.2279   0.07415
 H 0.6716 0.5109 0.2322   0.126326
 H 0.7527 0.4288 0.3041   0.123355
 H 0.3749 0.7675 0.3539   0.139277
 H 0.4221 0.731 0.2644   0.124261
 H 0.6603 0.4948 0.4648   0.141447
 H 0.5239 0.6125 0.4837   0.139282
 H 0.0488 0.6679 0.3871   0.075131
 H 0.967 0.5286 0.4012   0.088621
 H 0.6229 0.8289 0.4432   0.065537
 H 0.8349 0.8551 0.4139   0.060502
 H 0.7571 0.7338 0.2189   0.071787
 H 0.9194 0.7959 0.2721   0.07415
 H 0.6716 0.9891 0.7322   0.126328
 H 0.7527 0.0712 0.8041   0.123357
 H 0.3749 0.7325 0.8539   0.139278
 H 0.4221 0.769 0.7644   0.124263
 H 0.6603 0.0052 0.9648   0.141447
 H 0.5239 0.8875 0.9837   0.139281
 H 0.0488 0.8321 0.8871   0.075131
 H 0.967 0.9714 0.9012   0.088621
 H 0.6229 0.6711 0.9432   0.065536
 H 0.8349 0.6449 0.9139   0.060503
 H 0.7571 0.7662 0.7189   0.071787
 H 0.9194 0.7041 0.7721   0.07415
 H 0.1716 0.4891 0.7678   0.126326
 H 0.2527 0.5712 0.6959   0.123355
 H 0.8749 0.2325 0.6461   0.139277
 H 0.9221 0.269 0.7356   0.124261
 H 0.1603 0.5052 0.5352   0.141447
 H 0.0239 0.3875 0.5163   0.139281
 H 0.5488 0.3321 0.6129   0.075131
 H 0.467 0.4714 0.5988   0.088621
 H 0.1229 0.1711 0.5568   0.065536
 H 0.3349 0.1449 0.5861   0.060502
 H 0.2571 0.2662 0.7811   0.071787
 H 0.4194 0.2041 0.7279   0.07415
 C 0.2089 0.0142 0.2117   -0.337969
 C 0.97 0.2271 0.1809   -0.347747
 C 0.1168 0.0783 0.0544   -0.349977
 C 0.4331 0.115 0.1164   0.027508
 C 0.2259 0.2965 0.091   0.032317
 C 0.3072 0.2394 0.2268   0.030018
 C 0.7089 0.5142 0.2883   -0.337967
 C 0.47 0.7271 0.3191   -0.347746
 C 0.6168 0.5783 0.4456   -0.349977
 C 0.9331 0.615 0.3836   0.027508
 C 0.7259 0.7965 0.409   0.032317
 C 0.8072 0.7394 0.2732   0.030018
 C 0.7089 0.9858 0.7883   -0.337969
 C 0.47 0.7729 0.8191   -0.347747
 C 0.6168 0.9217 0.9456   -0.349977
 C 0.9331 0.885 0.8836   0.027508
 C 0.7259 0.7035 0.909   0.032317
 C 0.8072 0.7606 0.7732   0.030018
 C 0.2089 0.4858 0.7117   -0.337967
 C 0.97 0.2729 0.6809   -0.347746
 C 0.1168 0.4217 0.5544   -0.349977
 C 0.4331 0.385 0.6164   0.027508
 C 0.2259 0.2035 0.591   0.032317
 C 0.3072 0.2606 0.7268   0.030018
 N 0.3696 0.1093 0.20087   -0.077307
 N 0.2854 0.168 0.0614   -0.031736
 N 0.1579 0.2977 0.17501   -0.048097
 N 0.8696 0.6093 0.29913   -0.077308
 N 0.7854 0.668 0.4386   -0.031736
 N 0.6579 0.7977 0.32499   -0.048097
 N 0.8696 0.8907 0.79913   -0.077307
 N 0.7854 0.832 0.9386   -0.031736
 N 0.6579 0.7023 0.82499   -0.048097
 N 0.3696 0.3907 0.70087   -0.077307
 N 0.2854 0.332 0.5614   -0.031736
 N 0.1579 0.2023 0.67501   -0.048097
 O 0.8293 0.9753 0.15552   -0.545973
 O 0.3293 0.4753 0.34448   -0.545973
 O 0.3293 0.0247 0.84448   -0.545973
 O 0.8293 0.5247 0.65552   -0.545973
