{'_ref': 'TBD', '_srcid': 'CAKYAQ_clean', 'submitters': [{'name': 'Dalar Nazarian Jeff Camp and David Sholl', 'email': 'dalar@gatech.edu jcamp6@gatech.edu'}], '_method': 'VASP DFT with PBE;DDEC'}
data_CdH2C2N3Cl
_symmetry_space_group_name_H-M   'P 1'
_cell_length_a   11.15300000
_cell_length_b   11.45439967
_cell_length_c   11.45440000
_cell_angle_alpha   120.00000096
_cell_angle_beta   90.00000000
_cell_angle_gamma   90.00000000
_symmetry_Int_Tables_number   1
_chemical_formula_structural   CdH2C2N3Cl
_chemical_formula_sum   'Cd6 H12 C12 N18 Cl6'
_cell_volume   1267.26373571
_cell_formula_units_Z   6
loop_
 _symmetry_equiv_pos_site_id
 _symmetry_equiv_pos_as_xyz
  1  'x, y, z'
loop_
 _atom_site_label
 _atom_site_fract_x
 _atom_site_fract_y
 _atom_site_fract_z
 _atom_site_charge
 Cd 0.25 0.38572 0.61428   0.810719
 Cd 0.58333 0.22856 0.61428   0.810664
 Cd 0.91667 0.38572 0.77144   0.810621
 Cd 0.75 0.61428 0.38572   0.810717
 Cd 0.08333 0.77144 0.38572   0.810662
 Cd 0.41667 0.61428 0.22856   0.810619
 H 0.2243 0.0513 0.4274   0.059005
 H 0.55763 0.3761 0.9487   0.058961
 H 0.89097 0.5726 0.6239   0.059001
 H 0.7243 0.9487 0.5726   0.059005
 H 0.05763 0.6239 0.0513   0.058961
 H 0.39097 0.4274 0.3761   0.059001
 H 0.10903 0.6239 0.5726   0.059001
 H 0.7757 0.4274 0.0513   0.059014
 H 0.44237 0.9487 0.3761   0.058961
 H 0.60903 0.3761 0.4274   0.059001
 H 0.2757 0.5726 0.9487   0.059014
 H 0.94237 0.0513 0.6239   0.058961
 C 0.1597 0.0797 0.4867   0.276342
 C 0.49303 0.407 0.9203   0.276391
 C 0.82637 0.5133 0.593   0.276421
 C 0.6597 0.9203 0.5133   0.276342
 C 0.99303 0.593 0.0797   0.276391
 C 0.32637 0.4867 0.407   0.276422
 C 0.17363 0.593 0.5133   0.276415
 C 0.8403 0.4867 0.0797   0.276328
 C 0.50697 0.9203 0.407   0.276384
 C 0.67363 0.407 0.4867   0.276415
 C 0.3403 0.5133 0.9203   0.276328
 C 0.00697 0.0797 0.593   0.276384
 N 0.13337 0.20747 0.56937   -0.269015
 N 0.4667 0.3619 0.79253   -0.268956
 N 0.80004 0.43063 0.6381   -0.268992
 N 0.63337 0.79253 0.43063   -0.269015
 N 0.9667 0.6381 0.20747   -0.268955
 N 0.30004 0.56937 0.3619   -0.268992
 N 0.19996 0.6381 0.43063   -0.268992
 N 0.86663 0.56937 0.20747   -0.269004
 N 0.5333 0.79253 0.3619   -0.268931
 N 0.69996 0.3619 0.56937   -0.268992
 N 0.36663 0.43063 0.79253   -0.269004
 N 0.0333 0.20747 0.6381   -0.268931
 N 0.08333 0.9953 0.49765   -0.437309
 N 0.41667 0.50235 0.0047   -0.437298
 N 0.75 0.50235 0.49765   -0.437456
 N 0.58333 0.0047 0.50235   -0.437309
 N 0.91667 0.49765 0.9953   -0.437299
 N 0.25 0.49765 0.50235   -0.437456
 Cl 0.08333 0.55039 0.7752   -0.506084
 Cl 0.41667 0.22481 0.44962   -0.506085
 Cl 0.75 0.22481 0.7752   -0.506118
 Cl 0.58333 0.44961 0.2248   -0.506074
 Cl 0.91667 0.77519 0.55038   -0.506075
 Cl 0.25 0.77519 0.2248   -0.506109
