{'_ref': 'TBD', '_srcid': 'CAKYAQ_clean', 'submitters': [{'name': 'Dalar Nazarian Jeff Camp and David Sholl', 'email': 'dalar@gatech.edu jcamp6@gatech.edu'}], '_method': 'VASP DFT with PBE;DDEC'}
data_CeH3(C3O2)3
_symmetry_space_group_name_H-M   'P 1'
_cell_length_a   10.69940000
_cell_length_b   12.19609973
_cell_length_c   13.67730000
_cell_angle_alpha   90.00000000
_cell_angle_beta   90.00000000
_cell_angle_gamma   101.57400119
_symmetry_Int_Tables_number   1
_chemical_formula_structural   CeH3(C3O2)3
_chemical_formula_sum   'Ce4 H12 C36 O24'
_cell_volume   1748.47317139
_cell_formula_units_Z   4
loop_
 _symmetry_equiv_pos_site_id
 _symmetry_equiv_pos_as_xyz
  1  'x, y, z'
loop_
 _atom_site_label
 _atom_site_fract_x
 _atom_site_fract_y
 _atom_site_fract_z
 _atom_site_charge
 Ce 0.37694 0.60434 0.96391   2.212454
 Ce 0.12306 0.89566 0.46391   2.212453
 Ce 0.62306 0.39566 0.03609   2.212454
 Ce 0.87694 0.10434 0.53609   2.212453
 H 0.0715 0.3904 0.0691   0.102887
 H 0.879 0.1736 0.2622   0.086018
 H 0.2433 0.1666 0.1982   0.112825
 H 0.4285 0.1096 0.5691   0.102887
 H 0.621 0.3264 0.7622   0.086018
 H 0.2567 0.3334 0.6982   0.112825
 H 0.9285 0.6096 0.9309   0.102887
 H 0.121 0.8264 0.7378   0.086018
 H 0.7567 0.8334 0.8018   0.112825
 H 0.5715 0.8904 0.4309   0.102887
 H 0.379 0.6736 0.2378   0.086018
 H 0.7433 0.6666 0.3018   0.112825
 C 0.3007 0.3416 0.076   0.784012
 C 0.1782 0.2867 0.1276   -0.180872
 C 0.0687 0.3305 0.1118   0.022219
 C 0.9552 0.2847 0.1597   -0.135543
 C 0.9531 0.2006 0.227   0.005294
 C 0.0612 0.1554 0.2429   -0.180896
 C 0.172 0.1986 0.1903   0.034004
 C 0.0607 0.0632 0.3154   0.781247
 C 0.8386 0.331 0.1342   0.669821
 C 0.1993 0.1584 0.576   0.784012
 C 0.3218 0.2133 0.6276   -0.180872
 C 0.4313 0.1695 0.6118   0.022219
 C 0.5448 0.2153 0.6597   -0.135543
 C 0.5469 0.2994 0.727   0.005294
 C 0.4388 0.3446 0.7429   -0.180896
 C 0.328 0.3014 0.6903   0.034004
 C 0.4393 0.4368 0.8154   0.781247
 C 0.6614 0.169 0.6342   0.669821
 C 0.6993 0.6584 0.924   0.784012
 C 0.8218 0.7133 0.8724   -0.180872
 C 0.9313 0.6695 0.8882   0.022219
 C 0.0448 0.7153 0.8403   -0.135543
 C 0.0469 0.7994 0.773   0.005294
 C 0.9388 0.8446 0.7571   -0.180896
 C 0.828 0.8014 0.8097   0.034003
 C 0.9393 0.9368 0.6846   0.781247
 C 0.1614 0.669 0.8658   0.669821
 C 0.8007 0.8416 0.424   0.784012
 C 0.6782 0.7867 0.3724   -0.180872
 C 0.5687 0.8305 0.3882   0.022219
 C 0.4552 0.7847 0.3403   -0.135543
 C 0.4531 0.7006 0.273   0.005294
 C 0.5612 0.6554 0.2571   -0.180896
 C 0.672 0.6986 0.3097   0.034003
 C 0.5607 0.5632 0.1846   0.781247
 C 0.3386 0.831 0.3658   0.669821
 O 0.2896 0.4117 0.011   -0.731518
 O 0.4022 0.3133 0.0999   -0.715664
 O 0.8522 0.4277 0.1009   -0.648586
 O 0.7289 0.2671 0.1428   -0.721877
 O 0.9884 0.0585 0.39   -0.885307
 O 0.1335 0.9976 0.3027   -0.610517
 O 0.2104 0.0883 0.511   -0.731518
 O 0.0978 0.1867 0.5999   -0.715664
 O 0.6478 0.0723 0.6009   -0.648586
 O 0.7711 0.2329 0.6428   -0.721877
 O 0.5116 0.4415 0.89   -0.885307
 O 0.3665 0.5024 0.8027   -0.610517
 O 0.7104 0.5883 0.989   -0.731518
 O 0.5978 0.6867 0.9001   -0.715664
 O 0.1478 0.5723 0.8991   -0.648586
 O 0.2711 0.7329 0.8572   -0.721877
 O 0.0116 0.9415 0.61   -0.885307
 O 0.8665 0.0024 0.6973   -0.610517
 O 0.7896 0.9117 0.489   -0.731518
 O 0.9022 0.8133 0.4001   -0.715664
 O 0.3522 0.9277 0.3991   -0.648586
 O 0.2289 0.7671 0.3572   -0.721877
 O 0.4884 0.5585 0.11   -0.885307
 O 0.6335 0.4976 0.1973   -0.610517
