{'_ref': 'TBD', '_srcid': 'CAKYAQ_clean', 'submitters': [{'name': 'Dalar Nazarian Jeff Camp and David Sholl', 'email': 'dalar@gatech.edu jcamp6@gatech.edu'}], '_method': 'VASP DFT with PBE;DDEC'}
data_Zn4H36C36O13
_symmetry_space_group_name_H-M   'P 1'
_cell_length_a   18.11149991
_cell_length_b   18.11150023
_cell_length_c   18.11150000
_cell_angle_alpha   60.00000042
_cell_angle_beta   59.99999984
_cell_angle_gamma   59.99999942
_symmetry_Int_Tables_number   1
_chemical_formula_structural   Zn4H36C36O13
_chemical_formula_sum   'Zn8 H72 C72 O26'
_cell_volume   4200.95727955
_cell_formula_units_Z   2
loop_
 _symmetry_equiv_pos_site_id
 _symmetry_equiv_pos_as_xyz
  1  'x, y, z'
loop_
 _atom_site_label
 _atom_site_fract_x
 _atom_site_fract_y
 _atom_site_fract_z
 _atom_site_charge
 Zn 0.11875 0.29375 0.29375   1.118838
 Zn 0.29374 0.11876 0.29375   1.117761
 Zn 0.29374 0.29375 0.11876   1.118767
 Zn 0.29374 0.29375 0.29375   1.118495
 Zn 0.70626 0.88124 0.70625   1.123207
 Zn 0.88125 0.70625 0.70625   1.122428
 Zn 0.70626 0.70625 0.88124   1.12254
 Zn 0.70626 0.70625 0.70625   1.122766
 H 0.99442 0.62939 0.28203   0.114761
 H 0.09768 0.52814 0.27068   0.108664
 H 0.10018 0.6238 0.2814   0.118503
 H 0.63289 0.09003 0.99466   0.117301
 H 0.61995 0.99511 0.10397   0.12109
 H 0.52848 0.10715 0.09365   0.110741
 H 0.27995 0.99729 0.11189   0.122892
 H 0.28324 0.08031 0.99627   0.119731
 H 0.27092 0.11469 0.08412   0.108841
 H 0.05061 0.27263 0.54554   0.117258
 H 0.01162 0.28507 0.65655   0.11501
 H 0.13005 0.27641 0.57924   0.120438
 H 0.04405 0.28515 0.01352   0.115612
 H 0.01631 0.27612 0.13091   0.119007
 H 0.13192 0.27284 0.04786   0.117524
 H 0.5281 0.10279 0.27068   0.10954
 H 0.62453 0.99455 0.28148   0.118747
 H 0.6287 0.09495 0.28195   0.121626
 H 0.28324 0.99627 0.64018   0.119723
 H 0.27092 0.08412 0.53028   0.112525
 H 0.27995 0.11189 0.61087   0.119609
 H 0.10184 0.62216 0.99479   0.114491
 H 0.09596 0.52825 0.10509   0.11055
 H 0.99449 0.63092 0.0924   0.116649
 H 0.10504 0.09602 0.52825   0.108627
 H 0.09246 0.99448 0.63086   0.118156
 H 0.99478 0.10178 0.62222   0.121555
 H 0.58591 0.27715 0.00955   0.122339
 H 0.5412 0.27215 0.12893   0.115185
 H 0.65421 0.28481 0.0538   0.113727
 H 0.27093 0.53034 0.11487   0.110829
 H 0.27992 0.61062 0.99737   0.119037
 H 0.28326 0.64036 0.08004   0.112195
 H 0.99967 0.11683 0.27921   0.120028
 H 0.07328 0.99827 0.28374   0.118366
 H 0.11933 0.07718 0.27115   0.113993
 H 0.43697 0.86636 0.72541   0.120927
 H 0.34055 0.9746 0.71461   0.113618
 H 0.44115 0.96676 0.72588   0.119406
 H 0.96777 0.3407 0.97691   0.114455
 H 0.97365 0.4346 0.8666   0.116462
 H 0.8663 0.44337 0.96421   0.117269
 H 0.88812 0.72005 0.00272   0.115856
 H 0.91586 0.72908 0.88533   0.110416
 H 0.00373 0.71677 0.91967   0.115414
 H 0.71485 0.95593 0.34272   0.113303
 H 0.72716 0.86808 0.45263   0.120423
 H 0.72388 0.9837 0.42332   0.119197
 H 0.72716 0.95212 0.86808   0.11739
 H 0.72388 0.8691 0.9837   0.121717
 H 0.71485 0.9865 0.95593   0.112195
 H 0.96949 0.34059 0.71461   0.113213
 H 0.86623 0.44183 0.72595   0.11553
 H 0.972 0.43625 0.72533   0.11691
 H 0.88343 0.729 0.46899   0.109906
 H 0.92242 0.71656 0.35799   0.113783
 H 0.00186 0.72034 0.39169   0.117736
 H 0.4324 0.86692 0.97579   0.123535
 H 0.44534 0.96184 0.86647   0.117255
 H 0.34093 0.97896 0.96546   0.112946
 H 0.96428 0.86629 0.44331   0.120734
 H 0.97685 0.96783 0.3407   0.112726
 H 0.86659 0.97359 0.43467   0.11904
 H 0.72385 0.42307 0.86918   0.118119
 H 0.71486 0.34279 0.98668   0.111914
 H 0.72718 0.45281 0.95186   0.112601
 H 0.35365 0.71607 0.00074   0.111877
 H 0.39836 0.72108 0.88136   0.118479
 H 0.46666 0.72874 0.92561   0.111228
 H 0.94509 0.87008 0.72767   0.118244
 H 0.87148 0.98864 0.72314   0.120882
 H 0.99114 0.94899 0.71508   0.112753
 C 0.1113 0.3887 0.3887   0.745663
 C 0.0533 0.4467 0.4467   -0.195852
 C 0.3887 0.1113 0.1113   0.737148
 C 0.4467 0.0533 0.0533   -0.191781
 C 0.1113 0.3887 0.1113   0.746519
 C 0.0533 0.4467 0.0533   -0.196236
 C 0.3887 0.1113 0.3887   0.736597
 C 0.4467 0.0533 0.4467   -0.191619
 C 0.1113 0.1113 0.3887   0.738581
 C 0.0533 0.0533 0.4467   -0.192537
 C 0.3887 0.3887 0.1113   0.745179
 C 0.4467 0.4467 0.0533   -0.195773
 C 0.6113 0.8887 0.6113   0.762229
 C 0.5533 0.9467 0.5533   -0.20375
 C 0.8887 0.6113 0.8887   0.751791
 C 0.9467 0.5533 0.9467   -0.198531
 C 0.6113 0.8887 0.8887   0.761836
 C 0.5533 0.9467 0.9467   -0.203467
 C 0.8887 0.6113 0.6113   0.752746
 C 0.9467 0.5533 0.5533   -0.198823
 C 0.8887 0.8887 0.6113   0.759934
 C 0.9467 0.9467 0.5533   -0.202804
 C 0.6113 0.6113 0.8887   0.752269
 C 0.5533 0.5533 0.9467   -0.198639
 C 0.027 0.53796 0.40804   0.091396
 C 0.0568 0.5828 0.3036   -0.357488
 C 0.53796 0.027 0.027   0.090881
 C 0.5828 0.0568 0.0568   -0.365216
 C 0.40804 0.027 0.027   0.091132
 C 0.3036 0.0568 0.0568   -0.366929
 C 0.027 0.40804 0.53796   0.093877
 C 0.0568 0.3036 0.5828   -0.371241
 C 0.027 0.40804 0.027   0.093843
 C 0.0568 0.3036 0.0568   -0.370916
 C 0.53796 0.027 0.40804   0.090898
 C 0.5828 0.0568 0.3036   -0.365335
 C 0.40804 0.027 0.53796   0.091282
 C 0.3036 0.0568 0.5828   -0.368013
 C 0.027 0.53796 0.027   0.091677
 C 0.0568 0.5828 0.0568   -0.358383
 C 0.027 0.027 0.53796   0.090943
 C 0.0568 0.0568 0.5828   -0.363734
 C 0.53796 0.40804 0.027   0.093567
 C 0.5828 0.3036 0.0568   -0.368722
 C 0.40804 0.53796 0.027   0.091527
 C 0.3036 0.5828 0.0568   -0.358034
 C 0.027 0.027 0.40804   0.09181
 C 0.0568 0.0568 0.3036   -0.369456
 C 0.46204 0.973 0.59196   0.096203
 C 0.4172 0.9432 0.6964   -0.377834
 C 0.973 0.46204 0.973   0.093526
 C 0.9432 0.4172 0.9432   -0.369145
 C 0.973 0.59196 0.973   0.09229
 C 0.9432 0.6964 0.9432   -0.360869
 C 0.59196 0.973 0.46204   0.095781
 C 0.6964 0.9432 0.4172   -0.375227
 C 0.59196 0.973 0.973   0.095913
 C 0.6964 0.9432 0.9432   -0.375194
 C 0.973 0.46204 0.59196   0.093496
 C 0.9432 0.4172 0.6964   -0.368092
 C 0.973 0.59196 0.46204   0.092388
 C 0.9432 0.6964 0.4172   -0.361302
 C 0.46204 0.973 0.973   0.095958
 C 0.4172 0.9432 0.9432   -0.376906
 C 0.973 0.973 0.46204   0.096019
 C 0.9432 0.9432 0.4172   -0.376535
 C 0.59196 0.46204 0.973   0.092677
 C 0.6964 0.4172 0.9432   -0.363598
 C 0.46204 0.59196 0.973   0.09254
 C 0.4172 0.6964 0.9432   -0.36235
 C 0.973 0.973 0.59196   0.095434
 C 0.9432 0.9432 0.6964   -0.373406
 O 0.25 0.25 0.25   -1.294785
 O 0.75 0.75 0.75   -1.295064
 O 0.07193 0.36665 0.36665   -0.615632
 O 0.36665 0.07193 0.19477   -0.608661
 O 0.36665 0.19477 0.07193   -0.613746
 O 0.19477 0.36665 0.36665   -0.611985
 O 0.07193 0.36665 0.19477   -0.612958
 O 0.36665 0.19477 0.36665   -0.610797
 O 0.36665 0.07193 0.36665   -0.611223
 O 0.19477 0.36665 0.07193   -0.615201
 O 0.07193 0.19477 0.36665   -0.610546
 O 0.36665 0.36665 0.07193   -0.61052
 O 0.36665 0.36665 0.19477   -0.616596
 O 0.19477 0.07193 0.36665   -0.612964
 O 0.63335 0.92807 0.63335   -0.61924
 O 0.92807 0.63335 0.80523   -0.61776
 O 0.80523 0.63335 0.92807   -0.615849
 O 0.63335 0.80523 0.63335   -0.62047
 O 0.63335 0.92807 0.80523   -0.622078
 O 0.80523 0.63335 0.63335   -0.618703
 O 0.92807 0.63335 0.63335   -0.615262
 O 0.63335 0.80523 0.92807   -0.616981
 O 0.80523 0.92807 0.63335   -0.617492
 O 0.63335 0.63335 0.92807   -0.61988
 O 0.63335 0.63335 0.80523   -0.613825
 O 0.92807 0.80523 0.63335   -0.620728
