{'_ref': 'TBD', '_srcid': 'CAKYAQ_clean', 'submitters': [{'name': 'Dalar Nazarian Jeff Camp and David Sholl', 'email': 'dalar@gatech.edu jcamp6@gatech.edu'}], '_method': 'VASP DFT with PBE;DDEC'}
data_Cd2H60C51S4NO12
_symmetry_space_group_name_H-M   'P 1'
_cell_length_a   14.99710000
_cell_length_b   20.34540037
_cell_length_c   22.46220000
_cell_angle_alpha   103.85200119
_cell_angle_beta   90.00000000
_cell_angle_gamma   90.00000000
_symmetry_Int_Tables_number   1
_chemical_formula_structural   Cd2H60C51S4NO12
_chemical_formula_sum   'Cd8 H240 C204 S16 N4 O48'
_cell_volume   6654.38764918
_cell_formula_units_Z   4
loop_
 _symmetry_equiv_pos_site_id
 _symmetry_equiv_pos_as_xyz
  1  'x, y, z'
loop_
 _atom_site_label
 _atom_site_fract_x
 _atom_site_fract_y
 _atom_site_fract_z
 _atom_site_charge
 Cd 0.77104 0.09859 0.20617   1.083682
 Cd 0.71563 0.98983 0.31362   1.016076
 Cd 0.27104 0.40141 0.29383   1.083682
 Cd 0.21563 0.51017 0.18638   1.016076
 Cd 0.22896 0.90141 0.79383   1.083682
 Cd 0.28437 0.01017 0.68638   1.016076
 Cd 0.72896 0.59859 0.70617   1.083682
 Cd 0.78437 0.48983 0.81362   1.016076
 H 0.4196 0.2018 0.3757   0.097615
 H 0.4525 0.0673 0.4773   0.086433
 H 0.801 0.1338 0.5321   0.082393
 H 0.7459 0.2763 0.6857   0.103598
 H 0.3837 0.2589 0.6884   0.103305
 H 0.3344 0.4015 0.5966   0.088555
 H 0.6674 0.4777 0.5365   0.102081
 H 0.7277 0.3351 0.3841   0.107659
 H 0.816 0.187 0.4106   0.114071
 H 0.7377 0.2373 0.4023   0.0861
 H 0.5499 0.1114 0.6818   0.071569
 H 0.5568 0.0511 0.6213   0.07943
 H 0.6216 0.4516 0.6398   0.052164
 H 0.7109 0.4139 0.6119   0.113208
 H 0.3947 0.4115 0.4788   0.056711
 H 0.332 0.3474 0.4754   0.113979
 H 0.2031 0.1561 0.3928   0.107318
 H 0.2857 0.1477 0.3464   0.121246
 H 0.281 0.2115 0.4041   0.113688
 H 0.2279 0.0445 0.4053   0.102717
 H 0.3219 0.0217 0.4275   0.092516
 H 0.3122 0.0348 0.3603   0.118656
 H 0.2257 0.1425 0.4983   0.096939
 H 0.3068 0.1951 0.5097   0.117368
 H 0.3209 0.1203 0.5192   0.130012
 H 0.9173 0.1738 0.6815   0.112472
 H 0.0045 0.1886 0.6458   0.10885
 H 0.9364 0.1306 0.6132   0.09741
 H 0.8803 0.2898 0.7017   0.119999
 H 0.8739 0.3308 0.6493   0.113043
 H 0.9682 0.3028 0.6657   0.11392
 H 0.9145 0.1849 0.5279   0.096891
 H 0.9903 0.2361 0.561   0.11466
 H 0.8987 0.2648 0.5408   0.108163
 H 0.2098 0.2913 0.5605   0.106197
 H 0.2012 0.3712 0.5883   0.103994
 H 0.126 0.3212 0.6024   0.111471
 H 0.2418 0.2156 0.6247   0.123019
 H 0.1571 0.2443 0.6661   0.103918
 H 0.2527 0.2425 0.6973   0.11673
 H 0.2232 0.4172 0.7004   0.110671
 H 0.2412 0.3664 0.7436   0.111334
 H 0.1458 0.3675 0.7119   0.116899
 H 0.8562 0.3975 0.5245   0.100539
 H 0.8155 0.4712 0.5519   0.113268
 H 0.9099 0.4632 0.5177   0.111081
 H 0.772 0.5124 0.4155   0.106711
 H 0.8629 0.5286 0.4535   0.114888
 H 0.7691 0.5389 0.4885   0.115767
 H 0.8405 0.4 0.3705   0.116758
 H 0.8733 0.3551 0.4159   0.107099
 H 0.9248 0.4235 0.414   0.117945
 H 0.8598 0.0373 0.3796   0.313836
 H 0.7872 0.0359 0.4245   0.274443
 H 0.8944 0.9299 0.3676   0.068562
 H 0.8021 0.9155 0.3977   0.079915
 H 0.8541 0.9759 0.4943   0.083866
 H 0.9132 0.9105 0.4661   0.089134
 H 0.9601 0.0443 0.4661   0.054627
 H 0.0187 0.9794 0.4352   0.061853
 H 0.9196 0.2982 0.1243   0.097615
 H 0.9525 0.4327 0.0227   0.086433
 H 0.301 0.3662 0.9679   0.082393
 H 0.2459 0.2237 0.8143   0.103598
 H 0.8837 0.2411 0.8116   0.103305
 H 0.8344 0.0985 0.9034   0.088555
 H 0.1674 0.0223 0.9635   0.102081
 H 0.2277 0.1649 0.1159   0.107659
 H 0.316 0.313 0.0894   0.114071
 H 0.2377 0.2627 0.0977   0.0861
 H 0.0499 0.3886 0.8182   0.071569
 H 0.0568 0.4489 0.8787   0.07943
 H 0.1216 0.0484 0.8602   0.052164
 H 0.2109 0.0861 0.8881   0.113208
 H 0.8947 0.0885 0.0212   0.056711
 H 0.832 0.1526 0.0246   0.113979
 H 0.7031 0.3439 0.1072   0.107318
 H 0.7857 0.3523 0.1536   0.121245
 H 0.781 0.2885 0.0959   0.113688
 H 0.7279 0.4555 0.0947   0.102717
 H 0.8219 0.4783 0.0725   0.092516
 H 0.8122 0.4652 0.1397   0.118656
 H 0.7257 0.3575 0.0017   0.096939
 H 0.8068 0.3049 0.9903   0.117368
 H 0.8209 0.3797 0.9808   0.130012
 H 0.4173 0.3262 0.8185   0.112472
 H 0.5045 0.3114 0.8542   0.10885
 H 0.4364 0.3694 0.8868   0.09741
 H 0.3803 0.2102 0.7983   0.119999
 H 0.3739 0.1692 0.8507   0.113043
 H 0.4682 0.1972 0.8343   0.11392
 H 0.4145 0.3151 0.9721   0.096891
 H 0.4903 0.2639 0.939   0.11466
 H 0.3987 0.2352 0.9592   0.108163
 H 0.7098 0.2087 0.9395   0.106197
 H 0.7012 0.1288 0.9117   0.103994
 H 0.626 0.1788 0.8976   0.111471
 H 0.7418 0.2844 0.8753   0.123019
 H 0.6571 0.2557 0.8339   0.103918
 H 0.7527 0.2575 0.8027   0.11673
 H 0.7232 0.0828 0.7996   0.110671
 H 0.7412 0.1336 0.7564   0.111333
 H 0.6458 0.1325 0.7881   0.116899
 H 0.3562 0.1025 0.9755   0.100539
 H 0.3155 0.0288 0.9481   0.113268
 H 0.4099 0.0368 0.9823   0.111081
 H 0.272 0.9876 0.0845   0.106711
 H 0.3629 0.9714 0.0465   0.114888
 H 0.2691 0.9611 0.0115   0.115767
 H 0.3405 0.1 0.1295   0.116757
 H 0.3733 0.1449 0.0841   0.107099
 H 0.4248 0.0765 0.086   0.117945
 H 0.3598 0.4627 0.1204   0.313836
 H 0.2872 0.4641 0.0755   0.274443
 H 0.3944 0.5701 0.1324   0.068562
 H 0.3021 0.5845 0.1023   0.079915
 H 0.3541 0.5241 0.0057   0.083866
 H 0.4132 0.5895 0.0339   0.089134
 H 0.4601 0.4557 0.0339   0.054627
 H 0.5187 0.5206 0.0648   0.061853
 H 0.5804 0.7982 0.6243   0.097615
 H 0.5475 0.9327 0.5227   0.086433
 H 0.199 0.8662 0.4679   0.082393
 H 0.2541 0.7237 0.3143   0.103598
 H 0.6163 0.7411 0.3116   0.103305
 H 0.6656 0.5985 0.4034   0.088555
 H 0.3326 0.5223 0.4635   0.102081
 H 0.2723 0.6649 0.6159   0.107659
 H 0.184 0.813 0.5894   0.114071
 H 0.2623 0.7627 0.5977   0.0861
 H 0.4501 0.8886 0.3182   0.071569
 H 0.4432 0.9489 0.3787   0.07943
 H 0.3784 0.5484 0.3602   0.052164
 H 0.2891 0.5861 0.3881   0.113208
 H 0.6053 0.5885 0.5212   0.056711
 H 0.668 0.6526 0.5246   0.113979
 H 0.7969 0.8439 0.6072   0.107318
 H 0.7143 0.8523 0.6536   0.121246
 H 0.719 0.7885 0.5959   0.113688
 H 0.7721 0.9555 0.5947   0.102716
 H 0.6781 0.9783 0.5725   0.092516
 H 0.6878 0.9652 0.6397   0.118655
 H 0.7743 0.8575 0.5017   0.096939
 H 0.6932 0.8049 0.4903   0.117368
 H 0.6791 0.8797 0.4808   0.130012
 H 0.0827 0.8262 0.3185   0.112472
 H 0.9955 0.8114 0.3542   0.10885
 H 0.0636 0.8694 0.3868   0.09741
 H 0.1197 0.7102 0.2983   0.119999
 H 0.1261 0.6692 0.3507   0.113043
 H 0.0318 0.6972 0.3343   0.11392
 H 0.0855 0.8151 0.4721   0.096891
 H 0.0097 0.7639 0.439   0.11466
 H 0.1013 0.7352 0.4592   0.108163
 H 0.7902 0.7087 0.4395   0.106198
 H 0.7988 0.6288 0.4117   0.103995
 H 0.874 0.6788 0.3976   0.111471
 H 0.7582 0.7844 0.3753   0.123019
 H 0.8429 0.7557 0.3339   0.103918
 H 0.7473 0.7575 0.3027   0.11673
 H 0.7768 0.5828 0.2996   0.110671
 H 0.7588 0.6336 0.2564   0.111333
 H 0.8542 0.6325 0.2881   0.116899
 H 0.1438 0.6025 0.4755   0.100539
 H 0.1845 0.5288 0.4481   0.113268
 H 0.0901 0.5368 0.4823   0.111081
 H 0.228 0.4876 0.5845   0.106711
 H 0.1371 0.4714 0.5465   0.114889
 H 0.2309 0.4611 0.5115   0.115767
 H 0.1595 0.6 0.6295   0.116758
 H 0.1267 0.6449 0.5841   0.107099
 H 0.0752 0.5765 0.586   0.117945
 H 0.1402 0.9627 0.6204   0.313836
 H 0.2128 0.9641 0.5755   0.274443
 H 0.1056 0.0701 0.6324   0.068562
 H 0.1979 0.0845 0.6023   0.079915
 H 0.1459 0.0241 0.5057   0.083866
 H 0.0868 0.0895 0.5339   0.089135
 H 0.0399 0.9557 0.5339   0.054627
 H 0.9813 0.0206 0.5648   0.061853
 H 0.0804 0.7018 0.8757   0.097615
 H 0.0475 0.5673 0.9773   0.086433
 H 0.699 0.6338 0.0321   0.082393
 H 0.7541 0.7763 0.1857   0.103598
 H 0.1163 0.7589 0.1884   0.103305
 H 0.1656 0.9015 0.0966   0.088555
 H 0.8326 0.9777 0.0365   0.102081
 H 0.7723 0.8351 0.8841   0.107659
 H 0.684 0.687 0.9106   0.114071
 H 0.7623 0.7373 0.9023   0.0861
 H 0.9501 0.6114 0.1818   0.071569
 H 0.9432 0.5511 0.1213   0.07943
 H 0.8784 0.9516 0.1398   0.052164
 H 0.7891 0.9139 0.1119   0.113208
 H 0.1053 0.9115 0.9788   0.056711
 H 0.168 0.8474 0.9754   0.113979
 H 0.2969 0.6561 0.8928   0.107318
 H 0.2143 0.6477 0.8464   0.121245
 H 0.219 0.7115 0.9041   0.113688
 H 0.2721 0.5445 0.9053   0.102716
 H 0.1781 0.5217 0.9275   0.092516
 H 0.1878 0.5348 0.8603   0.118655
 H 0.2743 0.6425 0.9983   0.096939
 H 0.1932 0.6951 0.0097   0.117368
 H 0.1791 0.6203 0.0192   0.130012
 H 0.5827 0.6738 0.1815   0.112472
 H 0.4955 0.6886 0.1458   0.10885
 H 0.5636 0.6306 0.1132   0.09741
 H 0.6197 0.7898 0.2017   0.119999
 H 0.6261 0.8308 0.1493   0.113043
 H 0.5318 0.8028 0.1657   0.11392
 H 0.5855 0.6849 0.0279   0.096891
 H 0.5097 0.7361 0.061   0.11466
 H 0.6013 0.7648 0.0408   0.108163
 H 0.2902 0.7913 0.0605   0.106198
 H 0.2988 0.8712 0.0883   0.103995
 H 0.374 0.8212 0.1024   0.111471
 H 0.2582 0.7156 0.1247   0.123019
 H 0.3429 0.7443 0.1661   0.103918
 H 0.2473 0.7425 0.1973   0.11673
 H 0.2768 0.9172 0.2004   0.110671
 H 0.2588 0.8664 0.2436   0.111333
 H 0.3542 0.8675 0.2119   0.116899
 H 0.6438 0.8975 0.0245   0.100539
 H 0.6845 0.9712 0.0519   0.113268
 H 0.5901 0.9632 0.0177   0.111081
 H 0.728 0.0124 0.9155   0.106711
 H 0.6371 0.0286 0.9535   0.114889
 H 0.7309 0.0389 0.9885   0.115767
 H 0.6595 0.9 0.8705   0.116758
 H 0.6267 0.8551 0.9159   0.107099
 H 0.5752 0.9235 0.914   0.117945
 H 0.6402 0.5373 0.8796   0.313836
 H 0.7128 0.5359 0.9245   0.274443
 H 0.6056 0.4299 0.8676   0.068562
 H 0.6979 0.4155 0.8977   0.079915
 H 0.6459 0.4759 0.9943   0.083866
 H 0.5868 0.4105 0.9661   0.089135
 H 0.5399 0.5443 0.9661   0.054627
 H 0.4813 0.4794 0.9352   0.061853
 C 0.6052 0.1556 0.4272   0.206654
 C 0.5491 0.191 0.3967   -0.061611
 C 0.4575 0.1778 0.397   -0.09606
 C 0.4185 0.1329 0.4257   -0.004287
 C 0.4763 0.0989 0.4566   -0.072703
 C 0.5678 0.11 0.4579   -0.052889
 C 0.6132 0.1633 0.6044   0.20409
 C 0.6726 0.1321 0.5591   -0.037292
 C 0.76 0.1549 0.5631   -0.129225
 C 0.7899 0.2073 0.6104   0.008111
 C 0.7278 0.2393 0.6536   -0.123086
 C 0.6398 0.2179 0.6503   -0.023793
 C 0.5282 0.3515 0.6359   0.186424
 C 0.4951 0.3039 0.6659   -0.014411
 C 0.4042 0.2927 0.669   -0.119366
 C 0.3426 0.3294 0.6444   0.012762
 C 0.3755 0.3758 0.6139   -0.131653
 C 0.467 0.3863 0.6075   -0.057865
 C 0.5403 0.3539 0.4604   0.192551
 C 0.5672 0.4102 0.5081   -0.059986
 C 0.6512 0.4387 0.5058   -0.138433
 C 0.7123 0.4115 0.4598   0.019803
 C 0.6866 0.3546 0.4156   -0.155262
 C 0.6035 0.3252 0.4156   -0.022025
 C 0.7539 0.189 0.3961   -0.061899
 C 0.7502 0.1561 0.3291   0.619357
 C 0.5219 0.0916 0.6415   -0.066454
 C 0.4286 0.0704 0.6518   0.67554
 C 0.6645 0.4159 0.6437   -0.080611
 C 0.7079 0.437 0.7045   0.656483
 C 0.3824 0.3648 0.4551   -0.055131
 C 0.3528 0.3679 0.3923   0.654082
 C 0.3178 0.1231 0.4281   0.241701
 C 0.2674 0.1632 0.3894   -0.393051
 C 0.2927 0.0495 0.4031   -0.380847
 C 0.2904 0.1474 0.4947   -0.39238
 C 0.888 0.2285 0.615   0.238913
 C 0.9416 0.1754 0.6413   -0.381272
 C 0.904 0.2937 0.662   -0.389464
 C 0.9259 0.2286 0.5566   -0.38233
 C 0.2412 0.3198 0.6528   0.234831
 C 0.1899 0.3265 0.5959   -0.382734
 C 0.2214 0.2493 0.6609   -0.390918
 C 0.2102 0.3722 0.7067   -0.383921
 C 0.8056 0.4406 0.4601   0.245664
 C 0.8505 0.4434 0.5183   -0.385184
 C 0.8021 0.511 0.4539   -0.397064
 C 0.8664 0.4014 0.4108   -0.382944
 C 0.8511 0.9487 0.4006   0.084226
 C 0.8968 0.9561 0.4613   -0.197456
 C 0.9765 0.9981 0.4689   -0.106607
 C 0.1052 0.3444 0.0728   0.206654
 C 0.0491 0.309 0.1033   -0.061611
 C 0.9575 0.3222 0.103   -0.09606
 C 0.9185 0.3671 0.0743   -0.004287
 C 0.9763 0.4011 0.0434   -0.072703
 C 0.0678 0.39 0.0421   -0.052889
 C 0.1132 0.3367 0.8956   0.20409
 C 0.1726 0.3679 0.9409   -0.037292
 C 0.26 0.3451 0.9369   -0.129225
 C 0.2899 0.2927 0.8896   0.008111
 C 0.2278 0.2607 0.8464   -0.123086
 C 0.1398 0.2821 0.8497   -0.023793
 C 0.0282 0.1485 0.8641   0.186424
 C 0.9951 0.1961 0.8341   -0.014411
 C 0.9042 0.2073 0.831   -0.119366
 C 0.8426 0.1706 0.8556   0.012762
 C 0.8755 0.1242 0.8861   -0.131653
 C 0.967 0.1137 0.8925   -0.057865
 C 0.0403 0.1461 0.0396   0.192551
 C 0.0672 0.0898 0.9919   -0.059986
 C 0.1512 0.0613 0.9942   -0.138433
 C 0.2123 0.0885 0.0402   0.019803
 C 0.1866 0.1454 0.0844   -0.155262
 C 0.1035 0.1748 0.0844   -0.022025
 C 0.2539 0.311 0.1039   -0.061899
 C 0.2502 0.3439 0.1709   0.619357
 C 0.0219 0.4084 0.8585   -0.066454
 C 0.9286 0.4296 0.8482   0.67554
 C 0.1645 0.0841 0.8563   -0.080611
 C 0.2079 0.063 0.7955   0.656483
 C 0.8824 0.1352 0.0449   -0.055131
 C 0.8528 0.1321 0.1077   0.654082
 C 0.8178 0.3769 0.0719   0.241701
 C 0.7674 0.3368 0.1106   -0.39305
 C 0.7927 0.4505 0.0969   -0.380847
 C 0.7904 0.3526 0.0053   -0.39238
 C 0.388 0.2715 0.885   0.238913
 C 0.4416 0.3246 0.8587   -0.381272
 C 0.404 0.2063 0.838   -0.389464
 C 0.4259 0.2714 0.9434   -0.38233
 C 0.7412 0.1802 0.8472   0.234831
 C 0.6899 0.1735 0.9041   -0.382734
 C 0.7214 0.2507 0.8391   -0.390918
 C 0.7102 0.1278 0.7933   -0.383921
 C 0.3056 0.0594 0.0399   0.245664
 C 0.3505 0.0566 0.9817   -0.385184
 C 0.3021 0.989 0.0461   -0.397064
 C 0.3664 0.0986 0.0892   -0.382944
 C 0.3511 0.5513 0.0994   0.084226
 C 0.3968 0.5439 0.0387   -0.197456
 C 0.4765 0.5019 0.0311   -0.106607
 C 0.3948 0.8444 0.5728   0.206654
 C 0.4509 0.809 0.6033   -0.061611
 C 0.5425 0.8222 0.603   -0.09606
 C 0.5815 0.8671 0.5743   -0.004287
 C 0.5237 0.9011 0.5434   -0.072703
 C 0.4322 0.89 0.5421   -0.052889
 C 0.3868 0.8367 0.3956   0.20409
 C 0.3274 0.8679 0.4409   -0.037292
 C 0.24 0.8451 0.4369   -0.129225
 C 0.2101 0.7927 0.3896   0.008111
 C 0.2722 0.7607 0.3464   -0.123086
 C 0.3602 0.7821 0.3497   -0.023793
 C 0.4718 0.6485 0.3641   0.186424
 C 0.5049 0.6961 0.3341   -0.014411
 C 0.5958 0.7073 0.331   -0.119366
 C 0.6574 0.6706 0.3556   0.012762
 C 0.6245 0.6242 0.3861   -0.131653
 C 0.533 0.6137 0.3925   -0.057865
 C 0.4597 0.6461 0.5396   0.192551
 C 0.4328 0.5898 0.4919   -0.059986
 C 0.3488 0.5613 0.4942   -0.138433
 C 0.2877 0.5885 0.5402   0.019803
 C 0.3134 0.6454 0.5844   -0.155262
 C 0.3965 0.6748 0.5844   -0.022025
 C 0.2461 0.811 0.6039   -0.061899
 C 0.2498 0.8439 0.6709   0.619357
 C 0.4781 0.9084 0.3585   -0.066454
 C 0.5714 0.9296 0.3482   0.67554
 C 0.3355 0.5841 0.3563   -0.080611
 C 0.2921 0.563 0.2955   0.656483
 C 0.6176 0.6352 0.5449   -0.055131
 C 0.6472 0.6321 0.6077   0.654082
 C 0.6822 0.8769 0.5719   0.241701
 C 0.7326 0.8368 0.6106   -0.393051
 C 0.7073 0.9505 0.5969   -0.380847
 C 0.7096 0.8526 0.5053   -0.39238
 C 0.112 0.7715 0.385   0.238913
 C 0.0584 0.8246 0.3587   -0.381272
 C 0.096 0.7063 0.338   -0.389464
 C 0.0741 0.7714 0.4434   -0.38233
 C 0.7588 0.6802 0.3472   0.234831
 C 0.8101 0.6735 0.4041   -0.382734
 C 0.7786 0.7507 0.3391   -0.390918
 C 0.7898 0.6278 0.2933   -0.383921
 C 0.1944 0.5594 0.5399   0.245664
 C 0.1495 0.5566 0.4817   -0.385184
 C 0.1979 0.489 0.5461   -0.397064
 C 0.1336 0.5986 0.5892   -0.382944
 C 0.1489 0.0513 0.5994   0.084226
 C 0.1032 0.0439 0.5387   -0.197456
 C 0.0235 0.0019 0.5311   -0.106607
 C 0.8948 0.6556 0.9272   0.206654
 C 0.9509 0.691 0.8967   -0.061611
 C 0.0425 0.6778 0.897   -0.09606
 C 0.0815 0.6329 0.9257   -0.004287
 C 0.0237 0.5989 0.9566   -0.072703
 C 0.9322 0.61 0.9579   -0.052889
 C 0.8868 0.6633 0.1044   0.20409
 C 0.8274 0.6321 0.0591   -0.037292
 C 0.74 0.6549 0.0631   -0.129225
 C 0.7101 0.7073 0.1104   0.008111
 C 0.7722 0.7393 0.1536   -0.123086
 C 0.8602 0.7179 0.1503   -0.023793
 C 0.9718 0.8515 0.1359   0.186424
 C 0.0049 0.8039 0.1659   -0.014411
 C 0.0958 0.7927 0.169   -0.119366
 C 0.1574 0.8294 0.1444   0.012762
 C 0.1245 0.8758 0.1139   -0.131653
 C 0.033 0.8863 0.1075   -0.057865
 C 0.9597 0.8539 0.9604   0.192551
 C 0.9328 0.9102 0.0081   -0.059986
 C 0.8488 0.9387 0.0058   -0.138433
 C 0.7877 0.9115 0.9598   0.019803
 C 0.8134 0.8546 0.9156   -0.155262
 C 0.8965 0.8252 0.9156   -0.022025
 C 0.7461 0.689 0.8961   -0.061899
 C 0.7498 0.6561 0.8291   0.619357
 C 0.9781 0.5916 0.1415   -0.066454
 C 0.0714 0.5704 0.1518   0.67554
 C 0.8355 0.9159 0.1437   -0.080611
 C 0.7921 0.937 0.2045   0.656483
 C 0.1176 0.8648 0.9551   -0.055131
 C 0.1472 0.8679 0.8923   0.654082
 C 0.1822 0.6231 0.9281   0.241701
 C 0.2326 0.6632 0.8894   -0.39305
 C 0.2073 0.5495 0.9031   -0.380847
 C 0.2096 0.6474 0.9947   -0.39238
 C 0.612 0.7285 0.115   0.238913
 C 0.5584 0.6754 0.1413   -0.381272
 C 0.596 0.7937 0.162   -0.389464
 C 0.5741 0.7286 0.0566   -0.38233
 C 0.2588 0.8198 0.1528   0.234831
 C 0.3101 0.8265 0.0959   -0.382734
 C 0.2786 0.7493 0.1609   -0.390918
 C 0.2898 0.8722 0.2067   -0.383921
 C 0.6944 0.9406 0.9601   0.245664
 C 0.6495 0.9434 0.0183   -0.385184
 C 0.6979 0.011 0.9539   -0.397064
 C 0.6336 0.9014 0.9108   -0.382944
 C 0.6489 0.4487 0.9006   0.084226
 C 0.6032 0.4561 0.9613   -0.197456
 C 0.5235 0.4981 0.9689   -0.106607
 S 0.63689 0.06458 0.49846   -0.034308
 S 0.56548 0.26091 0.70793   -0.048311
 S 0.49626 0.45035 0.56914   -0.01901
 S 0.58139 0.25207 0.35652   -0.029614
 S 0.13689 0.43542 0.00154   -0.034308
 S 0.06548 0.23909 0.79207   -0.048311
 S 0.99626 0.04965 0.93086   -0.01901
 S 0.08139 0.24793 0.14348   -0.029614
 S 0.36311 0.93542 0.50154   -0.034308
 S 0.43452 0.73909 0.29207   -0.048311
 S 0.50374 0.54965 0.43086   -0.01901
 S 0.41861 0.74793 0.64348   -0.029614
 S 0.86311 0.56458 0.99846   -0.034308
 S 0.93452 0.76091 0.20793   -0.048311
 S 0.00374 0.95035 0.06914   -0.01901
 S 0.91861 0.75207 0.85652   -0.029614
 N 0.8142 0.0115 0.3894   -0.655707
 N 0.3142 0.4885 0.1106   -0.655707
 N 0.1858 0.9885 0.6106   -0.655706
 N 0.6858 0.5115 0.8894   -0.655706
 O 0.6969 0.159 0.4325   -0.239127
 O 0.7098 0.1023 0.31   -0.61739
 O 0.7894 0.1854 0.2937   -0.575741
 O 0.5258 0.1398 0.6049   -0.269007
 O 0.364 0.0865 0.6272   -0.58594
 O 0.4255 0.031 0.6876   -0.636976
 O 0.6193 0.3537 0.6306   -0.206556
 O 0.6961 0.407 0.7453   -0.554752
 O 0.7606 0.4864 0.7106   -0.653658
 O 0.459 0.3243 0.4591   -0.221296
 O 0.375 0.3275 0.3467   -0.571267
 O 0.3002 0.4157 0.3921   -0.63134
 O 0.1969 0.341 0.0675   -0.239127
 O 0.2098 0.3977 0.19   -0.61739
 O 0.2894 0.3146 0.2063   -0.575741
 O 0.0258 0.3602 0.8951   -0.269007
 O 0.864 0.4135 0.8728   -0.58594
 O 0.9255 0.469 0.8124   -0.636976
 O 0.1193 0.1463 0.8694   -0.206556
 O 0.1961 0.093 0.7547   -0.554752
 O 0.2606 0.0136 0.7894   -0.653658
 O 0.959 0.1757 0.0409   -0.221296
 O 0.875 0.1725 0.1533   -0.571268
 O 0.8002 0.0843 0.1079   -0.63134
 O 0.3031 0.841 0.5675   -0.239127
 O 0.2902 0.8977 0.69   -0.61739
 O 0.2106 0.8146 0.7063   -0.575741
 O 0.4742 0.8602 0.3951   -0.269007
 O 0.636 0.9135 0.3728   -0.58594
 O 0.5745 0.969 0.3124   -0.636976
 O 0.3807 0.6463 0.3694   -0.206556
 O 0.3039 0.593 0.2547   -0.554752
 O 0.2394 0.5136 0.2894   -0.653658
 O 0.541 0.6757 0.5409   -0.221296
 O 0.625 0.6725 0.6533   -0.571267
 O 0.6998 0.5843 0.6079   -0.63134
 O 0.8031 0.659 0.9325   -0.239127
 O 0.7902 0.6023 0.81   -0.61739
 O 0.7106 0.6854 0.7937   -0.575741
 O 0.9742 0.6398 0.1049   -0.269007
 O 0.136 0.5865 0.1272   -0.58594
 O 0.0745 0.531 0.1876   -0.636976
 O 0.8807 0.8537 0.1306   -0.206556
 O 0.8039 0.907 0.2453   -0.554752
 O 0.7394 0.9864 0.2106   -0.653658
 O 0.041 0.8243 0.9591   -0.221296
 O 0.125 0.8275 0.8467   -0.571268
 O 0.1998 0.9157 0.8921   -0.63134
