{'_ref': 'TBD', '_srcid': 'CAKYAQ_clean', 'submitters': [{'name': 'Dalar Nazarian Jeff Camp and David Sholl', 'email': 'dalar@gatech.edu jcamp6@gatech.edu'}], '_method': 'VASP DFT with PBE;DDEC'}
data_Ag3H20C22(NO2)4
_symmetry_space_group_name_H-M   'P 1'
_cell_length_a   11.99800000
_cell_length_b   12.94400031
_cell_length_c   23.49100000
_cell_angle_alpha   95.49000143
_cell_angle_beta   90.00000000
_cell_angle_gamma   90.00000000
_symmetry_Int_Tables_number   1
_chemical_formula_structural   Ag3H20C22(NO2)4
_chemical_formula_sum   'Ag12 H80 C88 N16 O32'
_cell_volume   3631.46736505
_cell_formula_units_Z   4
loop_
 _symmetry_equiv_pos_site_id
 _symmetry_equiv_pos_as_xyz
  1  'x, y, z'
loop_
 _atom_site_label
 _atom_site_fract_x
 _atom_site_fract_y
 _atom_site_fract_z
 _atom_site_charge
 Ag 0.45588 0.22866 0.55635   0.457281
 Ag 0.47307 0.73 0.55797   0.446652
 Ag 0.69076 0.99446 0.75531   0.444095
 Ag 0.95588 0.77134 0.94365   0.457281
 Ag 0.97307 0.27 0.94203   0.446652
 Ag 0.19076 0.00554 0.74469   0.444095
 Ag 0.54412 0.77134 0.44365   0.457281
 Ag 0.52693 0.27 0.44203   0.446653
 Ag 0.30924 0.00554 0.24469   0.444095
 Ag 0.04412 0.22866 0.05635   0.457281
 Ag 0.02693 0.73 0.05797   0.446653
 Ag 0.80924 0.99446 0.25531   0.444095
 H 0.5475 0.1512 0.6811   0.109372
 H 0.618 0.0859 0.6353   0.102172
 H 0.5246 0.9796 0.5561   0.081751
 H 0.3954 0.9802 0.5536   0.0928
 H 0.2893 0.0863 0.6248   0.102277
 H 0.3488 0.1512 0.6749   0.117018
 H 0.3428 0.8421 0.6667   0.113506
 H 0.2869 0.8994 0.619   0.097791
 H 0.547 0.8412 0.6746   0.110992
 H 0.6177 0.8967 0.6311   0.098106
 H 0.4383 0.0632 0.7498   0.090037
 H 0.4372 0.9426 0.7456   0.094969
 H 0.3099 0.5178 0.985   0.108581
 H 0.4765 0.4492 0.9459   0.094489
 H 0.5701 0.5387 0.8763   0.110865
 H 0.3179 0.7497 0.8791   0.09527
 H 0.4233 0.2194 0.0194   0.097312
 H 0.6062 0.2085 0.9837   0.098473
 H 0.6409 0.2398 0.8891   0.0793
 H 0.3091 0.2812 0.864   0.105933
 H 0.0475 0.8488 0.8189   0.109372
 H 0.118 0.9141 0.8647   0.102172
 H 0.0246 0.0204 0.9439   0.081751
 H 0.8954 0.0198 0.9464   0.0928
 H 0.7893 0.9137 0.8752   0.102277
 H 0.8488 0.8488 0.8251   0.117018
 H 0.8428 0.1579 0.8333   0.113506
 H 0.7869 0.1006 0.881   0.09779
 H 0.047 0.1588 0.8254   0.110992
 H 0.1177 0.1033 0.8689   0.098106
 H 0.9383 0.9368 0.7502   0.090037
 H 0.9372 0.0574 0.7544   0.094969
 H 0.8099 0.4822 0.515   0.108581
 H 0.9765 0.5508 0.5541   0.094489
 H 0.0701 0.4613 0.6237   0.110865
 H 0.8179 0.2503 0.6209   0.09527
 H 0.9233 0.7806 0.4806   0.097312
 H 0.1062 0.7915 0.5163   0.098473
 H 0.1409 0.7602 0.6109   0.0793
 H 0.8091 0.7188 0.636   0.105933
 H 0.4525 0.8488 0.3189   0.109372
 H 0.382 0.9141 0.3647   0.102172
 H 0.4754 0.0204 0.4439   0.081751
 H 0.6046 0.0198 0.4464   0.0928
 H 0.7107 0.9137 0.3752   0.102277
 H 0.6512 0.8488 0.3251   0.117018
 H 0.6572 0.1579 0.3333   0.113506
 H 0.7131 0.1006 0.381   0.097791
 H 0.453 0.1588 0.3254   0.110992
 H 0.3823 0.1033 0.3689   0.098106
 H 0.5617 0.9368 0.2502   0.090037
 H 0.5628 0.0574 0.2544   0.094969
 H 0.6901 0.4822 0.015   0.108581
 H 0.5235 0.5508 0.0541   0.094488
 H 0.4299 0.4613 0.1237   0.110865
 H 0.6821 0.2503 0.1209   0.09527
 H 0.5767 0.7806 0.9806   0.097312
 H 0.3938 0.7915 0.0163   0.098473
 H 0.3591 0.7602 0.1109   0.0793
 H 0.6909 0.7188 0.136   0.105933
 H 0.9525 0.1512 0.1811   0.109372
 H 0.882 0.0859 0.1353   0.102172
 H 0.9754 0.9796 0.0561   0.081751
 H 0.1046 0.9802 0.0536   0.0928
 H 0.2107 0.0863 0.1248   0.102277
 H 0.1512 0.1512 0.1749   0.117018
 H 0.1572 0.8421 0.1667   0.113506
 H 0.2131 0.8994 0.119   0.09779
 H 0.953 0.8412 0.1746   0.110992
 H 0.8823 0.8967 0.1311   0.098106
 H 0.0617 0.0632 0.2498   0.090037
 H 0.0628 0.9426 0.2456   0.094969
 H 0.1901 0.5178 0.485   0.108581
 H 0.0235 0.4492 0.4459   0.094488
 H 0.9299 0.5387 0.3763   0.110865
 H 0.1821 0.7497 0.3791   0.09527
 H 0.0767 0.2194 0.5194   0.097312
 H 0.8938 0.2085 0.4837   0.098473
 H 0.8591 0.2398 0.3891   0.0793
 H 0.1909 0.2812 0.364   0.105933
 C 0.5495 0.0876 0.6564   0.08326
 C 0.4582 0.9831 0.579   0.077549
 C 0.352 0.0877 0.6502   0.072968
 C 0.3488 0.901 0.645   0.067794
 C 0.5492 0.8996 0.6524   0.068963
 C 0.4406 0.0014 0.7237   0.065426
 C 0.1946 0.6839 0.9639   0.658773
 C 0.2995 0.6385 0.9357   -0.149206
 C 0.3469 0.5509 0.9553   -0.021829
 C 0.4458 0.5114 0.9331   -0.112352
 C 0.4992 0.5631 0.8909   -0.012522
 C 0.453 0.6493 0.8707   -0.14559
 C 0.3508 0.6894 0.893   -0.009624
 C 0.5135 0.7041 0.8253   0.638428
 C 0.2313 0.2561 0.9679   0.67495
 C 0.35 0.2522 0.9453   -0.14002
 C 0.438 0.2312 0.9804   -0.024328
 C 0.5457 0.2252 0.9594   -0.117608
 C 0.5661 0.2426 0.9037   -0.059129
 C 0.4789 0.2662 0.8673   -0.134765
 C 0.3704 0.2689 0.8888   -0.03562
 C 0.5051 0.2865 0.8063   0.613524
 C 0.0495 0.9124 0.8436   0.08326
 C 0.9582 0.0169 0.921   0.077549
 C 0.852 0.9123 0.8498   0.072968
 C 0.8488 0.099 0.855   0.067794
 C 0.0492 0.1004 0.8476   0.068963
 C 0.9406 0.9986 0.7763   0.065426
 C 0.6946 0.3161 0.5361   0.658773
 C 0.7995 0.3615 0.5643   -0.149206
 C 0.8469 0.4491 0.5447   -0.021829
 C 0.9458 0.4886 0.5669   -0.112352
 C 0.9992 0.4369 0.6091   -0.012522
 C 0.953 0.3507 0.6293   -0.14559
 C 0.8508 0.3106 0.607   -0.009624
 C 0.0135 0.2959 0.6747   0.638428
 C 0.7313 0.7439 0.5321   0.67495
 C 0.85 0.7478 0.5547   -0.14002
 C 0.938 0.7688 0.5196   -0.024328
 C 0.0457 0.7748 0.5406   -0.117608
 C 0.0661 0.7574 0.5963   -0.059129
 C 0.9789 0.7338 0.6327   -0.134765
 C 0.8704 0.7311 0.6112   -0.03562
 C 0.0051 0.7135 0.6937   0.613524
 C 0.4505 0.9124 0.3436   0.08326
 C 0.5418 0.0169 0.421   0.077549
 C 0.648 0.9123 0.3498   0.072968
 C 0.6512 0.099 0.355   0.067794
 C 0.4508 0.1004 0.3476   0.068963
 C 0.5594 0.9986 0.2763   0.065426
 C 0.8054 0.3161 0.0361   0.658773
 C 0.7005 0.3615 0.0643   -0.149206
 C 0.6531 0.4491 0.0447   -0.021829
 C 0.5542 0.4886 0.0669   -0.112352
 C 0.5008 0.4369 0.1091   -0.012523
 C 0.547 0.3507 0.1293   -0.14559
 C 0.6492 0.3106 0.107   -0.009624
 C 0.4865 0.2959 0.1747   0.638428
 C 0.7687 0.7439 0.0321   0.67495
 C 0.65 0.7478 0.0547   -0.14002
 C 0.562 0.7688 0.0196   -0.024328
 C 0.4543 0.7748 0.0406   -0.117608
 C 0.4339 0.7574 0.0963   -0.059129
 C 0.5211 0.7338 0.1327   -0.134765
 C 0.6296 0.7311 0.1112   -0.03562
 C 0.4949 0.7135 0.1937   0.613524
 C 0.9505 0.0876 0.1564   0.08326
 C 0.0418 0.9831 0.079   0.077549
 C 0.148 0.0877 0.1502   0.072968
 C 0.1512 0.901 0.145   0.067794
 C 0.9508 0.8996 0.1524   0.068963
 C 0.0594 0.0014 0.2237   0.065426
 C 0.3054 0.6839 0.4639   0.658773
 C 0.2005 0.6385 0.4357   -0.149206
 C 0.1531 0.5509 0.4553   -0.021829
 C 0.0542 0.5114 0.4331   -0.112352
 C 0.000799999999998 0.5631 0.3909   -0.012523
 C 0.047 0.6493 0.3707   -0.14559
 C 0.1492 0.6894 0.393   -0.009625
 C 0.9865 0.7041 0.3253   0.638428
 C 0.2687 0.2561 0.4679   0.67495
 C 0.15 0.2522 0.4453   -0.14002
 C 0.062 0.2312 0.4804   -0.024328
 C 0.9543 0.2252 0.4594   -0.117608
 C 0.9339 0.2426 0.4037   -0.059129
 C 0.0211 0.2662 0.3673   -0.134765
 C 0.1296 0.2689 0.3888   -0.03562
 C 0.9949 0.2865 0.3063   0.613524
 N 0.4558 0.0846 0.6162   -0.25809
 N 0.5463 0.9975 0.6914   -0.245166
 N 0.454 0.8939 0.6121   -0.262332
 N 0.3435 0.9992 0.6851   -0.242769
 N 0.9558 0.9154 0.8838   -0.25809
 N 0.0463 0.0025 0.8086   -0.245166
 N 0.954 0.1061 0.8879   -0.262332
 N 0.8435 0.000799999999998 0.8149   -0.242769
 N 0.5442 0.9154 0.3838   -0.25809
 N 0.4537 0.0025 0.3086   -0.245166
 N 0.546 0.1061 0.3879   -0.262332
 N 0.6565 0.000799999999998 0.3149   -0.242769
 N 0.0442 0.0846 0.1162   -0.25809
 N 0.9537 0.9975 0.1914   -0.245166
 N 0.046 0.8939 0.1121   -0.262332
 N 0.1565 0.9992 0.1851   -0.242769
 O 0.1502 0.7614 0.9438   -0.628666
 O 0.1566 0.6394 0.005   -0.553184
 O 0.4625 0.774 0.8027   -0.571988
 O 0.6102 0.676 0.8115   -0.449684
 O 0.2153 0.2217 0.0152   -0.604605
 O 0.1607 0.2936 0.939   -0.569205
 O 0.4288 0.2706 0.7702   -0.53807
 O 0.599 0.3217 0.7968   -0.484323
 O 0.6502 0.2386 0.5562   -0.628666
 O 0.6566 0.3606 0.495   -0.553184
 O 0.9625 0.226 0.6973   -0.571988
 O 0.1102 0.324 0.6885   -0.449684
 O 0.7153 0.7783 0.4848   -0.604605
 O 0.6607 0.7064 0.561   -0.569205
 O 0.9288 0.7294 0.7298   -0.53807
 O 0.099 0.6783 0.7032   -0.484323
 O 0.8498 0.2386 0.0562   -0.628666
 O 0.8434 0.3606 0.995   -0.553184
 O 0.5375 0.226 0.1973   -0.571988
 O 0.3898 0.324 0.1885   -0.449684
 O 0.7847 0.7783 0.9848   -0.604605
 O 0.8393 0.7064 0.061   -0.569205
 O 0.5712 0.7294 0.2298   -0.53807
 O 0.401 0.6783 0.2032   -0.484323
 O 0.3498 0.7614 0.4438   -0.628666
 O 0.3434 0.6394 0.505   -0.553184
 O 0.0375 0.774 0.3027   -0.571988
 O 0.8898 0.676 0.3115   -0.449684
 O 0.2847 0.2217 0.5152   -0.604605
 O 0.3393 0.2936 0.439   -0.569205
 O 0.0712 0.2706 0.2702   -0.53807
 O 0.901 0.3217 0.2968   -0.484323
