{'_ref': 'TBD', '_srcid': 'CAKYAQ_clean', 'submitters': [{'name': 'Dalar Nazarian Jeff Camp and David Sholl', 'email': 'dalar@gatech.edu jcamp6@gatech.edu'}], '_method': 'VASP DFT with PBE;DDEC'}
data_NiH10(CN)12
_symmetry_space_group_name_H-M   'P 1'
_cell_length_a   7.54230049
_cell_length_b   12.53870000
_cell_length_c   13.68870000
_cell_angle_alpha   90.00000000
_cell_angle_beta   105.99100086
_cell_angle_gamma   90.00000000
_symmetry_Int_Tables_number   1
_chemical_formula_structural   NiH10(CN)12
_chemical_formula_sum   'Ni2 H20 C24 N24'
_cell_volume   1244.45655347
_cell_formula_units_Z   2
loop_
 _symmetry_equiv_pos_site_id
 _symmetry_equiv_pos_as_xyz
  1  'x, y, z'
loop_
 _atom_site_label
 _atom_site_fract_x
 _atom_site_fract_y
 _atom_site_fract_z
 _atom_site_charge
 Ni 0.5 0.5 0.5   0.045481
 Ni 0.0 0.5 0.5   0.044473
 H 0.5429 0.735 0.6066   0.329777
 H 0.57 0.912 0.638   0.059111
 H 0.4571 0.735 0.3934   0.330025
 H 0.7815 0.5807 0.0912   0.114306
 H 0.43 0.912 0.362   0.059209
 H 0.0637 0.265 0.6066   0.329919
 H 0.068 0.088 0.638   0.059597
 H 0.9363 0.265 0.3934   0.33016
 H 0.3097 0.4193 0.0912   0.115177
 H 0.932 0.088 0.362   0.059697
 H 0.4571 0.265 0.3934   0.329775
 H 0.43 0.088 0.362   0.059101
 H 0.5429 0.265 0.6066   0.330023
 H 0.2185 0.4193 0.9088   0.114312
 H 0.57 0.088 0.638   0.059199
 H 0.9363 0.735 0.3934   0.329917
 H 0.932 0.912 0.362   0.059586
 H 0.0637 0.735 0.6066   0.330158
 H 0.6903 0.5807 0.9088   0.115183
 H 0.068 0.912 0.638   0.059687
 C 0.66013 0.9451 0.63746   -0.068533
 C 0.6682 0.5412 0.0536   -0.106712
 C 0.33987 0.9451 0.36254   -0.06781
 C 0.97733 0.0549 0.63746   -0.069218
 C 0.3854 0.4588 0.0536   -0.108907
 C 0.02267 0.0549 0.36254   -0.068492
 C 0.33987 0.0549 0.36254   -0.068436
 C 0.3318 0.4588 0.9464   -0.106661
 C 0.66013 0.0549 0.63746   -0.067712
 C 0.02267 0.9451 0.36254   -0.069124
 C 0.6146 0.5412 0.9464   -0.108857
 C 0.97733 0.9451 0.63746   -0.068397
 C 0.39128 0.5 0.78256   0.339303
 C 0.4473 0.5 0.8946   -0.006083
 C 0.60872 0.5 0.21744   0.339301
 C 0.5527 0.5 0.1054   -0.006065
 C 0.80771 0.7733 0.61542   0.17456
 C 0.81704 0.8879 0.63408   -0.210973
 C 0.19229 0.7733 0.38458   0.174569
 C 0.18296 0.8879 0.36592   -0.210975
 C 0.80771 0.2267 0.61542   0.174569
 C 0.81704 0.1121 0.63408   -0.210977
 C 0.19229 0.2267 0.38458   0.17456
 C 0.18296 0.1121 0.36592   -0.210971
 N 0.69608 0.61946 0.56796   0.004691
 N 0.65246 0.71453 0.59872   -0.218863
 N 0.30392 0.61946 0.43204   0.005048
 N 0.34754 0.71453 0.40128   -0.217482
 N 0.87188 0.38054 0.56796   0.006309
 N 0.94626 0.28547 0.59872   -0.219803
 N 0.12812 0.38054 0.43204   0.006622
 N 0.05374 0.28547 0.40128   -0.218398
 N 0.30392 0.38054 0.43204   0.004715
 N 0.34754 0.28547 0.40128   -0.218866
 N 0.69608 0.38054 0.56796   0.005072
 N 0.65246 0.28547 0.59872   -0.217485
 N 0.12812 0.61946 0.43204   0.006333
 N 0.05374 0.71453 0.40128   -0.219806
 N 0.87188 0.61946 0.56796   0.006645
 N 0.94626 0.71453 0.59872   -0.218401
 N 0.40294 0.5 0.62948   0.020645
 N 0.50984 0.5 0.72508   -0.395855
 N 0.59706 0.5 0.37052   0.020645
 N 0.49016 0.5 0.27492   -0.395854
 N 0.22654 0.5 0.62948   0.020263
 N 0.21524 0.5 0.72508   -0.396134
 N 0.77346 0.5 0.37052   0.020263
 N 0.78476 0.5 0.27492   -0.396134
