{'_ref': 'TBD', '_srcid': 'CAKYAQ_clean', 'submitters': [{'name': 'Dalar Nazarian Jeff Camp and David Sholl', 'email': 'dalar@gatech.edu jcamp6@gatech.edu'}], '_method': 'VASP DFT with PBE;DDEC'}
data_CoH7C13NO4
_symmetry_space_group_name_H-M   'P 1'
_cell_length_a   11.84999977
_cell_length_b   13.85300000
_cell_length_c   13.94400000
_cell_angle_alpha   90.00000000
_cell_angle_beta   114.79300103
_cell_angle_gamma   90.00000000
_symmetry_Int_Tables_number   1
_chemical_formula_structural   CoH7C13NO4
_chemical_formula_sum   'Co4 H28 C52 N4 O16'
_cell_volume   2078.03789562
_cell_formula_units_Z   4
loop_
 _symmetry_equiv_pos_site_id
 _symmetry_equiv_pos_as_xyz
  1  'x, y, z'
loop_
 _atom_site_label
 _atom_site_fract_x
 _atom_site_fract_y
 _atom_site_fract_z
 _atom_site_charge
 Co 0.8935 0.44187 0.95004   0.928551
 Co 0.1065 0.94187 0.54996   0.928551
 Co 0.1065 0.55813 0.04996   0.928549
 Co 0.8935 0.05813 0.45004   0.928549
 H 0.6458 0.5261 0.8963   0.088166
 H 0.441 0.4818 0.8514   0.138286
 H 0.5416 0.2025 0.8506   0.138436
 H 0.7432 0.2536 0.8984   0.096752
 H 0.9992 0.2522 0.7372   0.114228
 H 0.3296 0.1924 0.7262   0.103428
 H 0.3039 0.4111 0.9084   0.093058
 H 0.3542 0.0261 0.6037   0.088166
 H 0.559 0.9818 0.6486   0.138285
 H 0.4584 0.7025 0.6494   0.138436
 H 0.2568 0.7536 0.6016   0.096751
 H 0.000799999999998 0.7522 0.7628   0.114228
 H 0.6704 0.6924 0.7738   0.103428
 H 0.6961 0.9111 0.5916   0.093058
 H 0.3542 0.4739 0.1037   0.088166
 H 0.559 0.5182 0.1486   0.138286
 H 0.4584 0.7975 0.1494   0.138437
 H 0.2568 0.7464 0.1016   0.096753
 H 0.000799999999998 0.7478 0.2628   0.114228
 H 0.6704 0.8076 0.2738   0.103427
 H 0.6961 0.5889 0.0916   0.093057
 H 0.6458 0.9739 0.3963   0.088166
 H 0.441 0.0182 0.3514   0.138284
 H 0.5416 0.2975 0.3506   0.138436
 H 0.7432 0.2464 0.3984   0.096752
 H 0.9992 0.2478 0.2372   0.114228
 H 0.3296 0.3076 0.2262   0.103427
 H 0.3039 0.0889 0.4084   0.093057
 C 0.6242 0.4596 0.888   0.16684
 C 0.5017 0.4335 0.8609   -0.229589
 C 0.4675 0.3363 0.8476   0.13264
 C 0.5608 0.2693 0.8608   -0.223871
 C 0.6808 0.3005 0.8888   0.165973
 C 0.0854 0.2649 0.7599   -0.012007
 C 0.1551 0.2099 0.7204   -0.109401
 C 0.2814 0.2307 0.7514   -0.076452
 C 0.3361 0.308 0.8197   -0.012711
 C 0.2662 0.3598 0.8604   -0.065716
 C 0.141 0.3378 0.832   -0.121511
 C 0.0947 0.1306 0.6426   0.674649
 C 0.0708 0.3935 0.8819   0.671971
 C 0.3758 0.9596 0.612   0.16684
 C 0.4983 0.9335 0.6391   -0.229589
 C 0.5325 0.8363 0.6524   0.13264
 C 0.4392 0.7693 0.6392   -0.223871
 C 0.3192 0.8005 0.6112   0.165973
 C 0.9146 0.7649 0.7401   -0.012008
 C 0.8449 0.7099 0.7796   -0.109401
 C 0.7186 0.7307 0.7486   -0.076452
 C 0.6639 0.808 0.6803   -0.012711
 C 0.7338 0.8598 0.6396   -0.065716
 C 0.859 0.8378 0.668   -0.121511
 C 0.9053 0.6306 0.8574   0.674649
 C 0.9292 0.8935 0.6181   0.671972
 C 0.3758 0.5404 0.112   0.16684
 C 0.4983 0.5665 0.1391   -0.229589
 C 0.5325 0.6637 0.1524   0.13264
 C 0.4392 0.7307 0.1392   -0.223872
 C 0.3192 0.6995 0.1112   0.165973
 C 0.9146 0.7351 0.2401   -0.012008
 C 0.8449 0.7901 0.2796   -0.109401
 C 0.7186 0.7693 0.2486   -0.076452
 C 0.6639 0.692 0.1803   -0.012711
 C 0.7338 0.6402 0.1396   -0.065716
 C 0.859 0.6622 0.168   -0.12151
 C 0.9053 0.8694 0.3574   0.674649
 C 0.9292 0.6065 0.1181   0.671972
 C 0.6242 0.0404 0.388   0.16684
 C 0.5017 0.0665 0.3609   -0.229589
 C 0.4675 0.1637 0.3476   0.13264
 C 0.5608 0.2307 0.3608   -0.223872
 C 0.6808 0.1995 0.3888   0.165973
 C 0.0854 0.2351 0.2599   -0.012009
 C 0.1551 0.2901 0.2204   -0.109401
 C 0.2814 0.2693 0.2514   -0.076452
 C 0.3361 0.192 0.3197   -0.012711
 C 0.2662 0.1402 0.3604   -0.065716
 C 0.141 0.1622 0.332   -0.12151
 C 0.0947 0.3694 0.1426   0.67465
 C 0.0708 0.1065 0.3819   0.671972
 N 0.7138 0.3938 0.903   -0.323563
 N 0.2862 0.8938 0.597   -0.323563
 N 0.2862 0.6062 0.097   -0.323563
 N 0.7138 0.1062 0.403   -0.323563
 O 0.9607 0.3667 0.8614   -0.574356
 O 0.1264 0.4615 0.9427   -0.611612
 O 0.9841 0.1454 0.5753   -0.575147
 O 0.1583 0.0563 0.6496   -0.577039
 O 0.0393 0.8667 0.6386   -0.574356
 O 0.8736 0.9615 0.5573   -0.611612
 O 0.0159 0.6454 0.9247   -0.575147
 O 0.8417 0.5563 0.8504   -0.577039
 O 0.0393 0.6333 0.1386   -0.574356
 O 0.8736 0.5385 0.0573   -0.611612
 O 0.0159 0.8546 0.4247   -0.575147
 O 0.8417 0.9437 0.3504   -0.577039
 O 0.9607 0.1333 0.3614   -0.574356
 O 0.1264 0.0385 0.4427   -0.611612
 O 0.9841 0.3546 0.0753   -0.575148
 O 0.1583 0.4437 0.1496   -0.577039
