{'_ref': 'TBD', '_srcid': 'CAKYAQ_clean', 'submitters': [{'name': 'Dalar Nazarian Jeff Camp and David Sholl', 'email': 'dalar@gatech.edu jcamp6@gatech.edu'}], '_method': 'VASP DFT with PBE;DDEC'}
data_CoH7C13NO4
_symmetry_space_group_name_H-M   'P 1'
_cell_length_a   9.28700000
_cell_length_b   16.66700011
_cell_length_c   28.24200000
_cell_angle_alpha   90.00000000
_cell_angle_beta   90.00000000
_cell_angle_gamma   97.03000051
_symmetry_Int_Tables_number   1
_chemical_formula_structural   CoH7C13NO4
_chemical_formula_sum   'Co8 H56 C104 N8 O32'
_cell_volume   4338.61447332
_cell_formula_units_Z   8
loop_
 _symmetry_equiv_pos_site_id
 _symmetry_equiv_pos_as_xyz
  1  'x, y, z'
loop_
 _atom_site_label
 _atom_site_fract_x
 _atom_site_fract_y
 _atom_site_fract_z
 _atom_site_charge
 Co 0.80722 0.71979 0.69522   1.125614
 Co 0.75545 0.73061 0.57543   0.826925
 Co 0.19278 0.78021 0.19522   1.125614
 Co 0.24455 0.76939 0.07543   0.826925
 Co 0.19278 0.28021 0.30478   1.125614
 Co 0.24455 0.26939 0.42457   0.826925
 Co 0.80722 0.21979 0.80478   1.125614
 Co 0.75545 0.23061 0.92457   0.826925
 H 0.0493 0.3 0.5101   0.072128
 H 0.939 0.2367 0.5758   0.144156
 H 0.134 0.0408 0.5428   0.13839
 H 0.2347 0.1094 0.4773   0.082028
 H 0.9518 0.1885 0.6506   0.106354
 H 0.8084 0.9809 0.7186   0.120429
 H 0.9355 0.9753 0.5815   0.086101
 H 0.4179 0.3251 0.5145   0.083863
 H 0.4302 0.4252 0.5715   0.143908
 H 0.1905 0.5508 0.4854   0.138729
 H 0.19 0.4487 0.4304   0.097718
 H 0.5115 0.5627 0.5957   0.097525
 H 0.2843 0.7108 0.6712   0.126399
 H 0.0957 0.5843 0.5604   0.084664
 H 0.9507 0.2 0.0101   0.072128
 H 0.061 0.2633 0.0758   0.144156
 H 0.866 0.4592 0.0428   0.13839
 H 0.7653 0.3906 0.9773   0.082028
 H 0.0482 0.3115 0.1506   0.106354
 H 0.1916 0.5191 0.2186   0.120429
 H 0.0645 0.5247 0.0815   0.086101
 H 0.5821 0.1749 0.0145   0.083863
 H 0.5698 0.0748 0.0715   0.143908
 H 0.8095 0.9492 0.9854   0.138729
 H 0.81 0.0513 0.9304   0.097718
 H 0.4885 0.9373 0.0957   0.097525
 H 0.7157 0.7892 0.1712   0.126399
 H 0.9043 0.9157 0.0604   0.084664
 H 0.9507 0.7 0.4899   0.072129
 H 0.061 0.7633 0.4242   0.144156
 H 0.866 0.9592 0.4572   0.138389
 H 0.7653 0.8906 0.5227   0.082028
 H 0.0482 0.8115 0.3494   0.106354
 H 0.1916 0.0191 0.2814   0.120429
 H 0.0645 0.0247 0.4185   0.086101
 H 0.5821 0.6749 0.4855   0.083863
 H 0.5698 0.5748 0.4285   0.143908
 H 0.8095 0.4492 0.5146   0.138731
 H 0.81 0.5513 0.5696   0.097718
 H 0.4885 0.4373 0.4043   0.097525
 H 0.7157 0.2892 0.3288   0.126398
 H 0.9043 0.4157 0.4396   0.084665
 H 0.0493 0.8 0.9899   0.072129
 H 0.939 0.7367 0.9242   0.144156
 H 0.134 0.5408 0.9572   0.138389
 H 0.2347 0.6094 0.0227   0.082028
 H 0.9518 0.6885 0.8494   0.106354
 H 0.8084 0.4809 0.7814   0.120429
 H 0.9355 0.4753 0.9185   0.086101
 H 0.4179 0.8251 0.9855   0.083863
 H 0.4302 0.9252 0.9285   0.143908
 H 0.1905 0.0508 0.0146   0.138731
 H 0.19 0.9487 0.0696   0.097718
 H 0.5115 0.0627 0.9043   0.097525
 H 0.2843 0.2108 0.8288   0.126398
 H 0.0957 0.0843 0.9396   0.084665
 C 0.0663 0.2461 0.51672   0.16246
 C 0.000300000000003 0.209 0.55644   -0.22389
 C 0.0253 0.131 0.56737   0.145681
 C 0.1142 0.0945 0.53686   -0.225446
 C 0.1744 0.1361 0.49769   0.163485
 C 0.9593 0.0885 0.60977   -0.034658
 C 0.9324 0.1312 0.65053   -0.053056
 C 0.8774 0.0912 0.6913   -0.111723
 C 0.8447 0.0082 0.69077   0.008185
 C 0.8643 0.9635 0.64963   -0.140543
 C 0.9217 0.0049 0.6096   -0.058822
 C 0.8489 0.138 0.73472   0.637922
 C 0.8251 0.8741 0.64856   0.699613
 C 0.3699 0.3713 0.50883   0.148981
 C 0.3772 0.4307 0.5431   -0.210015
 C 0.3066 0.4984 0.5359   0.13251
 C 0.2371 0.5045 0.49245   -0.236092
 C 0.2366 0.443 0.45996   0.177099
 C 0.3024 0.561 0.57299   -0.013675
 C 0.424 0.5856 0.60094   -0.077781
 C 0.4183 0.643 0.63622   -0.119016
 C 0.2901 0.6745 0.64551   -0.006116
 C 0.17 0.6526 0.6169   -0.113875
 C 0.1772 0.5974 0.58048   -0.072598
 C 0.555 0.6737 0.66235   0.654938
 C 0.0285 0.6873 0.62501   0.678908
 C 0.9337 0.2539 0.01672   0.16246
 C 0.9997 0.291 0.05644   -0.22389
 C 0.9747 0.369 0.06737   0.145681
 C 0.8858 0.4055 0.03686   -0.225446
 C 0.8256 0.3639 0.99769   0.163485
 C 0.0407 0.4115 0.10977   -0.034658
 C 0.0676 0.3688 0.15053   -0.053056
 C 0.1226 0.4088 0.1913   -0.111723
 C 0.1553 0.4918 0.19077   0.008185
 C 0.1357 0.5365 0.14963   -0.140543
 C 0.0783 0.4951 0.1096   -0.058822
 C 0.1511 0.362 0.23472   0.637922
 C 0.1749 0.6259 0.14856   0.699613
 C 0.6301 0.1287 0.00883   0.148981
 C 0.6228 0.0693 0.0431   -0.210015
 C 0.6934 0.0016 0.0359   0.13251
 C 0.7629 0.9955 0.99245   -0.236092
 C 0.7634 0.057 0.95996   0.177099
 C 0.6976 0.939 0.07299   -0.013675
 C 0.576 0.9144 0.10094   -0.077781
 C 0.5817 0.857 0.13622   -0.119016
 C 0.7099 0.8255 0.14551   -0.006116
 C 0.83 0.8474 0.1169   -0.113875
 C 0.8228 0.9026 0.08048   -0.072598
 C 0.445 0.8263 0.16235   0.654938
 C 0.9715 0.8127 0.12501   0.678908
 C 0.9337 0.7539 0.48328   0.16246
 C 0.9997 0.791 0.44356   -0.22389
 C 0.9747 0.869 0.43263   0.145681
 C 0.8858 0.9055 0.46314   -0.225446
 C 0.8256 0.8639 0.50231   0.163485
 C 0.0407 0.9115 0.39023   -0.034658
 C 0.0676 0.8688 0.34947   -0.053055
 C 0.1226 0.9088 0.3087   -0.111723
 C 0.1553 0.9918 0.30923   0.008185
 C 0.1357 0.0365 0.35037   -0.140543
 C 0.0783 0.9951 0.3904   -0.058822
 C 0.1511 0.862 0.26528   0.637922
 C 0.1749 0.1259 0.35144   0.699613
 C 0.6301 0.6287 0.49117   0.148981
 C 0.6228 0.5693 0.4569   -0.210016
 C 0.6934 0.5016 0.4641   0.13251
 C 0.7629 0.4955 0.50755   -0.236093
 C 0.7634 0.557 0.54004   0.177099
 C 0.6976 0.439 0.42701   -0.013675
 C 0.576 0.4144 0.39906   -0.077781
 C 0.5817 0.357 0.36378   -0.119016
 C 0.7099 0.3255 0.35449   -0.006117
 C 0.83 0.3474 0.3831   -0.113875
 C 0.8228 0.4026 0.41952   -0.072598
 C 0.445 0.3263 0.33765   0.654938
 C 0.9715 0.3127 0.37499   0.678908
 C 0.0663 0.7461 0.98328   0.16246
 C 0.000300000000003 0.709 0.94356   -0.22389
 C 0.0253 0.631 0.93263   0.145681
 C 0.1142 0.5945 0.96314   -0.225446
 C 0.1744 0.6361 0.00231   0.163485
 C 0.9593 0.5885 0.89023   -0.034658
 C 0.9324 0.6312 0.84947   -0.053055
 C 0.8774 0.5912 0.8087   -0.111723
 C 0.8447 0.5082 0.80923   0.008185
 C 0.8643 0.4635 0.85037   -0.140543
 C 0.9217 0.5049 0.8904   -0.058822
 C 0.8489 0.638 0.76528   0.637922
 C 0.8251 0.3741 0.85144   0.699613
 C 0.3699 0.8713 0.99117   0.148981
 C 0.3772 0.9307 0.9569   -0.210016
 C 0.3066 0.9984 0.9641   0.13251
 C 0.2371 0.0045 0.00755   -0.236093
 C 0.2366 0.943 0.04004   0.177099
 C 0.3024 0.061 0.92701   -0.013675
 C 0.424 0.0856 0.89906   -0.077781
 C 0.4183 0.143 0.86378   -0.119016
 C 0.2901 0.1745 0.85449   -0.006117
 C 0.17 0.1526 0.8831   -0.113875
 C 0.1772 0.0974 0.91952   -0.072598
 C 0.555 0.1737 0.83765   0.654938
 C 0.0285 0.1873 0.87499   0.678908
 N 0.1522 0.21107 0.48717   -0.346617
 N 0.2981 0.37573 0.46763   -0.37571
 N 0.8478 0.28893 0.98717   -0.346617
 N 0.7019 0.12427 0.96763   -0.37571
 N 0.8478 0.78893 0.51283   -0.346617
 N 0.7019 0.62427 0.53237   -0.37571
 N 0.1522 0.71107 0.01283   -0.346617
 N 0.2981 0.87573 0.03237   -0.37571
 O 0.8054 0.83874 0.68794   -0.578581
 O 0.815 0.84106 0.60877   -0.613321
 O 0.8114 0.10105 0.77209   -0.571746
 O 0.8645 0.21439 0.73331   -0.571448
 O 0.6755 0.67392 0.64001   -0.645926
 O 0.5526 0.69916 0.70352   -0.524044
 O 0.0058 0.71284 0.66649   -0.586535
 O 0.9471 0.68776 0.58982   -0.573478
 O 0.1946 0.66126 0.18794   -0.578581
 O 0.185 0.65894 0.10877   -0.613321
 O 0.1886 0.39895 0.27209   -0.571746
 O 0.1355 0.28561 0.23331   -0.571448
 O 0.3245 0.82608 0.14001   -0.645926
 O 0.4474 0.80084 0.20352   -0.524044
 O 0.9942 0.78716 0.16649   -0.586535
 O 0.0529 0.81224 0.08982   -0.573478
 O 0.1946 0.16126 0.31206   -0.578581
 O 0.185 0.15894 0.39123   -0.613321
 O 0.1886 0.89895 0.22791   -0.571746
 O 0.1355 0.78561 0.26669   -0.571447
 O 0.3245 0.32608 0.35999   -0.645925
 O 0.4474 0.30084 0.29648   -0.524044
 O 0.9942 0.28716 0.33351   -0.586535
 O 0.0529 0.31224 0.41018   -0.573478
 O 0.8054 0.33874 0.81206   -0.578581
 O 0.815 0.34106 0.89123   -0.613321
 O 0.8114 0.60105 0.72791   -0.571746
 O 0.8645 0.71439 0.76669   -0.571447
 O 0.6755 0.17392 0.85999   -0.645925
 O 0.5526 0.19916 0.79648   -0.524044
 O 0.0058 0.21284 0.83351   -0.586535
 O 0.9471 0.18776 0.91018   -0.573478
