{'_ref': 'TBD', '_srcid': 'CAKYAQ_clean', 'submitters': [{'name': 'Dalar Nazarian Jeff Camp and David Sholl', 'email': 'dalar@gatech.edu jcamp6@gatech.edu'}], '_method': 'VASP DFT with PBE;DDEC'}
data_Nd2Co3H24(C4O5)6
_symmetry_space_group_name_H-M   'P 1'
_cell_length_a   15.08410000
_cell_length_b   15.08410018
_cell_length_c   15.42760000
_cell_angle_alpha   90.00000000
_cell_angle_beta   90.00000000
_cell_angle_gamma   119.99999961
_symmetry_Int_Tables_number   1
_chemical_formula_structural   Nd2Co3H24(C4O5)6
_chemical_formula_sum   'Nd4 Co6 H48 C48 O60'
_cell_volume   3039.95961739
_cell_formula_units_Z   2
loop_
 _symmetry_equiv_pos_site_id
 _symmetry_equiv_pos_as_xyz
  1  'x, y, z'
loop_
 _atom_site_label
 _atom_site_fract_x
 _atom_site_fract_y
 _atom_site_fract_z
 _atom_site_charge
 Nd 0.33333 0.66666 0.75   2.223134
 Nd 0.66667 0.33334 0.75   2.223134
 Nd 0.66667 0.33334 0.25   2.223133
 Nd 0.33333 0.66666 0.25   2.223133
 Co 0.5 0.5 0.0   1.141864
 Co 0.0 0.5 0.0   1.141155
 Co 0.5 0.0 0.0   1.141543
 Co 0.0 0.5 0.5   1.141856
 Co 0.5 0.5 0.5   1.141158
 Co 0.5 0.0 0.5   1.141545
 H 0.2852 0.3758 0.7644   0.083966
 H 0.2077 0.3672 0.8364   0.096925
 H 0.0906 0.7148 0.7644   0.083953
 H 0.1595 0.7923 0.8364   0.096948
 H 0.6242 0.9094 0.7644   0.083961
 H 0.6328 0.8405 0.8364   0.09692
 H 0.7148 0.6242 0.7644   0.083966
 H 0.7923 0.6328 0.8364   0.096928
 H 0.9094 0.2852 0.7644   0.083953
 H 0.8405 0.2077 0.8364   0.096951
 H 0.3758 0.0906 0.7644   0.083961
 H 0.3672 0.1595 0.8364   0.096923
 H 0.9094 0.6242 0.7356   0.083967
 H 0.8405 0.6328 0.6636   0.096925
 H 0.3758 0.2852 0.7356   0.083954
 H 0.3672 0.2077 0.6636   0.096949
 H 0.7148 0.0906 0.7356   0.083961
 H 0.7923 0.1595 0.6636   0.09692
 H 0.0906 0.3758 0.7356   0.083967
 H 0.1595 0.3672 0.6636   0.096928
 H 0.6242 0.7148 0.7356   0.083954
 H 0.6328 0.7923 0.6636   0.096951
 H 0.2852 0.9094 0.7356   0.083961
 H 0.2077 0.8405 0.6636   0.096923
 H 0.7148 0.6242 0.2356   0.083966
 H 0.7923 0.6328 0.1636   0.096926
 H 0.9094 0.2852 0.2356   0.083953
 H 0.8405 0.2077 0.1636   0.096948
 H 0.3758 0.0906 0.2356   0.083961
 H 0.3672 0.1595 0.1636   0.09692
 H 0.2852 0.3758 0.2356   0.083966
 H 0.2077 0.3672 0.1636   0.096929
 H 0.0906 0.7148 0.2356   0.083953
 H 0.1595 0.7923 0.1636   0.096951
 H 0.6242 0.9094 0.2356   0.083961
 H 0.6328 0.8405 0.1636   0.096923
 H 0.0906 0.3758 0.2644   0.083967
 H 0.1595 0.3672 0.3364   0.096926
 H 0.6242 0.7148 0.2644   0.083954
 H 0.6328 0.7923 0.3364   0.096949
 H 0.2852 0.9094 0.2644   0.083961
 H 0.2077 0.8405 0.3364   0.096921
 H 0.9094 0.6242 0.2644   0.083967
 H 0.8405 0.6328 0.3364   0.096929
 H 0.3758 0.2852 0.2644   0.083954
 H 0.3672 0.2077 0.3364   0.096952
 H 0.7148 0.0906 0.2644   0.083962
 H 0.7923 0.1595 0.3364   0.096924
 C 0.353 0.484 0.8589   0.729616
 C 0.2652 0.4149 0.8013   -0.050646
 C 0.131 0.647 0.8589   0.72953
 C 0.1497 0.7348 0.8013   -0.050621
 C 0.516 0.869 0.8589   0.729607
 C 0.5851 0.8503 0.8013   -0.050627
 C 0.647 0.516 0.8589   0.729616
 C 0.7348 0.5851 0.8013   -0.050647
 C 0.869 0.353 0.8589   0.72953
 C 0.8503 0.2652 0.8013   -0.050622
 C 0.484 0.131 0.8589   0.729607
 C 0.4149 0.1497 0.8013   -0.050629
 C 0.869 0.516 0.6411   0.729616
 C 0.8503 0.5851 0.6987   -0.050647
 C 0.484 0.353 0.6411   0.72953
 C 0.4149 0.2652 0.6987   -0.050622
 C 0.647 0.131 0.6411   0.729607
 C 0.7348 0.1497 0.6987   -0.050628
 C 0.131 0.484 0.6411   0.729616
 C 0.1497 0.4149 0.6987   -0.050648
 C 0.516 0.647 0.6411   0.72953
 C 0.5851 0.7348 0.6987   -0.050623
 C 0.353 0.869 0.6411   0.729607
 C 0.2652 0.8503 0.6987   -0.050629
 C 0.647 0.516 0.1411   0.729616
 C 0.7348 0.5851 0.1987   -0.050646
 C 0.869 0.353 0.1411   0.729529
 C 0.8503 0.2652 0.1987   -0.050621
 C 0.484 0.131 0.1411   0.729607
 C 0.4149 0.1497 0.1987   -0.050628
 C 0.353 0.484 0.1411   0.729616
 C 0.2652 0.4149 0.1987   -0.050648
 C 0.131 0.647 0.1411   0.72953
 C 0.1497 0.7348 0.1987   -0.050622
 C 0.516 0.869 0.1411   0.729607
 C 0.5851 0.8503 0.1987   -0.050629
 C 0.131 0.484 0.3589   0.729616
 C 0.1497 0.4149 0.3013   -0.050647
 C 0.516 0.647 0.3589   0.729529
 C 0.5851 0.7348 0.3013   -0.050622
 C 0.353 0.869 0.3589   0.729607
 C 0.2652 0.8503 0.3013   -0.050628
 C 0.869 0.516 0.3589   0.729616
 C 0.8503 0.5851 0.3013   -0.050648
 C 0.484 0.353 0.3589   0.729529
 C 0.4149 0.2652 0.3013   -0.050623
 C 0.647 0.131 0.3589   0.729607
 C 0.7348 0.1497 0.3013   -0.050629
 O 0.3836 0.5783 0.8565   -0.704101
 O 0.3882 0.4415 0.9058   -0.637274
 O 0.1947 0.6164 0.8565   -0.70415
 O 0.0533 0.6118 0.9058   -0.636998
 O 0.4217 0.8053 0.8565   -0.704166
 O 0.5585 0.9467 0.9058   -0.63718
 O 0.6164 0.4217 0.8565   -0.704101
 O 0.6118 0.5585 0.9058   -0.637274
 O 0.8053 0.3836 0.8565   -0.70415
 O 0.9467 0.3882 0.9058   -0.636998
 O 0.5783 0.1947 0.8565   -0.704166
 O 0.4415 0.0533 0.9058   -0.63718
 O 0.8053 0.4217 0.6435   -0.704101
 O 0.9467 0.5585 0.5942   -0.637274
 O 0.5783 0.3836 0.6435   -0.70415
 O 0.4415 0.3882 0.5942   -0.636998
 O 0.6164 0.1947 0.6435   -0.704166
 O 0.6118 0.0533 0.5942   -0.63718
 O 0.1947 0.5783 0.6435   -0.704101
 O 0.0533 0.4415 0.5942   -0.637274
 O 0.4217 0.6164 0.6435   -0.70415
 O 0.5585 0.6118 0.5942   -0.636998
 O 0.3836 0.8053 0.6435   -0.704166
 O 0.3882 0.9467 0.5942   -0.63718
 O 0.6164 0.4217 0.1435   -0.704101
 O 0.6118 0.5585 0.0942   -0.637274
 O 0.8053 0.3836 0.1435   -0.70415
 O 0.9467 0.3882 0.0942   -0.636998
 O 0.5783 0.1947 0.1435   -0.704166
 O 0.4415 0.0533 0.0942   -0.63718
 O 0.3836 0.5783 0.1435   -0.704101
 O 0.3882 0.4415 0.0942   -0.637274
 O 0.1947 0.6164 0.1435   -0.70415
 O 0.0533 0.6118 0.0942   -0.636998
 O 0.4217 0.8053 0.1435   -0.704166
 O 0.5585 0.9467 0.0942   -0.63718
 O 0.1947 0.5783 0.3565   -0.704101
 O 0.0533 0.4415 0.4058   -0.637274
 O 0.4217 0.6164 0.3565   -0.70415
 O 0.5585 0.6118 0.4058   -0.636998
 O 0.3836 0.8053 0.3565   -0.704166
 O 0.3882 0.9467 0.4058   -0.63718
 O 0.8053 0.4217 0.3565   -0.704101
 O 0.9467 0.5585 0.4058   -0.637274
 O 0.5783 0.3836 0.3565   -0.70415
 O 0.4415 0.3882 0.4058   -0.636998
 O 0.6164 0.1947 0.3565   -0.704166
 O 0.6118 0.0533 0.4058   -0.63718
 O 0.23605 0.4721 0.75   -0.348917
 O 0.23605 0.76395 0.75   -0.348915
 O 0.5279 0.76395 0.75   -0.348915
 O 0.76395 0.5279 0.75   -0.348917
 O 0.76395 0.23605 0.75   -0.348915
 O 0.4721 0.23605 0.75   -0.348915
 O 0.76395 0.5279 0.25   -0.348916
 O 0.76395 0.23605 0.25   -0.348915
 O 0.4721 0.23605 0.25   -0.348915
 O 0.23605 0.4721 0.25   -0.348916
 O 0.23605 0.76395 0.25   -0.348915
 O 0.5279 0.76395 0.25   -0.348915
