{'_ref': 'TBD', '_srcid': 'CAKYAQ_clean', 'submitters': [{'name': 'Dalar Nazarian Jeff Camp and David Sholl', 'email': 'dalar@gatech.edu jcamp6@gatech.edu'}], '_method': 'VASP DFT with PBE;DDEC'}
data_DyAgH8C18(NO2)4
_symmetry_space_group_name_H-M   'P 1'
_cell_length_a   8.45170000
_cell_length_b   17.74800000
_cell_length_c   25.32600000
_cell_angle_alpha   90.00000000
_cell_angle_beta   90.00000000
_cell_angle_gamma   90.00000000
_symmetry_Int_Tables_number   1
_chemical_formula_structural   DyAgH8C18(NO2)4
_chemical_formula_sum   'Dy8 Ag8 H64 C144 N32 O64'
_cell_volume   3798.91954154
_cell_formula_units_Z   8
loop_
 _symmetry_equiv_pos_site_id
 _symmetry_equiv_pos_as_xyz
  1  'x, y, z'
loop_
 _atom_site_label
 _atom_site_fract_x
 _atom_site_fract_y
 _atom_site_fract_z
 _atom_site_charge
 Dy 0.66544 0.7823 0.47616   2.326654
 Dy 0.16544 0.7177 0.52384   2.326653
 Dy 0.16544 0.21769 0.97616   2.326616
 Dy 0.66544 0.2823 0.02384   2.326657
 Dy 0.83456 0.7823 0.02384   2.326654
 Dy 0.33456 0.7177 0.97616   2.326653
 Dy 0.33456 0.21769 0.52384   2.326616
 Dy 0.83456 0.2823 0.47616   2.326657
 Ag 0.46203 0.55003 0.22732   0.376221
 Ag 0.96203 0.94997 0.77268   0.376224
 Ag 0.96203 0.44997 0.72732   0.376221
 Ag 0.46203 0.05003 0.27268   0.376224
 Ag 0.03797 0.55003 0.27268   0.376222
 Ag 0.53797 0.94997 0.72732   0.376224
 Ag 0.53797 0.44997 0.77268   0.376221
 Ag 0.03797 0.05003 0.22732   0.376224
 H 0.059 0.1425 0.404   0.313863
 H 0.7129 0.3942 0.371   0.302929
 H 0.9644 0.0079 0.4551   0.118048
 H 0.2486 0.1744 0.3391   0.111863
 H 0.4027 0.9178 0.3611   0.12042
 H 0.6917 0.66 0.2981   0.134093
 H 0.553 0.4003 0.2958   0.102046
 H 0.8805 0.5029 0.4342   0.138652
 H 0.559 0.3575 0.596   0.313864
 H 0.2129 0.1058 0.629   0.30292
 H 0.4644 0.4921 0.5449   0.118049
 H 0.7486 0.3256 0.6609   0.111861
 H 0.9027 0.5822 0.6389   0.120419
 H 0.1917 0.84 0.7019   0.134094
 H 0.053 0.0997 0.7042   0.102047
 H 0.3805 0.9971 0.5658   0.138647
 H 0.559 0.8575 0.904   0.313864
 H 0.2129 0.6058 0.871   0.302928
 H 0.4644 0.9921 0.9551   0.118048
 H 0.7486 0.8256 0.8391   0.111863
 H 0.9027 0.0822 0.8611   0.12042
 H 0.1917 0.34 0.7981   0.134093
 H 0.053 0.5997 0.7958   0.102045
 H 0.3805 0.4971 0.9342   0.138652
 H 0.059 0.6425 0.096   0.313862
 H 0.7129 0.8942 0.129   0.302928
 H 0.9644 0.5079 0.0449   0.118049
 H 0.2486 0.6744 0.1609   0.11186
 H 0.4027 0.4178 0.1389   0.120418
 H 0.6917 0.16 0.2019   0.134095
 H 0.553 0.9003 0.2042   0.102047
 H 0.8805 0.0029 0.0658   0.138652
 H 0.441 0.1425 0.096   0.313863
 H 0.7871 0.3942 0.129   0.302929
 H 0.5356 0.0079 0.0449   0.118048
 H 0.2514 0.1744 0.1609   0.111862
 H 0.0973 0.9178 0.1389   0.12042
 H 0.8083 0.66 0.2019   0.134093
 H 0.947 0.4003 0.2042   0.102046
 H 0.6195 0.5029 0.0658   0.138652
 H 0.941 0.3575 0.904   0.313864
 H 0.2871 0.1058 0.871   0.302921
 H 0.0356 0.4921 0.9551   0.118049
 H 0.7514 0.3256 0.8391   0.11186
 H 0.5973 0.5822 0.8611   0.120419
 H 0.3083 0.84 0.7981   0.134095
 H 0.447 0.0997 0.7958   0.102047
 H 0.1195 0.9971 0.9342   0.138647
 H 0.941 0.8575 0.596   0.313864
 H 0.2871 0.6058 0.629   0.302928
 H 0.0356 0.9921 0.5449   0.118048
 H 0.7514 0.8256 0.6609   0.111862
 H 0.5973 0.0822 0.6389   0.12042
 H 0.3083 0.34 0.7019   0.134093
 H 0.447 0.5997 0.7042   0.102045
 H 0.1195 0.4971 0.5658   0.138652
 H 0.441 0.6425 0.404   0.313862
 H 0.7871 0.8942 0.371   0.302929
 H 0.5356 0.5079 0.4551   0.118049
 H 0.2514 0.6744 0.3391   0.111859
 H 0.0973 0.4178 0.3611   0.120418
 H 0.8083 0.16 0.2981   0.134095
 H 0.947 0.9003 0.2958   0.102047
 H 0.6195 0.0029 0.4342   0.138652
 C 0.0103 0.87069 0.48246   0.774537
 C 0.1057 0.91661 0.44443   -0.074081
 C 0.0536 0.99017 0.43753   -0.148515
 C 0.1388 0.0363 0.40364   0.142812
 C 0.2334 0.1268 0.35368   0.26285
 C 0.2621 0.0085 0.3728   0.132701
 C 0.3171 0.936 0.38033   -0.121285
 C 0.2417 0.89108 0.41723   -0.098422
 C 0.3098 0.8135 0.42622   0.768399
 C 0.8493 0.7421 0.36563   0.726989
 C 0.8116 0.659 0.36774   -0.067503
 C 0.7254 0.62935 0.3257   -0.203392
 C 0.6913 0.5529 0.32604   0.135075
 C 0.6052 0.4409 0.31113   0.250798
 C 0.7506 0.5052 0.3657   0.061183
 C 0.8407 0.5343 0.40792   -0.086265
 C 0.8677 0.6114 0.4089   -0.110556
 C 0.9522 0.6448 0.4543   0.726556
 C 0.5103 0.62931 0.51754   0.774538
 C 0.6057 0.58339 0.55557   -0.074085
 C 0.5536 0.50983 0.56247   -0.148507
 C 0.6388 0.4637 0.59636   0.142815
 C 0.7334 0.3732 0.64632   0.262848
 C 0.7621 0.4915 0.6272   0.132701
 C 0.8171 0.564 0.61967   -0.121284
 C 0.7417 0.60892 0.58277   -0.098425
 C 0.8098 0.6865 0.57378   0.768402
 C 0.3493 0.7579 0.63437   0.726985
 C 0.3116 0.841 0.63226   -0.067501
 C 0.2254 0.87065 0.6743   -0.203392
 C 0.1913 0.9471 0.67396   0.135075
 C 0.1052 0.0591 0.68887   0.250799
 C 0.2506 0.9948 0.6343   0.061179
 C 0.3407 0.9657 0.59208   -0.086271
 C 0.3677 0.8886 0.5911   -0.110552
 C 0.4522 0.8552 0.5457   0.726554
 C 0.5103 0.12931 0.98246   0.774545
 C 0.6057 0.08339 0.94443   -0.074088
 C 0.5536 0.00983 0.93753   -0.148507
 C 0.6388 0.9637 0.90364   0.142814
 C 0.7334 0.8732 0.85368   0.262851
 C 0.7621 0.9915 0.8728   0.132702
 C 0.8171 0.064 0.88033   -0.121284
 C 0.7417 0.10892 0.91723   -0.098425
 C 0.8098 0.1865 0.92622   0.768409
 C 0.3493 0.2579 0.86563   0.726989
 C 0.3116 0.341 0.86774   -0.067492
 C 0.2254 0.37065 0.8257   -0.203396
 C 0.1913 0.4471 0.82604   0.135075
 C 0.1052 0.5591 0.81113   0.250796
 C 0.2506 0.4948 0.8657   0.061182
 C 0.3407 0.4657 0.90792   -0.086271
 C 0.3677 0.3886 0.9089   -0.110549
 C 0.4522 0.3552 0.9543   0.726551
 C 0.0103 0.37069 0.01754   0.774522
 C 0.1057 0.41661 0.05557   -0.074073
 C 0.0536 0.49017 0.06247   -0.148517
 C 0.1388 0.5363 0.09636   0.142814
 C 0.2334 0.6268 0.14632   0.262845
 C 0.2621 0.5085 0.1272   0.132699
 C 0.3171 0.436 0.11967   -0.121287
 C 0.2417 0.39108 0.08277   -0.098426
 C 0.3098 0.3135 0.07378   0.768412
 C 0.8493 0.2421 0.13437   0.726985
 C 0.8116 0.159 0.13226   -0.0675
 C 0.7254 0.12935 0.1743   -0.203392
 C 0.6913 0.0529 0.17396   0.135076
 C 0.6052 0.9409 0.18887   0.250799
 C 0.7506 0.0052 0.1343   0.061182
 C 0.8407 0.0343 0.09208   -0.086269
 C 0.8677 0.1114 0.0911   -0.11055
 C 0.9522 0.1448 0.0457   0.726551
 C 0.4897 0.87069 0.01754   0.774537
 C 0.3943 0.91661 0.05557   -0.074081
 C 0.4464 0.99017 0.06247   -0.148515
 C 0.3612 0.0363 0.09636   0.142812
 C 0.2666 0.1268 0.14632   0.26285
 C 0.2379 0.0085 0.1272   0.132701
 C 0.1829 0.936 0.11967   -0.121285
 C 0.2583 0.89108 0.08277   -0.098422
 C 0.1902 0.8135 0.07378   0.768399
 C 0.6507 0.7421 0.13437   0.726989
 C 0.6884 0.659 0.13226   -0.067503
 C 0.7746 0.62935 0.1743   -0.203392
 C 0.8087 0.5529 0.17396   0.135075
 C 0.8948 0.4409 0.18887   0.250798
 C 0.7494 0.5052 0.1343   0.061183
 C 0.6593 0.5343 0.09208   -0.086265
 C 0.6323 0.6114 0.0911   -0.110556
 C 0.5478 0.6448 0.0457   0.726556
 C 0.9897 0.62931 0.98246   0.774538
 C 0.8943 0.58339 0.94443   -0.074085
 C 0.9464 0.50983 0.93753   -0.148507
 C 0.8612 0.4637 0.90364   0.142815
 C 0.7666 0.3732 0.85368   0.262848
 C 0.7379 0.4915 0.8728   0.132701
 C 0.6829 0.564 0.88033   -0.121284
 C 0.7583 0.60892 0.91723   -0.098425
 C 0.6902 0.6865 0.92622   0.768402
 C 0.1507 0.7579 0.86563   0.726985
 C 0.1884 0.841 0.86774   -0.067501
 C 0.2746 0.87065 0.8257   -0.203392
 C 0.3087 0.9471 0.82604   0.135076
 C 0.3948 0.0591 0.81113   0.250799
 C 0.2494 0.9948 0.8657   0.061179
 C 0.1593 0.9657 0.90792   -0.086271
 C 0.1323 0.8886 0.9089   -0.110552
 C 0.0478 0.8552 0.9543   0.726554
 C 0.9897 0.12931 0.51754   0.774545
 C 0.8943 0.08339 0.55557   -0.074088
 C 0.9464 0.00983 0.56247   -0.148507
 C 0.8612 0.9637 0.59636   0.142814
 C 0.7666 0.8732 0.64632   0.262851
 C 0.7379 0.9915 0.6272   0.132702
 C 0.6829 0.064 0.61967   -0.121284
 C 0.7583 0.10892 0.58277   -0.098426
 C 0.6902 0.1865 0.57378   0.768409
 C 0.1507 0.2579 0.63437   0.726989
 C 0.1884 0.341 0.63226   -0.067492
 C 0.2746 0.37065 0.6743   -0.203396
 C 0.3087 0.4471 0.67396   0.135075
 C 0.3948 0.5591 0.68887   0.250796
 C 0.2494 0.4948 0.6343   0.061182
 C 0.1593 0.4657 0.59208   -0.086271
 C 0.1323 0.3886 0.5911   -0.110549
 C 0.0478 0.3552 0.5457   0.726551
 C 0.4897 0.37069 0.48246   0.774522
 C 0.3943 0.41661 0.44443   -0.074073
 C 0.4464 0.49017 0.43753   -0.148517
 C 0.3612 0.5363 0.40364   0.142814
 C 0.2666 0.6268 0.35368   0.262845
 C 0.2379 0.5085 0.3728   0.132699
 C 0.1829 0.436 0.38033   -0.121287
 C 0.2583 0.39108 0.41723   -0.098426
 C 0.1902 0.3135 0.42622   0.768412
 C 0.6507 0.2421 0.36563   0.726986
 C 0.6884 0.159 0.36774   -0.0675
 C 0.7746 0.12935 0.3257   -0.203392
 C 0.8087 0.0529 0.32604   0.135076
 C 0.8948 0.9409 0.31113   0.2508
 C 0.7494 0.0052 0.3657   0.061182
 C 0.6593 0.0343 0.40792   -0.086269
 C 0.6323 0.1114 0.4089   -0.11055
 C 0.5478 0.1448 0.4543   0.726551
 N 0.1254 0.11113 0.39066   -0.248335
 N 0.3165 0.06603 0.34021   -0.416102
 N 0.5977 0.51054 0.29215   -0.399083
 N 0.694 0.43495 0.35377   -0.215424
 N 0.6254 0.38887 0.60934   -0.248331
 N 0.8165 0.43397 0.65979   -0.416101
 N 0.0977 0.98946 0.70785   -0.399084
 N 0.194 0.06505 0.64623   -0.215423
 N 0.6254 0.88887 0.89066   -0.24833
 N 0.8165 0.93397 0.84021   -0.416101
 N 0.0977 0.48946 0.79215   -0.399083
 N 0.194 0.56505 0.85377   -0.215425
 N 0.1254 0.61113 0.10934   -0.248332
 N 0.3165 0.56603 0.15979   -0.416101
 N 0.5977 0.01054 0.20785   -0.399084
 N 0.694 0.93495 0.14623   -0.215423
 N 0.3746 0.11113 0.10934   -0.248335
 N 0.1835 0.06603 0.15979   -0.416102
 N 0.9023 0.51054 0.20785   -0.399083
 N 0.806 0.43495 0.14623   -0.215424
 N 0.8746 0.38887 0.89066   -0.248331
 N 0.6835 0.43397 0.84021   -0.416101
 N 0.4023 0.98946 0.79215   -0.399084
 N 0.306 0.06505 0.85377   -0.215423
 N 0.8746 0.88887 0.60934   -0.24833
 N 0.6835 0.93397 0.65979   -0.416101
 N 0.4023 0.48946 0.70785   -0.399083
 N 0.306 0.56505 0.64623   -0.215425
 N 0.3746 0.61113 0.39066   -0.248332
 N 0.1835 0.56603 0.34021   -0.416101
 N 0.9023 0.01054 0.29215   -0.399084
 N 0.806 0.93495 0.35377   -0.215423
 O 0.8647 0.87117 0.47572   -0.704577
 O 0.0775 0.83891 0.52186   -0.781953
 O 0.2226 0.75981 0.44061   -0.745306
 O 0.4579 0.80714 0.41927   -0.749803
 O 0.7498 0.78555 0.3895   -0.765532
 O 0.9601 0.76506 0.33926   -0.586538
 O 0.9122 0.71108 0.46974   -0.846574
 O 0.0635 0.61143 0.47635   -0.657444
 O 0.3647 0.62883 0.52428   -0.704577
 O 0.5775 0.66109 0.47814   -0.781952
 O 0.7226 0.74019 0.55939   -0.745312
 O 0.9579 0.69286 0.58073   -0.749805
 O 0.2498 0.71445 0.6105   -0.765526
 O 0.4601 0.73494 0.66074   -0.586535
 O 0.4122 0.78892 0.53026   -0.846571
 O 0.5635 0.88857 0.52365   -0.657448
 O 0.3647 0.12883 0.97572   -0.704577
 O 0.5775 0.16109 0.02186   -0.781944
 O 0.7226 0.24019 0.94061   -0.745298
 O 0.9579 0.19286 0.91927   -0.749829
 O 0.2498 0.21445 0.8895   -0.765526
 O 0.4601 0.23494 0.83926   -0.58654
 O 0.4122 0.28892 0.96974   -0.846553
 O 0.5635 0.38857 0.97635   -0.65745
 O 0.8647 0.37117 0.02428   -0.704587
 O 0.0775 0.33891 0.97814   -0.781892
 O 0.2226 0.25981 0.05939   -0.74531
 O 0.4579 0.30714 0.08073   -0.749814
 O 0.7498 0.28555 0.1105   -0.765522
 O 0.9601 0.26506 0.16074   -0.586535
 O 0.9122 0.21108 0.03026   -0.846587
 O 0.0635 0.11143 0.02365   -0.657462
 O 0.6353 0.87117 0.02428   -0.704577
 O 0.4225 0.83891 0.97814   -0.781953
 O 0.2774 0.75981 0.05939   -0.745306
 O 0.0421 0.80714 0.08073   -0.749803
 O 0.7502 0.78555 0.1105   -0.765532
 O 0.5399 0.76506 0.16074   -0.586538
 O 0.5878 0.71108 0.03026   -0.846574
 O 0.4365 0.61143 0.02365   -0.657444
 O 0.1353 0.62883 0.97572   -0.704577
 O 0.9225 0.66109 0.02186   -0.781952
 O 0.7774 0.74019 0.94061   -0.745312
 O 0.5421 0.69286 0.91927   -0.749805
 O 0.2502 0.71445 0.8895   -0.765526
 O 0.0399 0.73494 0.83926   -0.586535
 O 0.0878 0.78892 0.96974   -0.846571
 O 0.9365 0.88857 0.97635   -0.657448
 O 0.1353 0.12883 0.52428   -0.704577
 O 0.9225 0.16109 0.47814   -0.781944
 O 0.7774 0.24019 0.55939   -0.745298
 O 0.5421 0.19286 0.58073   -0.749829
 O 0.2502 0.21445 0.6105   -0.765526
 O 0.0399 0.23494 0.66074   -0.58654
 O 0.0878 0.28892 0.53026   -0.846553
 O 0.9365 0.38857 0.52365   -0.65745
 O 0.6353 0.37117 0.47572   -0.704587
 O 0.4225 0.33891 0.52186   -0.781892
 O 0.2774 0.25981 0.44061   -0.74531
 O 0.0421 0.30714 0.41927   -0.749814
 O 0.7502 0.28555 0.3895   -0.765522
 O 0.5399 0.26506 0.33926   -0.586535
 O 0.5878 0.21108 0.46974   -0.846587
 O 0.4365 0.11143 0.47635   -0.657462
