{'_ref': 'TBD', '_srcid': 'CAKYAQ_clean', 'submitters': [{'name': 'Dalar Nazarian Jeff Camp and David Sholl', 'email': 'dalar@gatech.edu jcamp6@gatech.edu'}], '_method': 'VASP DFT with PBE;DDEC'}
data_ErAgH8C18(NO2)4
_symmetry_space_group_name_H-M   'P 1'
_cell_length_a   8.47590000
_cell_length_b   17.76500000
_cell_length_c   25.28500000
_cell_angle_alpha   90.00000000
_cell_angle_beta   90.00000000
_cell_angle_gamma   90.00000000
_symmetry_Int_Tables_number   1
_chemical_formula_structural   ErAgH8C18(NO2)4
_chemical_formula_sum   'Er8 Ag8 H64 C144 N32 O64'
_cell_volume   3807.2727811
_cell_formula_units_Z   8
loop_
 _symmetry_equiv_pos_site_id
 _symmetry_equiv_pos_as_xyz
  1  'x, y, z'
loop_
 _atom_site_label
 _atom_site_fract_x
 _atom_site_fract_y
 _atom_site_fract_z
 _atom_site_charge
 Er 0.16669 0.28237 0.02325   1.446741
 Er 0.66669 0.21763 0.97675   1.446741
 Er 0.66669 0.71763 0.52325   1.446741
 Er 0.16669 0.78237 0.47675   1.446741
 Er 0.33331 0.28237 0.47675   1.446741
 Er 0.83331 0.21763 0.52325   1.446741
 Er 0.83331 0.71763 0.97675   1.446741
 Er 0.33331 0.78237 0.02325   1.446741
 Ag 0.46143 0.45213 0.72767   0.375862
 Ag 0.96143 0.04787 0.27233   0.375862
 Ag 0.96143 0.54787 0.22767   0.375862
 Ag 0.46143 0.95213 0.77233   0.375862
 Ag 0.03857 0.45213 0.77233   0.375862
 Ag 0.53857 0.04787 0.22767   0.375862
 Ag 0.53857 0.54787 0.27233   0.375862
 Ag 0.03857 0.95213 0.72767   0.375862
 H 0.6857 0.3409 0.7982   0.129803
 H 0.5603 0.6423 0.0966   0.312848
 H 0.744 0.6721 0.1637   0.108267
 H 0.8996 0.4171 0.1406   0.116427
 H 0.466 0.5084 0.0451   0.11721
 H 0.7229 0.6066 0.8695   0.299779
 H 0.8865 0.4966 0.9327   0.146069
 H 0.5591 0.6014 0.7944   0.103067
 H 0.1857 0.1591 0.2018   0.129803
 H 0.0603 0.8577 0.9034   0.312848
 H 0.244 0.8279 0.8363   0.108267
 H 0.3996 0.0829 0.8594   0.116427
 H 0.966 0.9916 0.9549   0.11721
 H 0.2229 0.8934 0.1305   0.299779
 H 0.3865 0.0034 0.0673   0.146069
 H 0.0591 0.8986 0.2056   0.103067
 H 0.1857 0.6591 0.2982   0.129803
 H 0.0603 0.3577 0.5966   0.312848
 H 0.244 0.3279 0.6637   0.108267
 H 0.3996 0.5829 0.6406   0.116427
 H 0.966 0.4916 0.5451   0.11721
 H 0.2229 0.3934 0.3695   0.299779
 H 0.3865 0.5034 0.4327   0.146069
 H 0.0591 0.3986 0.2944   0.103067
 H 0.6857 0.8409 0.7018   0.129803
 H 0.5603 0.1423 0.4034   0.312848
 H 0.744 0.1721 0.3363   0.108267
 H 0.8996 0.9171 0.3594   0.116427
 H 0.466 0.0084 0.4549   0.11721
 H 0.7229 0.1066 0.6305   0.299779
 H 0.8865 0.9966 0.5673   0.146069
 H 0.5591 0.1014 0.7056   0.103067
 H 0.8143 0.3409 0.7018   0.129804
 H 0.9397 0.6423 0.4034   0.312848
 H 0.756 0.6721 0.3363   0.108266
 H 0.6004 0.4171 0.3594   0.116426
 H 0.034 0.5084 0.4549   0.11721
 H 0.7771 0.6066 0.6305   0.29978
 H 0.6135 0.4966 0.5673   0.146069
 H 0.9409 0.6014 0.7056   0.103067
 H 0.3143 0.1591 0.2982   0.129804
 H 0.4397 0.8577 0.5966   0.312848
 H 0.256 0.8279 0.6637   0.108266
 H 0.1004 0.0829 0.6406   0.116426
 H 0.534 0.9916 0.5451   0.11721
 H 0.2771 0.8934 0.3695   0.29978
 H 0.1135 0.0034 0.4327   0.146069
 H 0.4409 0.8986 0.2944   0.103067
 H 0.3143 0.6591 0.2018   0.129804
 H 0.4397 0.3577 0.9034   0.312848
 H 0.256 0.3279 0.8363   0.108266
 H 0.1004 0.5829 0.8594   0.116426
 H 0.534 0.4916 0.9549   0.11721
 H 0.2771 0.3934 0.1305   0.29978
 H 0.1135 0.5034 0.0673   0.146069
 H 0.4409 0.3986 0.2056   0.103067
 H 0.8143 0.8409 0.7982   0.129804
 H 0.9397 0.1423 0.0966   0.312848
 H 0.756 0.1721 0.1637   0.108266
 H 0.6004 0.9171 0.1406   0.116426
 H 0.034 0.0084 0.0451   0.11721
 H 0.7771 0.1066 0.8695   0.29978
 H 0.6135 0.9966 0.9327   0.146069
 H 0.9409 0.1014 0.7944   0.103067
 C 0.9536 0.3539 0.9533   0.639844
 C 0.8663 0.388 0.9077   -0.085589
 C 0.8088 0.3408 0.8663   -0.044412
 C 0.7227 0.3713 0.8255   -0.201451
 C 0.8414 0.257 0.8639   0.677132
 C 0.5104 0.3706 0.0176   0.678622
 C 0.8114 0.3144 0.0733   0.670529
 C 0.7412 0.3895 0.0836   -0.073669
 C 0.731 0.6251 0.1482   0.265205
 C 0.8151 0.4351 0.1208   -0.128646
 C 0.6046 0.4162 0.056   -0.057294
 C 0.6377 0.5358 0.0967   0.151396
 C 0.5541 0.4903 0.06292   -0.150541
 C 0.8441 0.4654 0.9068   -0.096605
 C 0.6917 0.4483 0.8256   0.127656
 C 0.7598 0.5081 0.12782   0.130971
 C 0.7548 0.4941 0.8651   0.08029
 C 0.61 0.5606 0.8098   0.250833
 C 0.4536 0.1461 0.0467   0.639844
 C 0.3663 0.112 0.0923   -0.085589
 C 0.3088 0.1592 0.1337   -0.044412
 C 0.2227 0.1287 0.1745   -0.201451
 C 0.3414 0.243 0.1361   0.677132
 C 0.0104 0.1294 0.9824   0.678622
 C 0.3114 0.1856 0.9267   0.670529
 C 0.2412 0.1105 0.9164   -0.07367
 C 0.231 0.8749 0.8518   0.265205
 C 0.3151 0.0649 0.8792   -0.128646
 C 0.1046 0.0838 0.944   -0.057294
 C 0.1377 0.9642 0.9033   0.151396
 C 0.0541 0.0097 0.93708   -0.150541
 C 0.3441 0.0346 0.0932   -0.096605
 C 0.1917 0.0517 0.1744   0.127656
 C 0.2598 0.9919 0.87218   0.130971
 C 0.2548 0.0059 0.1349   0.08029
 C 0.11 0.9394 0.1902   0.250833
 C 0.4536 0.6461 0.4533   0.639844
 C 0.3663 0.612 0.4077   -0.085589
 C 0.3088 0.6592 0.3663   -0.044412
 C 0.2227 0.6287 0.3255   -0.201451
 C 0.3414 0.743 0.3639   0.677132
 C 0.0104 0.6294 0.5176   0.678622
 C 0.3114 0.6856 0.5733   0.670529
 C 0.2412 0.6105 0.5836   -0.07367
 C 0.231 0.3749 0.6482   0.265205
 C 0.3151 0.5649 0.6208   -0.128645
 C 0.1046 0.5838 0.556   -0.057294
 C 0.1377 0.4642 0.5967   0.151396
 C 0.0541 0.5097 0.56292   -0.150541
 C 0.3441 0.5346 0.4068   -0.096605
 C 0.1917 0.5517 0.3256   0.127656
 C 0.2598 0.4919 0.62782   0.130971
 C 0.2548 0.5059 0.3651   0.08029
 C 0.11 0.4394 0.3098   0.250833
 C 0.9536 0.8539 0.5467   0.639844
 C 0.8663 0.888 0.5923   -0.085589
 C 0.8088 0.8408 0.6337   -0.044412
 C 0.7227 0.8713 0.6745   -0.201451
 C 0.8414 0.757 0.6361   0.677132
 C 0.5104 0.8706 0.4824   0.678622
 C 0.8114 0.8144 0.4267   0.670529
 C 0.7412 0.8895 0.4164   -0.07367
 C 0.731 0.1251 0.3518   0.265205
 C 0.8151 0.9351 0.3792   -0.128645
 C 0.6046 0.9162 0.444   -0.057294
 C 0.6377 0.0358 0.4033   0.151396
 C 0.5541 0.9903 0.43708   -0.150541
 C 0.8441 0.9654 0.5932   -0.096605
 C 0.6917 0.9483 0.6744   0.127656
 C 0.7598 0.0081 0.37218   0.130971
 C 0.7548 0.9941 0.6349   0.08029
 C 0.61 0.0606 0.6902   0.250833
 C 0.5464 0.3539 0.5467   0.639844
 C 0.6337 0.388 0.5923   -0.085589
 C 0.6912 0.3408 0.6337   -0.044412
 C 0.7773 0.3713 0.6745   -0.201451
 C 0.6586 0.257 0.6361   0.677132
 C 0.9896 0.3706 0.4824   0.678622
 C 0.6886 0.3144 0.4267   0.670529
 C 0.7588 0.3895 0.4164   -0.07367
 C 0.769 0.6251 0.3518   0.265205
 C 0.6849 0.4351 0.3792   -0.128646
 C 0.8954 0.4162 0.444   -0.057294
 C 0.8623 0.5358 0.4033   0.151396
 C 0.9459 0.4903 0.43708   -0.150542
 C 0.6559 0.4654 0.5932   -0.096605
 C 0.8083 0.4483 0.6744   0.127656
 C 0.7402 0.5081 0.37218   0.130971
 C 0.7452 0.4941 0.6349   0.08029
 C 0.89 0.5606 0.6902   0.250833
 C 0.0464 0.1461 0.4533   0.639844
 C 0.1337 0.112 0.4077   -0.085589
 C 0.1912 0.1592 0.3663   -0.044412
 C 0.2773 0.1287 0.3255   -0.201451
 C 0.1586 0.243 0.3639   0.677132
 C 0.4896 0.1294 0.5176   0.678622
 C 0.1886 0.1856 0.5733   0.670529
 C 0.2588 0.1105 0.5836   -0.07367
 C 0.269 0.8749 0.6482   0.265205
 C 0.1849 0.0649 0.6208   -0.128646
 C 0.3954 0.0838 0.556   -0.057295
 C 0.3623 0.9642 0.5967   0.151396
 C 0.4459 0.0097 0.56292   -0.150542
 C 0.1559 0.0346 0.4068   -0.096605
 C 0.3083 0.0517 0.3256   0.127656
 C 0.2402 0.9919 0.62782   0.130971
 C 0.2452 0.0059 0.3651   0.08029
 C 0.39 0.9394 0.3098   0.250833
 C 0.0464 0.6461 0.0467   0.639844
 C 0.1337 0.612 0.0923   -0.085589
 C 0.1912 0.6592 0.1337   -0.044412
 C 0.2773 0.6287 0.1745   -0.201451
 C 0.1586 0.743 0.1361   0.677132
 C 0.4896 0.6294 0.9824   0.678622
 C 0.1886 0.6856 0.9267   0.670529
 C 0.2588 0.6105 0.9164   -0.07367
 C 0.269 0.3749 0.8518   0.265205
 C 0.1849 0.5649 0.8792   -0.128645
 C 0.3954 0.5838 0.944   -0.057294
 C 0.3623 0.4642 0.9033   0.151396
 C 0.4459 0.5097 0.93708   -0.150542
 C 0.1559 0.5346 0.0932   -0.096605
 C 0.3083 0.5517 0.1744   0.127656
 C 0.2402 0.4919 0.87218   0.130971
 C 0.2452 0.5059 0.1349   0.08029
 C 0.39 0.4394 0.1902   0.250833
 C 0.5464 0.8539 0.9533   0.639844
 C 0.6337 0.888 0.9077   -0.085589
 C 0.6912 0.8408 0.8663   -0.044412
 C 0.7773 0.8713 0.8255   -0.201451
 C 0.6586 0.757 0.8639   0.677132
 C 0.9896 0.8706 0.0176   0.678622
 C 0.6886 0.8144 0.0733   0.670529
 C 0.7588 0.8895 0.0836   -0.07367
 C 0.769 0.1251 0.1482   0.265205
 C 0.6849 0.9351 0.1208   -0.128645
 C 0.8954 0.9162 0.056   -0.057295
 C 0.8623 0.0358 0.0967   0.151396
 C 0.9459 0.9903 0.06292   -0.150542
 C 0.6559 0.9654 0.9068   -0.096605
 C 0.8083 0.9483 0.8256   0.127656
 C 0.7402 0.0081 0.12782   0.130971
 C 0.7452 0.9941 0.8651   0.08029
 C 0.89 0.0606 0.8098   0.250833
 N 0.625 0.6104 0.11018   -0.24839
 N 0.7011 0.5659 0.85262   -0.229438
 N 0.5998 0.491 0.79167   -0.391755
 N 0.8146 0.5652 0.16127   -0.41298
 N 0.125 0.8896 0.88982   -0.24839
 N 0.2011 0.9341 0.14738   -0.229438
 N 0.0998 0.009 0.20833   -0.391755
 N 0.3146 0.9348 0.83873   -0.41298
 N 0.125 0.3896 0.61018   -0.24839
 N 0.2011 0.4341 0.35262   -0.229438
 N 0.0998 0.509 0.29167   -0.391755
 N 0.3146 0.4348 0.66127   -0.41298
 N 0.625 0.1104 0.38982   -0.24839
 N 0.7011 0.0659 0.64738   -0.229438
 N 0.5998 0.991 0.70833   -0.391755
 N 0.8146 0.0652 0.33873   -0.41298
 N 0.875 0.6104 0.38982   -0.24839
 N 0.7989 0.5659 0.64738   -0.229438
 N 0.9002 0.491 0.70833   -0.391755
 N 0.6854 0.5652 0.33873   -0.41298
 N 0.375 0.8896 0.61018   -0.24839
 N 0.2989 0.9341 0.35262   -0.229438
 N 0.4002 0.009 0.29167   -0.391755
 N 0.1854 0.9348 0.66127   -0.41298
 N 0.375 0.3896 0.88982   -0.24839
 N 0.2989 0.4341 0.14738   -0.229438
 N 0.4002 0.509 0.20833   -0.391755
 N 0.1854 0.4348 0.83873   -0.41298
 N 0.875 0.1104 0.11018   -0.24839
 N 0.7989 0.0659 0.85262   -0.229438
 N 0.9002 0.991 0.79167   -0.391755
 N 0.6854 0.0652 0.16127   -0.41298
 O 0.9126 0.28812 0.9693   -0.641271
 O 0.0666 0.3874 0.97445   -0.560906
 O 0.7486 0.21429 0.88984   -0.60606
 O 0.9457 0.2339 0.8357   -0.536653
 O 0.3647 0.3709 0.02368   -0.568305
 O 0.9597 0.3091 0.0791   -0.591115
 O 0.5798 0.3385 0.9788   -0.621337
 O 0.7254 0.2595 0.0601   -0.582132
 O 0.4126 0.21188 0.0307   -0.641271
 O 0.5666 0.1126 0.02555   -0.560906
 O 0.2486 0.28571 0.11016   -0.60606
 O 0.4457 0.2661 0.1643   -0.536653
 O 0.8647 0.1291 0.97632   -0.568305
 O 0.4597 0.1909 0.9209   -0.591115
 O 0.0798 0.1615 0.0212   -0.621337
 O 0.2254 0.2405 0.9399   -0.582133
 O 0.4126 0.71188 0.4693   -0.641271
 O 0.5666 0.6126 0.47445   -0.560906
 O 0.2486 0.78571 0.38984   -0.60606
 O 0.4457 0.7661 0.3357   -0.536653
 O 0.8647 0.6291 0.52368   -0.568305
 O 0.4597 0.6909 0.5791   -0.591115
 O 0.0798 0.6615 0.4788   -0.621337
 O 0.2254 0.7405 0.5601   -0.582132
 O 0.9126 0.78812 0.5307   -0.641271
 O 0.0666 0.8874 0.52555   -0.560906
 O 0.7486 0.71429 0.61016   -0.60606
 O 0.9457 0.7339 0.6643   -0.536653
 O 0.3647 0.8709 0.47632   -0.568305
 O 0.9597 0.8091 0.4209   -0.591115
 O 0.5798 0.8385 0.5212   -0.621337
 O 0.7254 0.7595 0.4399   -0.582133
 O 0.5874 0.28812 0.5307   -0.641271
 O 0.4334 0.3874 0.52555   -0.560906
 O 0.7514 0.21429 0.61016   -0.60606
 O 0.5543 0.2339 0.6643   -0.536653
 O 0.1353 0.3709 0.47632   -0.568305
 O 0.5403 0.3091 0.4209   -0.591115
 O 0.9202 0.3385 0.5212   -0.621337
 O 0.7746 0.2595 0.4399   -0.582132
 O 0.0874 0.21188 0.4693   -0.641271
 O 0.9334 0.1126 0.47445   -0.560906
 O 0.2514 0.28571 0.38984   -0.60606
 O 0.0543 0.2661 0.3357   -0.536653
 O 0.6353 0.1291 0.52368   -0.568305
 O 0.0403 0.1909 0.5791   -0.591115
 O 0.4202 0.1615 0.4788   -0.621337
 O 0.2746 0.2405 0.5601   -0.582133
 O 0.0874 0.71188 0.0307   -0.641271
 O 0.9334 0.6126 0.02555   -0.560906
 O 0.2514 0.78571 0.11016   -0.60606
 O 0.0543 0.7661 0.1643   -0.536653
 O 0.6353 0.6291 0.97632   -0.568305
 O 0.0403 0.6909 0.9209   -0.591115
 O 0.4202 0.6615 0.0212   -0.621337
 O 0.2746 0.7405 0.9399   -0.582132
 O 0.5874 0.78812 0.9693   -0.641271
 O 0.4334 0.8874 0.97445   -0.560906
 O 0.7514 0.71429 0.88984   -0.60606
 O 0.5543 0.7339 0.8357   -0.536653
 O 0.1353 0.8709 0.02368   -0.568305
 O 0.5403 0.8091 0.0791   -0.591115
 O 0.9202 0.8385 0.9788   -0.621337
 O 0.7746 0.7595 0.0601   -0.582133
