{'_ref': 'TBD', '_srcid': 'CAKYAQ_clean', 'submitters': [{'name': 'Dalar Nazarian Jeff Camp and David Sholl', 'email': 'dalar@gatech.edu jcamp6@gatech.edu'}], '_method': 'VASP DFT with PBE;DDEC'}
data_GdAgH8C18(NO2)4
_symmetry_space_group_name_H-M   'P 1'
_cell_length_a   8.55250000
_cell_length_b   17.82700000
_cell_length_c   25.28700000
_cell_angle_alpha   90.00000000
_cell_angle_beta   90.00000000
_cell_angle_gamma   90.00000000
_symmetry_Int_Tables_number   1
_chemical_formula_structural   GdAgH8C18(NO2)4
_chemical_formula_sum   'Gd8 Ag8 H64 C144 N32 O64'
_cell_volume   3855.39301232
_cell_formula_units_Z   8
loop_
 _symmetry_equiv_pos_site_id
 _symmetry_equiv_pos_as_xyz
  1  'x, y, z'
loop_
 _atom_site_label
 _atom_site_fract_x
 _atom_site_fract_y
 _atom_site_fract_z
 _atom_site_charge
 Gd 0.16435 0.21692 0.97638   2.154172
 Gd 0.66435 0.28308 0.02362   2.154175
 Gd 0.66435 0.78308 0.47638   2.154172
 Gd 0.16435 0.71692 0.52362   2.154175
 Gd 0.33565 0.21692 0.52362   2.154172
 Gd 0.83565 0.28308 0.47638   2.154175
 Gd 0.83565 0.78308 0.02362   2.154172
 Gd 0.33565 0.71692 0.97638   2.154175
 Ag 0.46123 0.04865 0.2731   0.356589
 Ag 0.96123 0.45135 0.7269   0.356589
 Ag 0.96123 0.95135 0.7731   0.356589
 Ag 0.46123 0.54865 0.2269   0.356589
 Ag 0.03877 0.04865 0.2269   0.356778
 Ag 0.53877 0.45135 0.7731   0.356778
 Ag 0.53877 0.95135 0.7269   0.356778
 Ag 0.03877 0.54865 0.2731   0.356778
 H 0.3991 0.4189 0.1404   0.120232
 H 0.6834 0.1596 0.2029   0.134034
 H 0.0622 0.6433 0.0966   0.313178
 H 0.246 0.6731 0.1629   0.11167
 H 0.8824 0.004 0.0686   0.137305
 H 0.9665 0.5081 0.0455   0.118748
 H 0.5574 0.8997 0.2063   0.105143
 H 0.7207 0.8944 0.1314   0.302874
 H 0.8991 0.0811 0.8596   0.120232
 H 0.1834 0.3404 0.7971   0.134035
 H 0.5622 0.8567 0.9034   0.313178
 H 0.746 0.8269 0.8371   0.11167
 H 0.3824 0.496 0.9314   0.137305
 H 0.4665 0.9919 0.9545   0.118748
 H 0.0574 0.6003 0.7937   0.105144
 H 0.2207 0.6056 0.8686   0.302875
 H 0.8991 0.5811 0.6404   0.120205
 H 0.1834 0.8404 0.7029   0.134019
 H 0.5622 0.3567 0.5966   0.313178
 H 0.746 0.3269 0.6629   0.11167
 H 0.3824 0.996 0.5686   0.137305
 H 0.4665 0.4919 0.5455   0.118748
 H 0.0574 0.1003 0.7063   0.105103
 H 0.2207 0.1056 0.6314   0.302875
 H 0.3991 0.9189 0.3596   0.120206
 H 0.6834 0.6596 0.2971   0.13402
 H 0.0622 0.1433 0.4034   0.313178
 H 0.246 0.1731 0.3371   0.11167
 H 0.8824 0.504 0.4314   0.137305
 H 0.9665 0.0081 0.4545   0.118748
 H 0.5574 0.3997 0.2937   0.105103
 H 0.7207 0.3944 0.3686   0.302876
 H 0.1009 0.4189 0.3596   0.120203
 H 0.8166 0.1596 0.2971   0.134008
 H 0.4378 0.6433 0.4034   0.31318
 H 0.254 0.6731 0.3371   0.11161
 H 0.6176 0.004 0.4314   0.137303
 H 0.5335 0.5081 0.4545   0.118749
 H 0.9426 0.8997 0.2937   0.105121
 H 0.7793 0.8944 0.3686   0.30286
 H 0.6009 0.0811 0.6404   0.120203
 H 0.3166 0.3404 0.7029   0.134009
 H 0.9378 0.8567 0.5966   0.313179
 H 0.754 0.8269 0.6629   0.11161
 H 0.1176 0.496 0.5686   0.137303
 H 0.0335 0.9919 0.5455   0.118749
 H 0.4426 0.6003 0.7063   0.105121
 H 0.2793 0.6056 0.6314   0.30286
 H 0.6009 0.5811 0.8596   0.120178
 H 0.3166 0.8404 0.7971   0.133993
 H 0.9378 0.3567 0.9034   0.31318
 H 0.754 0.3269 0.8371   0.111609
 H 0.1176 0.996 0.9314   0.137303
 H 0.0335 0.4919 0.9545   0.118749
 H 0.4426 0.1003 0.7937   0.105082
 H 0.2793 0.1056 0.8686   0.302861
 H 0.1009 0.9189 0.1404   0.120178
 H 0.8166 0.6596 0.2029   0.133994
 H 0.4378 0.1433 0.0966   0.313179
 H 0.254 0.1731 0.1629   0.11161
 H 0.6176 0.504 0.0686   0.137303
 H 0.5335 0.0081 0.0455   0.118749
 H 0.9426 0.3997 0.2063   0.105082
 H 0.7793 0.3944 0.1314   0.302861
 C 0.9507 0.1452 0.0479   0.713137
 C 0.865 0.1116 0.0936   -0.108568
 C 0.1053 0.4178 0.0566   -0.065457
 C 0.0098 0.3719 0.0181   0.749852
 C 0.3085 0.3149 0.0746   0.755791
 C 0.24 0.3906 0.084   -0.098485
 C 0.3146 0.4366 0.1209   -0.118057
 C 0.7202 0.1292 0.1757   -0.197319
 C 0.6896 0.0526 0.1753   0.132122
 C 0.3397 0.2583 0.8626   0.720918
 C 0.2319 0.6261 0.1477   0.266555
 C 0.8408 0.0351 0.0946   -0.095261
 C 0.0543 0.4905 0.0633   -0.148745
 C 0.8064 0.1588 0.1348   -0.069457
 C 0.2609 0.5091 0.1279   0.131229
 C 0.1385 0.5368 0.0975   0.144045
 C 0.7514 0.0057 0.1362   0.066593
 C 0.6082 0.9403 0.1909   0.250688
 C 0.4507 0.3548 0.9521   0.713131
 C 0.365 0.3884 0.9064   -0.10857
 C 0.6053 0.0822 0.9434   -0.065455
 C 0.5098 0.1281 0.9819   0.749849
 C 0.8085 0.1851 0.9254   0.755794
 C 0.74 0.1094 0.916   -0.098486
 C 0.8146 0.0634 0.8791   -0.118057
 C 0.2202 0.3708 0.8243   -0.197329
 C 0.1896 0.4474 0.8247   0.132123
 C 0.8397 0.2417 0.1374   0.720918
 C 0.7319 0.8739 0.8523   0.266555
 C 0.3408 0.4649 0.9054   -0.09526
 C 0.5543 0.0095 0.9367   -0.148745
 C 0.3064 0.3412 0.8652   -0.069443
 C 0.7609 0.9909 0.8721   0.131229
 C 0.6385 0.9632 0.9025   0.144045
 C 0.2514 0.4943 0.8638   0.066592
 C 0.1082 0.5597 0.8091   0.250688
 C 0.4507 0.8548 0.5479   0.713137
 C 0.365 0.8884 0.5936   -0.108568
 C 0.6053 0.5822 0.5566   -0.065456
 C 0.5098 0.6281 0.5181   0.749852
 C 0.8085 0.6851 0.5746   0.755791
 C 0.74 0.6094 0.584   -0.098489
 C 0.8146 0.5634 0.6209   -0.118047
 C 0.2202 0.8708 0.6757   -0.197313
 C 0.1896 0.9474 0.6753   0.13212
 C 0.8397 0.7417 0.3626   0.720918
 C 0.7319 0.3739 0.6477   0.266555
 C 0.3408 0.9649 0.5946   -0.095261
 C 0.5543 0.5095 0.5633   -0.148745
 C 0.3064 0.8412 0.6348   -0.069459
 C 0.7609 0.4909 0.6279   0.131226
 C 0.6385 0.4632 0.5975   0.144046
 C 0.2514 0.9943 0.6362   0.066593
 C 0.1082 0.0597 0.6909   0.250701
 C 0.9507 0.6452 0.4521   0.713131
 C 0.865 0.6116 0.4064   -0.108569
 C 0.1053 0.9178 0.4434   -0.065455
 C 0.0098 0.8719 0.4819   0.749849
 C 0.3085 0.8149 0.4254   0.755795
 C 0.24 0.8906 0.416   -0.09849
 C 0.3146 0.9366 0.3791   -0.118047
 C 0.7202 0.6292 0.3243   -0.197322
 C 0.6896 0.5526 0.3247   0.132122
 C 0.3397 0.7583 0.6374   0.720918
 C 0.2319 0.1261 0.3523   0.266555
 C 0.8408 0.5351 0.4054   -0.09526
 C 0.0543 0.9905 0.4367   -0.148746
 C 0.8064 0.6588 0.3652   -0.069446
 C 0.2609 0.0091 0.3721   0.131226
 C 0.1385 0.0368 0.4025   0.144046
 C 0.7514 0.5057 0.3638   0.066593
 C 0.6082 0.4403 0.3091   0.250701
 C 0.5493 0.1452 0.4521   0.713141
 C 0.635 0.1116 0.4064   -0.108564
 C 0.3947 0.4178 0.4434   -0.065457
 C 0.4902 0.3719 0.4819   0.749853
 C 0.1915 0.3149 0.4254   0.755791
 C 0.26 0.3906 0.416   -0.09849
 C 0.1854 0.4366 0.3791   -0.118035
 C 0.7798 0.1292 0.3243   -0.1973
 C 0.8104 0.0526 0.3247   0.132133
 C 0.1603 0.2583 0.6374   0.720908
 C 0.2681 0.6261 0.3523   0.266598
 C 0.6592 0.0351 0.4054   -0.095241
 C 0.4457 0.4905 0.4367   -0.148733
 C 0.6936 0.1588 0.3652   -0.069457
 C 0.2391 0.5091 0.3721   0.131248
 C 0.3615 0.5368 0.4025   0.144055
 C 0.7486 0.0057 0.3638   0.066602
 C 0.8918 0.9403 0.3091   0.250729
 C 0.0493 0.3548 0.5479   0.713135
 C 0.135 0.3884 0.5936   -0.108566
 C 0.8947 0.0822 0.5566   -0.065455
 C 0.9902 0.1281 0.5181   0.74985
 C 0.6915 0.1851 0.5746   0.755795
 C 0.76 0.1094 0.584   -0.098491
 C 0.6854 0.0634 0.6209   -0.118035
 C 0.2798 0.3708 0.6757   -0.197309
 C 0.3104 0.4474 0.6753   0.132134
 C 0.6603 0.2417 0.3626   0.720908
 C 0.7681 0.8739 0.6477   0.266598
 C 0.1592 0.4649 0.5946   -0.09524
 C 0.9457 0.0095 0.5633   -0.148733
 C 0.1936 0.3412 0.6348   -0.069444
 C 0.7391 0.9909 0.6279   0.131248
 C 0.8615 0.9632 0.5975   0.144055
 C 0.2486 0.4943 0.6362   0.066601
 C 0.3918 0.5597 0.6909   0.250729
 C 0.0493 0.8548 0.9521   0.71314
 C 0.135 0.8884 0.9064   -0.108564
 C 0.8947 0.5822 0.9434   -0.065456
 C 0.9902 0.6281 0.9819   0.749852
 C 0.6915 0.6851 0.9254   0.755792
 C 0.76 0.6094 0.916   -0.098494
 C 0.6854 0.5634 0.8791   -0.118025
 C 0.2798 0.8708 0.8243   -0.197293
 C 0.3104 0.9474 0.8247   0.132131
 C 0.6603 0.7417 0.1374   0.720909
 C 0.7681 0.3739 0.8523   0.266598
 C 0.1592 0.9649 0.9054   -0.095242
 C 0.9457 0.5095 0.9367   -0.148733
 C 0.1936 0.8412 0.8652   -0.069459
 C 0.7391 0.4909 0.8721   0.131245
 C 0.8615 0.4632 0.9025   0.144055
 C 0.2486 0.9943 0.8638   0.066602
 C 0.3918 0.0597 0.8091   0.250742
 C 0.5493 0.6452 0.0479   0.713135
 C 0.635 0.6116 0.0936   -0.108565
 C 0.3947 0.9178 0.0566   -0.065454
 C 0.4902 0.8719 0.0181   0.749849
 C 0.1915 0.8149 0.0746   0.755795
 C 0.26 0.8906 0.084   -0.098495
 C 0.1854 0.9366 0.1209   -0.118025
 C 0.7798 0.6292 0.1757   -0.197303
 C 0.8104 0.5526 0.1753   0.132133
 C 0.1603 0.7583 0.8626   0.720909
 C 0.2681 0.1261 0.1477   0.266598
 C 0.6592 0.5351 0.0946   -0.09524
 C 0.4457 0.9905 0.0633   -0.148734
 C 0.6936 0.6588 0.1348   -0.069446
 C 0.2391 0.0091 0.1279   0.131245
 C 0.3615 0.0368 0.0975   0.144055
 C 0.7486 0.5057 0.1362   0.066602
 C 0.8918 0.4403 0.1909   0.250742
 N 0.1263 0.6116 0.11028   -0.254436
 N 0.3139 0.5664 0.1608   -0.405945
 N 0.5982 0.0092 0.2089   -0.392656
 N 0.6989 0.9349 0.1483   -0.229761
 N 0.6263 0.8884 0.88972   -0.254437
 N 0.8139 0.9336 0.8392   -0.405944
 N 0.0982 0.4908 0.7911   -0.392656
 N 0.1989 0.5651 0.8517   -0.229761
 N 0.6263 0.3884 0.61028   -0.254436
 N 0.8139 0.4336 0.6608   -0.405944
 N 0.0982 0.9908 0.7089   -0.392659
 N 0.1989 0.0651 0.6483   -0.229766
 N 0.1263 0.1116 0.38972   -0.254436
 N 0.3139 0.0664 0.3392   -0.405944
 N 0.5982 0.5092 0.2911   -0.392659
 N 0.6989 0.4349 0.3517   -0.229766
 N 0.3737 0.6116 0.38972   -0.254445
 N 0.1861 0.5664 0.3392   -0.405969
 N 0.9018 0.0092 0.2911   -0.392666
 N 0.8011 0.9349 0.3517   -0.229761
 N 0.8737 0.8884 0.61028   -0.254445
 N 0.6861 0.9336 0.6608   -0.405968
 N 0.4018 0.4908 0.7089   -0.392666
 N 0.3011 0.5651 0.6483   -0.229761
 N 0.8737 0.3884 0.88972   -0.254445
 N 0.6861 0.4336 0.8392   -0.405968
 N 0.4018 0.9908 0.7911   -0.392669
 N 0.3011 0.0651 0.8517   -0.229765
 N 0.3737 0.1116 0.11028   -0.254445
 N 0.1861 0.0664 0.1608   -0.405968
 N 0.9018 0.5092 0.2089   -0.39267
 N 0.8011 0.4349 0.1483   -0.229765
 O 0.0774 0.3402 0.97937   -0.731629
 O 0.9114 0.2108 0.03151   -0.804985
 O 0.0618 0.1114 0.0266   -0.643277
 O 0.8653 0.3725 0.02476   -0.670289
 O 0.2223 0.261 0.06118   -0.706851
 O 0.2467 0.2146 0.88789   -0.734419
 O 0.4467 0.2351 0.8348   -0.59129
 O 0.4541 0.3085 0.08098   -0.718022
 O 0.5774 0.1598 0.02063   -0.731629
 O 0.4114 0.2892 0.96849   -0.804986
 O 0.5618 0.3886 0.9734   -0.643277
 O 0.3653 0.1275 0.97524   -0.670285
 O 0.7223 0.239 0.93882   -0.706867
 O 0.7467 0.2854 0.11211   -0.734436
 O 0.9467 0.2649 0.1652   -0.591305
 O 0.9541 0.1915 0.91902   -0.718043
 O 0.5774 0.6598 0.47937   -0.731629
 O 0.4114 0.7892 0.53151   -0.804985
 O 0.5618 0.8886 0.5266   -0.643277
 O 0.3653 0.6275 0.52476   -0.670289
 O 0.7223 0.739 0.56118   -0.706851
 O 0.7467 0.7854 0.38789   -0.734419
 O 0.9467 0.7649 0.3348   -0.591291
 O 0.9541 0.6915 0.58098   -0.718022
 O 0.0774 0.8402 0.52063   -0.731629
 O 0.9114 0.7108 0.46849   -0.804986
 O 0.0618 0.6114 0.4734   -0.643277
 O 0.8653 0.8725 0.47524   -0.670285
 O 0.2223 0.761 0.43882   -0.706867
 O 0.2467 0.7146 0.61211   -0.734436
 O 0.4467 0.7351 0.6652   -0.591306
 O 0.4541 0.8085 0.41902   -0.718042
 O 0.4226 0.3402 0.52063   -0.731629
 O 0.5886 0.2108 0.46849   -0.804986
 O 0.4382 0.1114 0.4734   -0.643278
 O 0.6347 0.3725 0.47524   -0.670289
 O 0.2777 0.261 0.43882   -0.706851
 O 0.2533 0.2146 0.61211   -0.734419
 O 0.0533 0.2351 0.6652   -0.59129
 O 0.0459 0.3085 0.41902   -0.718022
 O 0.9226 0.1598 0.47937   -0.731629
 O 0.0886 0.2892 0.53151   -0.804986
 O 0.9382 0.3886 0.5266   -0.643277
 O 0.1347 0.1275 0.52476   -0.670285
 O 0.7777 0.239 0.56118   -0.706867
 O 0.7533 0.2854 0.38789   -0.734437
 O 0.5533 0.2649 0.3348   -0.591305
 O 0.5459 0.1915 0.58098   -0.718042
 O 0.9226 0.6598 0.02063   -0.731629
 O 0.0886 0.7892 0.96849   -0.804986
 O 0.9382 0.8886 0.9734   -0.643278
 O 0.1347 0.6275 0.97524   -0.670289
 O 0.7777 0.739 0.93882   -0.706851
 O 0.7533 0.7854 0.11211   -0.734419
 O 0.5533 0.7649 0.1652   -0.591291
 O 0.5459 0.6915 0.91902   -0.718021
 O 0.4226 0.8402 0.97937   -0.731629
 O 0.5886 0.7108 0.03151   -0.804986
 O 0.4382 0.6114 0.0266   -0.643277
 O 0.6347 0.8725 0.02476   -0.670285
 O 0.2777 0.761 0.06118   -0.706867
 O 0.2533 0.7146 0.88789   -0.734437
 O 0.0533 0.7351 0.8348   -0.591305
 O 0.0459 0.8085 0.08098   -0.718042
