{'_ref': 'TBD', '_srcid': 'CAKYAQ_clean', 'submitters': [{'name': 'Dalar Nazarian Jeff Camp and David Sholl', 'email': 'dalar@gatech.edu jcamp6@gatech.edu'}], '_method': 'VASP DFT with PBE;DDEC'}
data_U4P6H6(CO6)3
_symmetry_space_group_name_H-M   'P 1'
_cell_length_a   15.49740035
_cell_length_b   15.49740008
_cell_length_c   16.72300000
_cell_angle_alpha   78.82019853
_cell_angle_beta   78.82019873
_cell_angle_gamma   66.61830048
_symmetry_Int_Tables_number   1
_chemical_formula_structural   U4P6H6(CO6)3
_chemical_formula_sum   'U16 P24 H24 C12 O72'
_cell_volume   3585.95005148
_cell_formula_units_Z   4
loop_
 _symmetry_equiv_pos_site_id
 _symmetry_equiv_pos_as_xyz
  1  'x, y, z'
loop_
 _atom_site_label
 _atom_site_fract_x
 _atom_site_fract_y
 _atom_site_fract_z
 _atom_site_charge
 U 0.61614 0.57008 0.5519   1.712239
 U 0.62752 0.1027 0.6261   2.623733
 U 0.9242 0.87272 0.46879   1.734149
 U 0.74442 0.7414 0.76944   1.8
 U 0.42992 0.38386 0.9481   1.712239
 U 0.8973 0.37248 0.8739   2.623735
 U 0.12728 0.0758 0.03121   1.73415
 U 0.2586 0.25558 0.73056   1.800007
 U 0.38386 0.42992 0.4481   1.712252
 U 0.37248 0.8973 0.3739   2.623741
 U 0.0758 0.12728 0.53121   1.734152
 U 0.25558 0.2586 0.23056   1.800003
 U 0.57008 0.61614 0.0519   1.712252
 U 0.1027 0.62752 0.1261   2.623743
 U 0.87272 0.9242 0.96879   1.734153
 U 0.7414 0.74442 0.26944   1.800009
 P 0.46784 0.28492 0.75682   1.748221
 P 0.71191 0.86407 0.56484   1.74843
 P 0.78771 0.95153 0.77492   1.746227
 P 0.55851 0.36135 0.59454   1.760837
 P 0.88192 0.03792 0.61701   1.792123
 P 0.59869 0.80637 0.46541   1.852307
 P 0.71508 0.53216 0.74318   1.748221
 P 0.13593 0.28809 0.93516   1.74843
 P 0.04847 0.21229 0.72508   1.746228
 P 0.63865 0.44149 0.90546   1.760836
 P 0.96208 0.11808 0.88299   1.792125
 P 0.19363 0.40131 0.03459   1.852307
 P 0.53216 0.71508 0.24318   1.748221
 P 0.28809 0.13593 0.43516   1.748432
 P 0.21229 0.04847 0.22508   1.746228
 P 0.44149 0.63865 0.40546   1.760837
 P 0.11808 0.96208 0.38299   1.792124
 P 0.40131 0.19363 0.53459   1.852309
 P 0.28492 0.46784 0.25682   1.748222
 P 0.86407 0.71191 0.06484   1.748432
 P 0.95153 0.78771 0.27492   1.746229
 P 0.36135 0.55851 0.09454   1.760836
 P 0.03792 0.88192 0.11701   1.792125
 P 0.80637 0.59869 0.96541   1.852309
 H 0.5791 0.3533 0.7289   0.259804
 H 0.4798 0.4298 0.7117   0.196166
 H 0.9403 0.9453 0.7326   0.227232
 H 0.8744 0.047 0.7527   0.262174
 H 0.617 0.945 0.4655   0.245263
 H 0.5563 0.9225 0.5467   0.252694
 H 0.6467 0.4209 0.7711   0.2598
 H 0.5702 0.5202 0.7883   0.196171
 H 0.0547 0.0597 0.7674   0.227245
 H 0.953 0.1256 0.7473   0.262173
 H 0.055 0.383 0.0345   0.245263
 H 0.0775 0.4437 0.9533   0.252696
 H 0.4209 0.6467 0.2711   0.259804
 H 0.5202 0.5702 0.2883   0.196166
 H 0.0597 0.0547 0.2674   0.227235
 H 0.1256 0.953 0.2473   0.262174
 H 0.383 0.055 0.5345   0.245273
 H 0.4437 0.0775 0.4533   0.2527
 H 0.3533 0.5791 0.2289   0.2598
 H 0.4298 0.4798 0.2117   0.196171
 H 0.9453 0.9403 0.2326   0.227248
 H 0.047 0.8744 0.2527   0.262174
 H 0.945 0.617 0.9655   0.245274
 H 0.9225 0.5563 0.0467   0.252702
 C 0.5232 0.3658 0.7036   -1.034741
 C 0.8796 0.9958 0.7244   -1.035166
 C 0.6136 0.8952 0.5097   -1.022286
 C 0.6342 0.4768 0.7964   -1.034742
 C 0.0042 0.1204 0.7756   -1.035171
 C 0.1048 0.3864 0.9903   -1.022287
 C 0.4768 0.6342 0.2964   -1.034741
 C 0.1204 0.0042 0.2756   -1.035167
 C 0.3864 0.1048 0.4903   -1.022293
 C 0.3658 0.5232 0.2036   -1.034742
 C 0.9958 0.8796 0.2244   -1.035172
 C 0.8952 0.6136 0.0097   -1.022293
 O 0.8165 0.8501 0.7576   -0.935061
 O 0.6947 0.0185 0.7442   -0.970327
 O 0.9465 0.0945 0.5965   -0.90134
 O 0.6982 0.7996 0.6434   -0.896831
 O 0.6247 0.4169 0.567   -0.870256
 O 0.5296 0.1864 0.7341   -0.978648
 O 0.6134 0.2578 0.5829   -0.957997
 O 0.3683 0.3203 0.7323   -0.915875
 O 0.8043 0.8141 0.5121   -0.877312
 O 0.4659 0.2855 0.8497   -0.875389
 O 0.7818 0.956 0.8671   -0.864544
 O 0.7798 0.1034 0.6027   -0.960673
 O 0.47 0.4052 0.551   -0.914384
 O 0.7119 0.9573 0.5821   -1.086012
 O 0.6836 0.7702 0.4019   -0.963931
 O 0.5916 0.7276 0.5331   -0.888068
 O 0.5064 0.8566 0.4269   -1.088561
 O 0.9212 0.9522 0.5702   -0.92423
 O 0.1499 0.1835 0.7424   -0.935062
 O 0.9815 0.3053 0.7558   -0.970327
 O 0.9055 0.0535 0.9035   -0.90134
 O 0.2004 0.3018 0.8566   -0.896831
 O 0.5831 0.3753 0.933   -0.870257
 O 0.8136 0.4704 0.7659   -0.978648
 O 0.7422 0.3866 0.9171   -0.957998
 O 0.6797 0.6317 0.7677   -0.915876
 O 0.1859 0.1957 0.9879   -0.877312
 O 0.7145 0.5341 0.6503   -0.875389
 O 0.044 0.2182 0.6329   -0.864544
 O 0.8966 0.2202 0.8973   -0.960673
 O 0.5948 0.53 0.949   -0.914377
 O 0.0427 0.2881 0.9179   -1.086012
 O 0.2298 0.3164 0.0981   -0.96393
 O 0.2724 0.4084 0.9669   -0.888069
 O 0.1434 0.4936 0.0731   -1.088561
 O 0.0478 0.0788 0.9298   -0.92423
 O 0.1835 0.1499 0.2424   -0.935062
 O 0.3053 0.9815 0.2558   -0.970327
 O 0.0535 0.9055 0.4035   -0.901339
 O 0.3018 0.2004 0.3566   -0.896831
 O 0.3753 0.5831 0.433   -0.870257
 O 0.4704 0.8136 0.2659   -0.978649
 O 0.3866 0.7422 0.4171   -0.957997
 O 0.6317 0.6797 0.2677   -0.915875
 O 0.1957 0.1859 0.4879   -0.877312
 O 0.5341 0.7145 0.1503   -0.875389
 O 0.2182 0.044 0.1329   -0.864544
 O 0.2202 0.8966 0.3973   -0.960674
 O 0.53 0.5948 0.449   -0.914383
 O 0.2881 0.0427 0.4179   -1.086012
 O 0.3164 0.2298 0.5981   -0.963931
 O 0.4084 0.2724 0.4669   -0.888069
 O 0.4936 0.1434 0.5731   -1.08856
 O 0.0788 0.0478 0.4298   -0.92423
 O 0.8501 0.8165 0.2576   -0.935062
 O 0.0185 0.6947 0.2442   -0.970327
 O 0.0945 0.9465 0.0965   -0.90134
 O 0.7996 0.6982 0.1434   -0.896832
 O 0.4169 0.6247 0.067   -0.870258
 O 0.1864 0.5296 0.2341   -0.978649
 O 0.2578 0.6134 0.0829   -0.957998
 O 0.3203 0.3683 0.2323   -0.915876
 O 0.8141 0.8043 0.0121   -0.877312
 O 0.2855 0.4659 0.3497   -0.87539
 O 0.956 0.7818 0.3671   -0.864544
 O 0.1034 0.7798 0.1027   -0.960674
 O 0.4052 0.47 0.051   -0.914376
 O 0.9573 0.7119 0.0821   -1.086013
 O 0.7702 0.6836 0.9019   -0.96393
 O 0.7276 0.5916 0.0331   -0.88807
 O 0.8566 0.5064 0.9269   -1.088561
 O 0.9522 0.9212 0.0702   -0.92423
