{'_ref': 'TBD', '_srcid': 'CAKYAQ_clean', 'submitters': [{'name': 'Dalar Nazarian Jeff Camp and David Sholl', 'email': 'dalar@gatech.edu jcamp6@gatech.edu'}], '_method': 'VASP DFT with PBE;DDEC'}
data_Mg2H2C5N2O5
_symmetry_space_group_name_H-M   'P 1'
_cell_length_a   8.35870000
_cell_length_b   15.22530000
_cell_length_c   15.22530000
_cell_angle_alpha   90.00000000
_cell_angle_beta   90.00000000
_cell_angle_gamma   90.00000000
_symmetry_Int_Tables_number   1
_chemical_formula_structural   Mg2H2C5N2O5
_chemical_formula_sum   'Mg16 H16 C40 N16 O40'
_cell_volume   1937.62824166
_cell_formula_units_Z   8
loop_
 _symmetry_equiv_pos_site_id
 _symmetry_equiv_pos_as_xyz
  1  'x, y, z'
loop_
 _atom_site_label
 _atom_site_fract_x
 _atom_site_fract_y
 _atom_site_fract_z
 _atom_site_charge
 Mg 0.37003 0.11057 0.99945   1.478689
 Mg 0.87003 0.88943 0.000549999999997   1.478689
 Mg 0.62003 0.50055 0.61057   1.478689
 Mg 0.12003 0.49945 0.38943   1.478689
 Mg 0.87997 0.38943 0.49945   1.478691
 Mg 0.37997 0.61057 0.50055   1.478691
 Mg 0.62997 0.99945 0.11057   1.478691
 Mg 0.12997 0.000549999999997 0.88943   1.478691
 Mg 0.0 0.09891 0.09891   1.574107
 Mg 0.0 0.24748 0.24748   1.435188
 Mg 0.5 0.90109 0.90109   1.574107
 Mg 0.5 0.75252 0.75252   1.435188
 Mg 0.25 0.40109 0.59891   1.574106
 Mg 0.25 0.25252 0.74748   1.435188
 Mg 0.75 0.59891 0.40109   1.574106
 Mg 0.75 0.74748 0.25252   1.435188
 H 0.9227 0.963 0.1327   0.449535
 H 0.5416 0.3695 0.1871   0.145702
 H 0.4227 0.037 0.8673   0.449535
 H 0.0416 0.6305 0.8129   0.145702
 H 0.1727 0.3673 0.463   0.449535
 H 0.7916 0.3129 0.8695   0.145702
 H 0.6727 0.6327 0.537   0.449535
 H 0.2916 0.6871 0.1305   0.145702
 H 0.3273 0.537 0.6327   0.449535
 H 0.7084 0.1305 0.6871   0.145702
 H 0.8273 0.463 0.3673   0.449535
 H 0.2084 0.8695 0.3129   0.145702
 H 0.0773 0.1327 0.963   0.449535
 H 0.4584 0.1871 0.3695   0.145702
 H 0.5773 0.8673 0.037   0.449535
 H 0.9584 0.8129 0.6305   0.145702
 C 0.27454 0.24422 0.13532   0.740795
 C 0.45947 0.49625 0.33333   0.729863
 C 0.38467 0.42523 0.28131   0.016894
 C 0.30642 0.31677 0.19755   0.026097
 C 0.43658 0.37168 0.21291   -0.172972
 C 0.77454 0.75578 0.86468   0.740795
 C 0.95947 0.50375 0.66667   0.729863
 C 0.88467 0.57477 0.71869   0.016894
 C 0.80642 0.68323 0.80245   0.026097
 C 0.93658 0.62832 0.78709   -0.172972
 C 0.52454 0.36468 0.74422   0.740795
 C 0.70947 0.16667 0.99625   0.729863
 C 0.63467 0.21869 0.92523   0.016894
 C 0.55642 0.30245 0.81677   0.026098
 C 0.68658 0.28709 0.87168   -0.172971
 C 0.02454 0.63532 0.25578   0.740795
 C 0.20947 0.83333 0.00375   0.729863
 C 0.13467 0.78131 0.07477   0.016894
 C 0.05642 0.69755 0.18323   0.026098
 C 0.18658 0.71291 0.12832   -0.172971
 C 0.97546 0.25578 0.63532   0.740796
 C 0.79053 0.00375 0.83333   0.729863
 C 0.86533 0.07477 0.78131   0.016894
 C 0.94358 0.18323 0.69755   0.026097
 C 0.81342 0.12832 0.71291   -0.172973
 C 0.47546 0.74422 0.36468   0.740796
 C 0.29053 0.99625 0.16667   0.729863
 C 0.36533 0.92523 0.21869   0.016894
 C 0.44358 0.81677 0.30245   0.026097
 C 0.31342 0.87168 0.28709   -0.172973
 C 0.72546 0.13532 0.24422   0.740796
 C 0.54053 0.33333 0.49625   0.729863
 C 0.61533 0.28131 0.42523   0.016894
 C 0.69358 0.19755 0.31677   0.026098
 C 0.56342 0.21291 0.37168   -0.172971
 C 0.22546 0.86468 0.75578   0.740796
 C 0.04053 0.66667 0.50375   0.729863
 C 0.11533 0.71869 0.57477   0.016894
 C 0.19358 0.80245 0.68323   0.026098
 C 0.06342 0.78709 0.62832   -0.172971
 N 0.23254 0.40392 0.30426   -0.262183
 N 0.18527 0.33763 0.25339   -0.462344
 N 0.73254 0.59608 0.69574   -0.262183
 N 0.68527 0.66237 0.74661   -0.462344
 N 0.48254 0.19574 0.90392   -0.262183
 N 0.43527 0.24661 0.83763   -0.462344
 N 0.98254 0.80426 0.09608   -0.262183
 N 0.93527 0.75339 0.16237   -0.462344
 N 0.01746 0.09608 0.80426   -0.262183
 N 0.06473 0.16237 0.75339   -0.462344
 N 0.51746 0.90392 0.19574   -0.262183
 N 0.56473 0.83763 0.24661   -0.462344
 N 0.76746 0.30426 0.40392   -0.262183
 N 0.81473 0.25339 0.33763   -0.462344
 N 0.26746 0.69574 0.59608   -0.262183
 N 0.31473 0.74661 0.66237   -0.462344
 O 0.37182 0.22542 0.07648   -0.641834
 O 0.87034 0.9866 0.09693   -1.271117
 O 0.14083 0.2048 0.14647   -0.839664
 O 0.37243 0.52576 0.39601   -0.777104
 O 0.59776 0.52217 0.31709   -0.665007
 O 0.87182 0.77458 0.92352   -0.641834
 O 0.37034 0.0134 0.90307   -1.271117
 O 0.64083 0.7952 0.85353   -0.839664
 O 0.87243 0.47424 0.60399   -0.777104
 O 0.09776 0.47783 0.68291   -0.665007
 O 0.62182 0.42352 0.72542   -0.641834
 O 0.12034 0.40307 0.4866   -1.271117
 O 0.39083 0.35353 0.7048   -0.839664
 O 0.62243 0.10399 0.02576   -0.777104
 O 0.84776 0.18291 0.02217   -0.665007
 O 0.12182 0.57648 0.27458   -0.641834
 O 0.62034 0.59693 0.5134   -1.271117
 O 0.89083 0.64647 0.2952   -0.839664
 O 0.12243 0.89601 0.97424   -0.777104
 O 0.34776 0.81709 0.97783   -0.665007
 O 0.87818 0.27458 0.57648   -0.641834
 O 0.37966 0.5134 0.59693   -1.271117
 O 0.10917 0.2952 0.64647   -0.839664
 O 0.87757 0.97424 0.89601   -0.777104
 O 0.65224 0.97783 0.81709   -0.665007
 O 0.37818 0.72542 0.42352   -0.641834
 O 0.87966 0.4866 0.40307   -1.271117
 O 0.60917 0.7048 0.35353   -0.839664
 O 0.37757 0.02576 0.10399   -0.777104
 O 0.15224 0.02217 0.18291   -0.665007
 O 0.62818 0.07648 0.22542   -0.641834
 O 0.12966 0.09693 0.9866   -1.271117
 O 0.85917 0.14647 0.2048   -0.839664
 O 0.62757 0.39601 0.52576   -0.777104
 O 0.40224 0.31709 0.52217   -0.665007
 O 0.12818 0.92352 0.77458   -0.641834
 O 0.62966 0.90307 0.0134   -1.271117
 O 0.35917 0.85353 0.7952   -0.839664
 O 0.12757 0.60399 0.47424   -0.777104
 O 0.90224 0.68291 0.47783   -0.665007
