{'_ref': 'TBD', '_srcid': 'CAKYAQ_clean', 'submitters': [{'name': 'Dalar Nazarian Jeff Camp and David Sholl', 'email': 'dalar@gatech.edu jcamp6@gatech.edu'}], '_method': 'VASP DFT with PBE;DDEC'}
data_NaH9(CO)6
_symmetry_space_group_name_H-M   'P 1'
_cell_length_a   11.08450000
_cell_length_b   11.08450000
_cell_length_c   11.08450000
_cell_angle_alpha   90.00000000
_cell_angle_beta   90.00000000
_cell_angle_gamma   90.00000000
_symmetry_Int_Tables_number   1
_chemical_formula_structural   NaH9(CO)6
_chemical_formula_sum   'Na4 H36 C24 O24'
_cell_volume   1361.9097316
_cell_formula_units_Z   4
loop_
 _symmetry_equiv_pos_site_id
 _symmetry_equiv_pos_as_xyz
  1  'x, y, z'
loop_
 _atom_site_label
 _atom_site_fract_x
 _atom_site_fract_y
 _atom_site_fract_z
 _atom_site_charge
 Na 0.1521 0.3479 0.6521   0.945103
 Na 0.3479 0.6521 0.1521   0.945101
 Na 0.8479 0.8479 0.8479   0.945098
 Na 0.6521 0.1521 0.3479   0.945097
 H 0.4288 0.3438 0.0243   0.159794
 H 0.3509 0.2514 0.9509   0.16108
 H 0.4447 0.3335 0.8842   0.156187
 H 0.0712 0.6562 0.5243   0.159794
 H 0.1491 0.7486 0.4509   0.16108
 H 0.0553 0.6665 0.3842   0.156187
 H 0.5712 0.8438 0.4757   0.159794
 H 0.6491 0.7514 0.5491   0.16108
 H 0.5553 0.8335 0.6158   0.156187
 H 0.9288 0.1562 0.9757   0.159794
 H 0.8509 0.2486 0.0491   0.16108
 H 0.9447 0.1665 0.1158   0.156187
 H 0.0243 0.4288 0.3438   0.159794
 H 0.9509 0.3509 0.2514   0.161084
 H 0.8842 0.4447 0.3335   0.156192
 H 0.5243 0.0712 0.6562   0.159794
 H 0.4509 0.1491 0.7486   0.161084
 H 0.3842 0.0553 0.6665   0.156192
 H 0.4757 0.5712 0.8438   0.159794
 H 0.5491 0.6491 0.7514   0.161084
 H 0.6158 0.5553 0.8335   0.156192
 H 0.9757 0.9288 0.1562   0.159794
 H 0.0491 0.8509 0.2486   0.161084
 H 0.1158 0.9447 0.1665   0.156192
 H 0.3438 0.0243 0.4288   0.159795
 H 0.2514 0.9509 0.3509   0.161084
 H 0.3335 0.8842 0.4447   0.156199
 H 0.6562 0.5243 0.0712   0.159795
 H 0.7486 0.4509 0.1491   0.161084
 H 0.6665 0.3842 0.0553   0.156199
 H 0.8438 0.4757 0.5712   0.159795
 H 0.7514 0.5491 0.6491   0.161084
 H 0.8335 0.6158 0.5553   0.156199
 H 0.1562 0.9757 0.9288   0.159795
 H 0.2486 0.0491 0.8509   0.161084
 H 0.1665 0.1158 0.9447   0.156199
 C 0.2919 0.4248 0.9315   0.726735
 C 0.3878 0.3297 0.9493   -0.520427
 C 0.2081 0.5752 0.4315   0.726735
 C 0.1122 0.6703 0.4493   -0.520427
 C 0.7081 0.9248 0.5685   0.726735
 C 0.6122 0.8297 0.5507   -0.520427
 C 0.7919 0.0752 0.0685   0.726735
 C 0.8878 0.1703 0.0507   -0.520427
 C 0.9315 0.2919 0.4248   0.726735
 C 0.9493 0.3878 0.3297   -0.52043
 C 0.4315 0.2081 0.5752   0.726735
 C 0.4493 0.1122 0.6703   -0.52043
 C 0.5685 0.7081 0.9248   0.726735
 C 0.5507 0.6122 0.8297   -0.52043
 C 0.0685 0.7919 0.0752   0.726735
 C 0.0507 0.8878 0.1703   -0.52043
 C 0.4248 0.9315 0.2919   0.726736
 C 0.3297 0.9493 0.3878   -0.520432
 C 0.5752 0.4315 0.2081   0.726736
 C 0.6703 0.4493 0.1122   -0.520432
 C 0.9248 0.5685 0.7081   0.726736
 C 0.8297 0.5507 0.6122   -0.520432
 C 0.0752 0.0685 0.7919   0.726736
 C 0.1703 0.0507 0.8878   -0.520432
 O 0.2279 0.4223 0.8372   -0.51451
 O 0.2759 0.5039 0.0123   -0.4839
 O 0.2721 0.5777 0.3372   -0.514509
 O 0.2241 0.4961 0.5123   -0.4839
 O 0.7721 0.9223 0.6628   -0.514509
 O 0.7241 0.0039 0.4877   -0.4839
 O 0.7279 0.0777 0.1628   -0.514509
 O 0.7759 0.9961 0.9877   -0.4839
 O 0.8372 0.2279 0.4223   -0.514508
 O 0.0123 0.2759 0.5039   -0.483901
 O 0.3372 0.2721 0.5777   -0.514509
 O 0.5123 0.2241 0.4961   -0.4839
 O 0.6628 0.7721 0.9223   -0.514508
 O 0.4877 0.7241 0.0039   -0.4839
 O 0.1628 0.7279 0.0777   -0.514508
 O 0.9877 0.7759 0.9961   -0.4839
 O 0.4223 0.8372 0.2279   -0.514509
 O 0.5039 0.0123 0.2759   -0.483899
 O 0.5777 0.3372 0.2721   -0.514508
 O 0.4961 0.5123 0.2241   -0.483899
 O 0.9223 0.6628 0.7721   -0.514508
 O 0.0039 0.4877 0.7241   -0.483899
 O 0.0777 0.1628 0.7279   -0.514509
 O 0.9961 0.9877 0.7759   -0.483899
