{'_ref': 'TBD', '_srcid': 'CAKYAQ_clean', 'submitters': [{'name': 'Dalar Nazarian Jeff Camp and David Sholl', 'email': 'dalar@gatech.edu jcamp6@gatech.edu'}], '_method': 'VASP DFT with PBE;DDEC'}
data_Cs2Cr2Ag5(C6O13)2
_symmetry_space_group_name_H-M   'P 1'
_cell_length_a   11.72600003
_cell_length_b   11.72599992
_cell_length_c   12.37900000
_cell_angle_alpha   72.21009988
_cell_angle_beta   72.21010005
_cell_angle_gamma   77.12350049
_symmetry_Int_Tables_number   1
_chemical_formula_structural   Cs2Cr2Ag5(C6O13)2
_chemical_formula_sum   'Cs4 Cr4 Ag10 C24 O52'
_cell_volume   1527.39128036
_cell_formula_units_Z   2
loop_
 _symmetry_equiv_pos_site_id
 _symmetry_equiv_pos_as_xyz
  1  'x, y, z'
loop_
 _atom_site_label
 _atom_site_fract_x
 _atom_site_fract_y
 _atom_site_fract_z
 _atom_site_charge
 Cs 0.7057 0.2767 0.8602   0.872556
 Cs 0.7233 0.2943 0.6398   0.872562
 Cs 0.2943 0.7233 0.1398   0.872563
 Cs 0.2767 0.7057 0.3602   0.872569
 Cr 0.20513 0.21387 0.47614   1.477938
 Cr 0.78613 0.79487 0.02386   1.477938
 Cr 0.79487 0.78613 0.52386   1.477938
 Cr 0.21387 0.20513 0.97614   1.477938
 Ag 0.9491 0.55434 0.74462   0.624539
 Ag 0.11254 0.73208 0.87525   0.651744
 Ag 0.44566 0.0509 0.75538   0.624539
 Ag 0.26792 0.88746 0.62475   0.651742
 Ag 0.0509 0.44566 0.25538   0.624539
 Ag 0.88746 0.26792 0.12475   0.651744
 Ag 0.55434 0.9491 0.24462   0.624539
 Ag 0.73208 0.11254 0.37525   0.651742
 Ag 0.96263 0.03737 0.75   0.537235
 Ag 0.03737 0.96263 0.25   0.537234
 C 0.0412 0.3306 0.6355   0.541285
 C 0.1209 0.4255 0.5455   0.527482
 C 0.4496 0.1714 0.3727   0.520965
 C 0.4367 0.1431 0.5047   0.511979
 C 0.1267 0.0355 0.4249   0.549035
 C 0.0658 0.1588 0.3593   0.552373
 C 0.6694 0.9588 0.8645   0.541285
 C 0.5745 0.8791 0.9545   0.527482
 C 0.8286 0.5504 0.1273   0.520965
 C 0.8569 0.5633 0.9953   0.511979
 C 0.9645 0.8733 0.0751   0.549035
 C 0.8412 0.9342 0.1407   0.552374
 C 0.9588 0.6694 0.3645   0.541285
 C 0.8791 0.5745 0.4545   0.527482
 C 0.5504 0.8286 0.6273   0.520965
 C 0.5633 0.8569 0.4953   0.51198
 C 0.8733 0.9645 0.5751   0.549034
 C 0.9342 0.8412 0.6407   0.552373
 C 0.3306 0.0412 0.1355   0.541285
 C 0.4255 0.1209 0.0455   0.527482
 C 0.1714 0.4496 0.8727   0.520965
 C 0.1431 0.4367 0.0047   0.51198
 C 0.0355 0.1267 0.9249   0.549034
 C 0.1588 0.0658 0.8593   0.552374
 O 0.0696 0.226 0.613   -0.593026
 O 0.2019 0.3845 0.4648   -0.618647
 O 0.9577 0.3583 0.7166   -0.577098
 O 0.1037 0.5287 0.5579   -0.510176
 O 0.3492 0.211 0.343   -0.569311
 O 0.3265 0.1575 0.568   -0.596926
 O 0.1562 0.5484 0.8062   -0.461459
 O 0.8944 0.4738 0.9559   -0.500754
 O 0.187 0.0462 0.4889   -0.582197
 O 0.0953 0.2505 0.3723   -0.574376
 O 0.8882 0.0608 0.5862   -0.538568
 O 0.0036 0.8378 0.6994   -0.532269
 O 0.3062 0.704 0.8982   -0.44371
 O 0.774 0.9304 0.887   -0.593026
 O 0.6155 0.7981 0.0352   -0.618647
 O 0.6417 0.0423 0.7834   -0.577098
 O 0.4713 0.8963 0.9421   -0.510176
 O 0.789 0.6508 0.157   -0.569311
 O 0.8425 0.6735 0.932   -0.596926
 O 0.4516 0.8438 0.6938   -0.46146
 O 0.5262 0.1056 0.5441   -0.500754
 O 0.9538 0.813 0.0111   -0.582197
 O 0.7495 0.9047 0.1277   -0.574376
 O 0.9392 0.1118 0.9138   -0.538567
 O 0.1622 0.9964 0.8006   -0.532269
 O 0.296 0.6938 0.6018   -0.443712
 O 0.9304 0.774 0.387   -0.593026
 O 0.7981 0.6155 0.5352   -0.618647
 O 0.0423 0.6417 0.2834   -0.577098
 O 0.8963 0.4713 0.4421   -0.510176
 O 0.6508 0.789 0.657   -0.569311
 O 0.6735 0.8425 0.432   -0.596926
 O 0.8438 0.4516 0.1938   -0.461459
 O 0.1056 0.5262 0.0441   -0.500754
 O 0.813 0.9538 0.5111   -0.582197
 O 0.9047 0.7495 0.6277   -0.574376
 O 0.1118 0.9392 0.4138   -0.538568
 O 0.9964 0.1622 0.3006   -0.532269
 O 0.6938 0.296 0.1018   -0.44371
 O 0.226 0.0696 0.113   -0.593026
 O 0.3845 0.2019 0.9648   -0.618647
 O 0.3583 0.9577 0.2166   -0.577098
 O 0.5287 0.1037 0.0579   -0.510176
 O 0.211 0.3492 0.843   -0.569311
 O 0.1575 0.3265 0.068   -0.596926
 O 0.5484 0.1562 0.3062   -0.46146
 O 0.4738 0.8944 0.4559   -0.500754
 O 0.0462 0.187 0.9889   -0.582197
 O 0.2505 0.0953 0.8723   -0.574376
 O 0.0608 0.8882 0.0862   -0.538568
 O 0.8378 0.0036 0.1994   -0.532269
 O 0.704 0.3062 0.3982   -0.443712
