{'_ref': 'TBD', '_srcid': 'CAKYAQ_clean', 'submitters': [{'name': 'Dalar Nazarian Jeff Camp and David Sholl', 'email': 'dalar@gatech.edu jcamp6@gatech.edu'}], '_method': 'VASP DFT with PBE;DDEC'}
data_Cs2Cr2Ag5(C6O13)2
_symmetry_space_group_name_H-M   'P 1'
_cell_length_a   11.72760024
_cell_length_b   11.72759977
_cell_length_c   12.38300000
_cell_angle_alpha   72.21570169
_cell_angle_beta   72.21570244
_cell_angle_gamma   77.16699964
_symmetry_Int_Tables_number   1
_chemical_formula_structural   Cs2Cr2Ag5(C6O13)2
_chemical_formula_sum   'Cs4 Cr4 Ag10 C24 O52'
_cell_volume   1528.56717746
_cell_formula_units_Z   2
loop_
 _symmetry_equiv_pos_site_id
 _symmetry_equiv_pos_as_xyz
  1  'x, y, z'
loop_
 _atom_site_label
 _atom_site_fract_x
 _atom_site_fract_y
 _atom_site_fract_z
 _atom_site_charge
 Cs 0.7066 0.2758 0.8608   0.872066
 Cs 0.7242 0.2934 0.6392   0.872079
 Cs 0.2934 0.7242 0.1392   0.872071
 Cs 0.2758 0.7066 0.3608   0.872084
 Cr 0.20501 0.21379 0.4763   1.482072
 Cr 0.78621 0.79499 0.0237   1.482072
 Cr 0.79499 0.78621 0.5237   1.482072
 Cr 0.21379 0.20501 0.9763   1.482072
 Ag 0.94946 0.55408 0.7444   0.626146
 Ag 0.11213 0.73195 0.87602   0.664398
 Ag 0.44592 0.05054 0.7556   0.626146
 Ag 0.26805 0.88787 0.62398   0.664398
 Ag 0.05054 0.44592 0.2556   0.626146
 Ag 0.88787 0.26805 0.12398   0.664398
 Ag 0.55408 0.94946 0.2444   0.626146
 Ag 0.73195 0.11213 0.37602   0.664398
 Ag 0.96413 0.03587 0.75   0.538134
 Ag 0.03587 0.96413 0.25   0.538134
 C 0.0405 0.3297 0.6332   0.544012
 C 0.1206 0.4246 0.5457   0.52363
 C 0.4512 0.171 0.3713   0.5326
 C 0.4369 0.1421 0.506   0.51401
 C 0.9641 0.8731 0.0756   0.543058
 C 0.0653 0.1593 0.3587   0.558451
 C 0.6703 0.9595 0.8668   0.544013
 C 0.5754 0.8794 0.9543   0.52363
 C 0.829 0.5488 0.1287   0.5326
 C 0.8579 0.5631 0.994   0.51401
 C 0.1269 0.0359 0.4244   0.543053
 C 0.8407 0.9347 0.1413   0.558445
 C 0.9595 0.6703 0.3668   0.544011
 C 0.8794 0.5754 0.4543   0.52363
 C 0.5488 0.829 0.6287   0.5326
 C 0.5631 0.8579 0.494   0.51401
 C 0.0359 0.1269 0.9244   0.543058
 C 0.9347 0.8407 0.6413   0.558451
 C 0.3297 0.0405 0.1332   0.544012
 C 0.4246 0.1206 0.0457   0.52363
 C 0.171 0.4512 0.8713   0.5326
 C 0.1421 0.4369 0.006   0.51401
 C 0.8731 0.9641 0.5756   0.543052
 C 0.1593 0.0653 0.8587   0.558445
 O 0.0693 0.2269 0.6135   -0.578601
 O 0.2019 0.3837 0.4655   -0.612014
 O 0.9586 0.3582 0.7169   -0.594873
 O 0.104 0.5288 0.5593   -0.516118
 O 0.3504 0.211 0.3436   -0.577426
 O 0.3274 0.1564 0.5672   -0.598483
 O 0.1559 0.5479 0.8055   -0.461826
 O 0.1054 0.5258 0.0452   -0.502684
 O 0.954 0.8124 0.0105   -0.588025
 O 0.0955 0.2517 0.372   -0.583893
 O 0.8879 0.0607 0.5863   -0.531697
 O 0.0024 0.8396 0.6989   -0.523286
 O 0.2977 0.7093 0.9049   -0.460587
 O 0.7731 0.9307 0.8865   -0.578601
 O 0.6163 0.7981 0.0345   -0.612014
 O 0.6418 0.0414 0.7831   -0.594873
 O 0.4712 0.896 0.9407   -0.516118
 O 0.789 0.6496 0.1564   -0.577426
 O 0.8436 0.6726 0.9328   -0.598483
 O 0.4521 0.8441 0.6945   -0.461823
 O 0.4742 0.8946 0.4548   -0.502684
 O 0.1876 0.046 0.4895   -0.588025
 O 0.7483 0.9045 0.128   -0.583893
 O 0.9393 0.1121 0.9137   -0.531697
 O 0.1604 0.9976 0.8011   -0.523287
 O 0.2907 0.7023 0.5951   -0.460587
 O 0.9307 0.7731 0.3865   -0.578601
 O 0.7981 0.6163 0.5345   -0.612014
 O 0.0414 0.6418 0.2831   -0.594873
 O 0.896 0.4712 0.4407   -0.516118
 O 0.6496 0.789 0.6564   -0.577426
 O 0.6726 0.8436 0.4328   -0.598483
 O 0.8441 0.4521 0.1945   -0.461826
 O 0.8946 0.4742 0.9548   -0.502684
 O 0.046 0.1876 0.9895   -0.588025
 O 0.9045 0.7483 0.628   -0.583894
 O 0.1121 0.9393 0.4137   -0.531697
 O 0.9976 0.1604 0.3011   -0.523286
 O 0.7023 0.2907 0.0951   -0.460587
 O 0.2269 0.0693 0.1135   -0.578601
 O 0.3837 0.2019 0.9655   -0.612014
 O 0.3582 0.9586 0.2169   -0.594874
 O 0.5288 0.104 0.0593   -0.516118
 O 0.211 0.3504 0.8436   -0.577426
 O 0.1564 0.3274 0.0672   -0.598483
 O 0.5479 0.1559 0.3055   -0.461823
 O 0.5258 0.1054 0.5452   -0.502684
 O 0.8124 0.954 0.5105   -0.588024
 O 0.2517 0.0955 0.872   -0.583893
 O 0.0607 0.8879 0.0863   -0.531698
 O 0.8396 0.0024 0.1989   -0.523287
 O 0.7093 0.2977 0.4049   -0.460587
