{'_ref': 'TBD', '_srcid': 'CAKYAQ_clean', 'submitters': [{'name': 'Dalar Nazarian Jeff Camp and David Sholl', 'email': 'dalar@gatech.edu jcamp6@gatech.edu'}], '_method': 'VASP DFT with PBE;DDEC'}
data_MgH6(CO)4
_symmetry_space_group_name_H-M   'P 1'
_cell_length_a   8.58789972
_cell_length_b   8.58789977
_cell_length_c   20.86370000
_cell_angle_alpha   100.89699891
_cell_angle_beta   100.89699898
_cell_angle_gamma   94.67139992
_symmetry_Int_Tables_number   1
_chemical_formula_structural   MgH6(CO)4
_chemical_formula_sum   'Mg6 H36 C24 O24'
_cell_volume   1472.75275795
_cell_formula_units_Z   6
loop_
 _symmetry_equiv_pos_site_id
 _symmetry_equiv_pos_as_xyz
  1  'x, y, z'
loop_
 _atom_site_label
 _atom_site_fract_x
 _atom_site_fract_y
 _atom_site_fract_z
 _atom_site_charge
 Mg 0.58313 0.71035 0.33266   1.58304
 Mg 0.28965 0.41687 0.66734   1.58304
 Mg 0.37231 0.99953 0.83266   1.582798
 Mg 0.00047 0.62769 0.16734   1.582798
 Mg 0.70273 0.29727 0.5   1.577446
 Mg 0.95273 0.04727 0.0   1.579987
 H 0.0331 0.0413 0.3796   0.152424
 H 0.9702 0.2114 0.3976   0.167035
 H 0.0318 0.119 0.4556   0.166258
 H 0.9893 0.7221 0.421   0.166774
 H 0.0608 0.555 0.4166   0.15222
 H 0.9506 0.5934 0.352   0.163697
 H 0.5519 0.3533 0.2536   0.163367
 H 0.6393 0.2511 0.2016   0.151525
 H 0.7247 0.3033 0.2788   0.165124
 H 0.9587 0.9669 0.6204   0.152424
 H 0.7886 0.0298 0.6024   0.167035
 H 0.881 0.9682 0.5444   0.166259
 H 0.2779 0.0107 0.579   0.166775
 H 0.445 0.9392 0.5834   0.152219
 H 0.4066 0.0494 0.648   0.163697
 H 0.6467 0.4481 0.7464   0.163367
 H 0.7489 0.3607 0.7984   0.151525
 H 0.6967 0.2753 0.7212   0.165124
 H 0.0883 0.5965 0.8796   0.151694
 H 0.9362 0.6774 0.8976   0.165137
 H 0.0866 0.6738 0.9556   0.165372
 H 0.4489 0.6817 0.921   0.167813
 H 0.6116 0.6058 0.9166   0.154263
 H 0.5086 0.6514 0.852   0.165085
 H 0.6503 0.9517 0.7536   0.163629
 H 0.7005 0.8123 0.7016   0.151916
 H 0.7255 0.8041 0.7788   0.164278
 H 0.4035 0.9117 0.1204   0.151694
 H 0.3226 0.0638 0.1024   0.165137
 H 0.3262 0.9134 0.0444   0.165373
 H 0.3183 0.5511 0.079   0.167814
 H 0.3942 0.3884 0.0834   0.154262
 H 0.3486 0.4914 0.148   0.165085
 H 0.0483 0.3497 0.2464   0.163629
 H 0.1877 0.2995 0.2984   0.151916
 H 0.1959 0.2745 0.2212   0.164278
 C 0.8077 0.02364 0.40032   0.876241
 C 0.97546 0.10608 0.40902   -0.553934
 C 0.82178 0.53506 0.41984   0.871293
 C 0.96856 0.60782 0.4007   -0.545501
 C 0.73258 0.48882 0.22908   0.873176
 C 0.65529 0.33561 0.24192   -0.546289
 C 0.97636 0.1923 0.59968   0.876241
 C 0.89392 0.02454 0.59098   -0.553935
 C 0.46494 0.17822 0.58016   0.871293
 C 0.39218 0.03144 0.5993   -0.545501
 C 0.51118 0.26742 0.77092   0.873176
 C 0.66439 0.34471 0.75808   -0.546289
 C 0.12668 0.84262 0.90032   0.874035
 C 0.05294 0.68356 0.90902   -0.549596
 C 0.63478 0.84806 0.91984   0.877009
 C 0.54288 0.68214 0.9007   -0.552049
 C 0.49026 0.7465 0.72908   0.872151
 C 0.65631 0.83663 0.74192   -0.546196
 C 0.15738 0.87332 0.09968   0.874035
 C 0.31644 0.94706 0.09098   -0.549596
 C 0.15194 0.36522 0.08016   0.877009
 C 0.31786 0.45712 0.0993   -0.552049
 C 0.2535 0.50974 0.27092   0.872151
 C 0.16337 0.34369 0.25808   -0.546196
 O 0.76853 0.89297 0.3592   -0.783156
 O 0.71622 0.0887 0.43534   -0.817867
 O 0.68645 0.56903 0.3941   -0.816484
 O 0.84196 0.44478 0.46068   -0.778412
 O 0.83084 0.47794 0.19172   -0.780627
 O 0.69507 0.62037 0.25764   -0.818793
 O 0.10703 0.23147 0.6408   -0.783156
 O 0.9113 0.28378 0.56466   -0.817868
 O 0.43097 0.31355 0.6059   -0.816484
 O 0.55522 0.15804 0.53932   -0.778412
 O 0.52206 0.16916 0.80828   -0.780627
 O 0.37963 0.30493 0.74236   -0.818793
 O 0.21623 0.84067 0.8592   -0.780102
 O 0.09664 0.96912 0.93534   -0.819498
 O 0.57507 0.95765 0.8941   -0.819177
 O 0.7659 0.86872 0.96068   -0.780208
 O 0.46378 0.61088 0.69172   -0.779604
 O 0.38727 0.81257 0.75764   -0.818577
 O 0.15933 0.78377 0.1408   -0.780102
 O 0.03088 0.90336 0.06466   -0.819498
 O 0.04235 0.42493 0.1059   -0.819177
 O 0.13128 0.2341 0.03932   -0.780208
 O 0.38912 0.53622 0.30828   -0.779604
 O 0.18743 0.61273 0.24236   -0.818577
