{'_ref': 'TBD', '_srcid': 'CAKYAQ_clean', 'submitters': [{'name': 'Dalar Nazarian Jeff Camp and David Sholl', 'email': 'dalar@gatech.edu jcamp6@gatech.edu'}], '_method': 'VASP DFT with PBE;DDEC'}
data_Zn3H18C20(NO2)4
_symmetry_space_group_name_H-M   'P 1'
_cell_length_a   9.13360000
_cell_length_b   16.69120000
_cell_length_c   20.44320007
_cell_angle_alpha   110.02299949
_cell_angle_beta   90.00000000
_cell_angle_gamma   90.00000000
_symmetry_Int_Tables_number   1
_chemical_formula_structural   Zn3H18C20(NO2)4
_chemical_formula_sum   'Zn12 H72 C80 N16 O32'
_cell_volume   2928.20011074
_cell_formula_units_Z   4
loop_
 _symmetry_equiv_pos_site_id
 _symmetry_equiv_pos_as_xyz
  1  'x, y, z'
loop_
 _atom_site_label
 _atom_site_fract_x
 _atom_site_fract_y
 _atom_site_fract_z
 _atom_site_charge
 Zn 0.79978 0.23191 0.33815   0.994473
 Zn 0.79978 0.26809 0.66185   0.994473
 Zn 0.29978 0.23191 0.83815   0.994473
 Zn 0.29978 0.26809 0.16185   0.994473
 Zn 0.20022 0.76809 0.66185   0.994473
 Zn 0.20022 0.73191 0.33815   0.994473
 Zn 0.70022 0.76809 0.16185   0.994473
 Zn 0.70022 0.73191 0.83815   0.994473
 Zn 0.74254 0.25 0.5   1.122201
 Zn 0.24254 0.25 0.0   1.122201
 Zn 0.25746 0.75 0.5   1.122201
 Zn 0.75746 0.75 0.0   1.122201
 H 0.3871 0.6218 0.2216   0.076508
 H 0.3871 0.8782 0.7784   0.076508
 H 0.8871 0.6218 0.7216   0.076508
 H 0.8871 0.8782 0.2784   0.076508
 H 0.6129 0.3782 0.7784   0.076508
 H 0.6129 0.1218 0.2216   0.076508
 H 0.1129 0.3782 0.2784   0.076508
 H 0.1129 0.1218 0.7216   0.076508
 H 0.6647 0.9667 0.2733   0.110978
 H 0.6647 0.5333 0.7267   0.110978
 H 0.1647 0.9667 0.7733   0.110978
 H 0.1647 0.5333 0.2267   0.110978
 H 0.3353 0.0333 0.7267   0.110978
 H 0.3353 0.4667 0.2733   0.110978
 H 0.8353 0.0333 0.2267   0.110978
 H 0.8353 0.4667 0.7733   0.110978
 H 0.4377 0.051 0.4539   0.096686
 H 0.4377 0.449 0.5461   0.096686
 H 0.9377 0.051 0.9539   0.096686
 H 0.9377 0.449 0.0461   0.096686
 H 0.5623 0.949 0.5461   0.096686
 H 0.5623 0.551 0.4539   0.096686
 H 0.0623 0.949 0.0461   0.096686
 H 0.0623 0.551 0.9539   0.096686
 H 0.3217 0.9222 0.4298   0.125262
 H 0.3217 0.5778 0.5702   0.125262
 H 0.8217 0.9222 0.9298   0.125262
 H 0.8217 0.5778 0.0702   0.125262
 H 0.6783 0.0778 0.5702   0.125262
 H 0.6783 0.4222 0.4298   0.125262
 H 0.1783 0.0778 0.0702   0.125262
 H 0.1783 0.4222 0.9298   0.125262
 H 0.3888 0.6954 0.1082   0.118608
 H 0.3888 0.8046 0.8918   0.118608
 H 0.8888 0.6954 0.6082   0.118608
 H 0.8888 0.8046 0.3918   0.118608
 H 0.6112 0.3046 0.8918   0.118608
 H 0.6112 0.1954 0.1082   0.118608
 H 0.1112 0.3046 0.3918   0.118608
 H 0.1112 0.1954 0.6082   0.118608
 H 0.2428 0.6949 0.1484   0.109705
 H 0.2428 0.8051 0.8516   0.109705
 H 0.7428 0.6949 0.6484   0.109705
 H 0.7428 0.8051 0.3516   0.109705
 H 0.7572 0.3051 0.8516   0.109705
 H 0.7572 0.1949 0.1484   0.109705
 H 0.2572 0.3051 0.3516   0.109705
 H 0.2572 0.1949 0.6484   0.109705
 H 0.3128 0.6086 0.1013   0.114352
 H 0.3128 0.8914 0.8987   0.114352
 H 0.8128 0.6086 0.6013   0.114352
 H 0.8128 0.8914 0.3987   0.114352
 H 0.6872 0.3914 0.8987   0.114352
 H 0.6872 0.1086 0.1013   0.114352
 H 0.1872 0.3914 0.3987   0.114352
 H 0.1872 0.1086 0.6013   0.114352
 H 0.9295 0.3215 0.4485   0.431316
 H 0.9295 0.1785 0.5515   0.431316
 H 0.4295 0.3215 0.9485   0.431316
 H 0.4295 0.1785 0.0515   0.431316
 H 0.0705 0.6785 0.5515   0.431316
 H 0.0705 0.8215 0.4485   0.431316
 H 0.5705 0.6785 0.0515   0.431316
 H 0.5705 0.8215 0.9485   0.431316
 H 0.5432 0.5783 0.1435   0.420992
 H 0.5432 0.9217 0.8565   0.420992
 H 0.0432 0.5783 0.6435   0.420992
 H 0.0432 0.9217 0.3565   0.420992
 H 0.4568 0.4217 0.8565   0.420992
 H 0.4568 0.0783 0.1435   0.420992
 H 0.9568 0.4217 0.3565   0.420992
 H 0.9568 0.0783 0.6435   0.420992
 C 0.4278 0.6604 0.1994   0.168062
 C 0.4278 0.8396 0.8006   0.168062
 C 0.9278 0.6604 0.6994   0.168062
 C 0.9278 0.8396 0.3006   0.168062
 C 0.5722 0.3396 0.8006   0.168062
 C 0.5722 0.1604 0.1994   0.168062
 C 0.0722 0.3396 0.3006   0.168062
 C 0.0722 0.1604 0.6994   0.168062
 C 0.4532 0.7503 0.2482   0.403882
 C 0.4532 0.7497 0.7518   0.403882
 C 0.9532 0.7503 0.7482   0.403882
 C 0.9532 0.7497 0.2518   0.403882
 C 0.5468 0.2497 0.7518   0.403882
 C 0.5468 0.2503 0.2482   0.403882
 C 0.0468 0.2497 0.2518   0.403882
 C 0.0468 0.2503 0.7482   0.403882
 C 0.5293 0.8791 0.2908   0.147715
 C 0.5293 0.6209 0.7092   0.147715
 C 0.0293 0.8791 0.7908   0.147715
 C 0.0293 0.6209 0.2092   0.147715
 C 0.4707 0.1209 0.7092   0.147715
 C 0.4707 0.3791 0.2908   0.147715
 C 0.9707 0.1209 0.2092   0.147715
 C 0.9707 0.3791 0.7908   0.147715
 C 0.425 0.8665 0.3358   0.196651
 C 0.425 0.6335 0.6642   0.196651
 C 0.925 0.8665 0.8358   0.196651
 C 0.925 0.6335 0.1642   0.196651
 C 0.575 0.1335 0.6642   0.196651
 C 0.575 0.3665 0.3358   0.196651
 C 0.075 0.1335 0.1642   0.196651
 C 0.075 0.3665 0.8358   0.196651
 C 0.5985 0.9574 0.3045   -0.119203
 C 0.5985 0.5426 0.6955   -0.119203
 C 0.0985 0.9574 0.8045   -0.119203
 C 0.0985 0.5426 0.1955   -0.119203
 C 0.4015 0.0426 0.6955   -0.119203
 C 0.4015 0.4574 0.3045   -0.119203
 C 0.9015 0.0426 0.1955   -0.119203
 C 0.9015 0.4574 0.8045   -0.119203
 C 0.4595 0.0068 0.4128   -0.035647
 C 0.4595 0.4932 0.5872   -0.035647
 C 0.9595 0.0068 0.9128   -0.035647
 C 0.9595 0.4932 0.0872   -0.035647
 C 0.5405 0.9932 0.5872   -0.035648
 C 0.5405 0.5068 0.4128   -0.035648
 C 0.0405 0.9932 0.0872   -0.035648
 C 0.0405 0.5068 0.9128   -0.035648
 C 0.638 0.106 0.3854   0.703034
 C 0.638 0.394 0.6146   0.703034
 C 0.138 0.106 0.8854   0.703034
 C 0.138 0.394 0.1146   0.703034
 C 0.362 0.894 0.6146   0.703034
 C 0.362 0.606 0.3854   0.703034
 C 0.862 0.894 0.1146   0.703034
 C 0.862 0.606 0.8854   0.703034
 C 0.5637 0.0213 0.3673   -0.182528
 C 0.5637 0.4787 0.6327   -0.182528
 C 0.0637 0.0213 0.8673   -0.182528
 C 0.0637 0.4787 0.1327   -0.182528
 C 0.4363 0.9787 0.6327   -0.182528
 C 0.4363 0.5213 0.3673   -0.182528
 C 0.9363 0.9787 0.1327   -0.182528
 C 0.9363 0.5213 0.8673   -0.182528
 C 0.3896 0.931 0.399   -0.195132
 C 0.3896 0.569 0.601   -0.195132
 C 0.8896 0.931 0.899   -0.195132
 C 0.8896 0.569 0.101   -0.195132
 C 0.6104 0.069 0.601   -0.195132
 C 0.6104 0.431 0.399   -0.195132
 C 0.1104 0.069 0.101   -0.195132
 C 0.1104 0.431 0.899   -0.195132
 C 0.3332 0.6653 0.1323   -0.377326
 C 0.3332 0.8347 0.8677   -0.377326
 C 0.8332 0.6653 0.6323   -0.377326
 C 0.8332 0.8347 0.3677   -0.377326
 C 0.6668 0.3347 0.8677   -0.377326
 C 0.6668 0.1653 0.1323   -0.377326
 C 0.1668 0.3347 0.3677   -0.377326
 C 0.1668 0.1653 0.6323   -0.377326
 N 0.5453 0.8024 0.2353   -0.5074
 N 0.5453 0.6976 0.7647   -0.5074
 N 0.0453 0.8024 0.7353   -0.5074
 N 0.0453 0.6976 0.2647   -0.5074
 N 0.4547 0.1976 0.7647   -0.5074
 N 0.4547 0.3024 0.2353   -0.5074
 N 0.9547 0.1976 0.2647   -0.5074
 N 0.9547 0.3024 0.7353   -0.5074
 N 0.374 0.7827 0.3076   -0.550868
 N 0.374 0.7173 0.6924   -0.550868
 N 0.874 0.7827 0.8076   -0.550868
 N 0.874 0.7173 0.1924   -0.550868
 N 0.626 0.2173 0.6924   -0.550868
 N 0.626 0.2827 0.3076   -0.550868
 N 0.126 0.2173 0.1924   -0.550868
 N 0.126 0.2827 0.8076   -0.550868
 O 0.61 0.1602 0.4439   -0.622991
 O 0.61 0.3398 0.5561   -0.622991
 O 0.11 0.1602 0.9439   -0.622991
 O 0.11 0.3398 0.0561   -0.622991
 O 0.39 0.8398 0.5561   -0.622991
 O 0.39 0.6602 0.4439   -0.622991
 O 0.89 0.8398 0.0561   -0.622991
 O 0.89 0.6602 0.9439   -0.622991
 O 0.7237 0.1184 0.3418   -0.620661
 O 0.7237 0.3816 0.6582   -0.620661
 O 0.2237 0.1184 0.8418   -0.620661
 O 0.2237 0.3816 0.1582   -0.620661
 O 0.2763 0.8816 0.6582   -0.620661
 O 0.2763 0.6184 0.3418   -0.620661
 O 0.7763 0.8816 0.1582   -0.620661
 O 0.7763 0.6184 0.8418   -0.620661
 O 0.8529 0.2826 0.43451   -0.992881
 O 0.8529 0.2174 0.56549   -0.992881
 O 0.3529 0.2826 0.93451   -0.992881
 O 0.3529 0.2174 0.06549   -0.992881
 O 0.1471 0.7174 0.56549   -0.992881
 O 0.1471 0.7826 0.43451   -0.992881
 O 0.6471 0.7174 0.06549   -0.992881
 O 0.6471 0.7826 0.93451   -0.992881
 O 0.5475 0.6305 0.1601   -0.574686
 O 0.5475 0.8695 0.8399   -0.574686
 O 0.0475 0.6305 0.6601   -0.574686
 O 0.0475 0.8695 0.3399   -0.574686
 O 0.4525 0.3695 0.8399   -0.574686
 O 0.4525 0.1305 0.1601   -0.574686
 O 0.9525 0.3695 0.3399   -0.574686
 O 0.9525 0.1305 0.6601   -0.574686
