{'_ref': 'TBD', '_srcid': 'CAKYAQ_clean', 'submitters': [{'name': 'Dalar Nazarian Jeff Camp and David Sholl', 'email': 'dalar@gatech.edu jcamp6@gatech.edu'}], '_method': 'VASP DFT with PBE;DDEC'}
data_Zn3H18C20(NO2)4
_symmetry_space_group_name_H-M   'P 1'
_cell_length_a   9.00500000
_cell_length_b   11.16599959
_cell_length_c   16.67200000
_cell_angle_alpha   108.44699956
_cell_angle_beta   90.00000000
_cell_angle_gamma   113.77999927
_symmetry_Int_Tables_number   1
_chemical_formula_structural   Zn3H18C20(NO2)4
_chemical_formula_sum   'Zn6 H36 C40 N8 O16'
_cell_volume   1439.4150408
_cell_formula_units_Z   2
loop_
 _symmetry_equiv_pos_site_id
 _symmetry_equiv_pos_as_xyz
  1  'x, y, z'
loop_
 _atom_site_label
 _atom_site_fract_x
 _atom_site_fract_y
 _atom_site_fract_z
 _atom_site_charge
 Zn 0.14448 0.67838 0.73249   0.914906
 Zn 0.4661 0.32162 0.76751   0.915929
 Zn 0.85552 0.32162 0.26751   0.914906
 Zn 0.5339 0.67838 0.23249   0.915929
 Zn 0.24815 0.0 0.75   1.117649
 Zn 0.75185 0.0 0.25   1.117649
 H 0.9329 0.544 0.4679   0.115033
 H 0.7461 0.862 0.4236   0.130707
 H 0.8932 0.9124 0.555   0.104951
 H 0.7956 0.3758 0.1128   0.395321
 H 0.6009 0.4496 0.1227   0.079317
 H 0.4053 0.203 0.1022   0.128484
 H 0.484 0.214 0.1918   0.136124
 H 0.3737 0.2954 0.1898   0.107506
 H 0.332 0.87 0.815   0.46336
 H 0.3889 0.456 0.0321   0.115017
 H 0.8841 0.138 0.0764   0.131045
 H 0.9808 0.0876 0.945   0.105731
 H 0.4198 0.6242 0.3872   0.396338
 H 0.1513 0.5504 0.3773   0.078707
 H 0.2023 0.797 0.3978   0.128445
 H 0.27 0.786 0.3082   0.13605
 H 0.0783 0.7046 0.3102   0.107378
 H 0.462 0.13 0.685   0.461681
 H 0.0671 0.456 0.5321   0.115033
 H 0.2539 0.138 0.5764   0.130708
 H 0.1068 0.0876 0.445   0.10495
 H 0.2044 0.6242 0.8872   0.395321
 H 0.3991 0.5504 0.8773   0.079318
 H 0.5947 0.797 0.8978   0.128485
 H 0.516 0.786 0.8082   0.136121
 H 0.6263 0.7046 0.8102   0.107506
 H 0.668 0.13 0.185   0.463358
 H 0.6111 0.544 0.9679   0.115017
 H 0.1159 0.862 0.9236   0.131046
 H 0.0192 0.9124 0.055   0.10573
 H 0.5802 0.3758 0.6128   0.396338
 H 0.8487 0.4496 0.6227   0.078707
 H 0.7977 0.203 0.6022   0.128446
 H 0.73 0.214 0.6918   0.136047
 H 0.9217 0.2954 0.6898   0.107378
 H 0.538 0.87 0.315   0.461679
 C 0.8984 0.609 0.4584   -0.129323
 C 0.0239 0.7706 0.6068   0.694693
 C 0.9292 0.7356 0.5227   -0.166694
 C 0.7854 0.7992 0.4325   -0.195015
 C 0.8161 0.5824 0.3807   0.159272
 C 0.6974 0.499 0.2498   0.364158
 C 0.7582 0.674 0.3681   0.174905
 C 0.872 0.8278 0.5097   -0.037439
 C 0.6195 0.4022 0.1609   0.152899
 C 0.4537 0.2646 0.1612   -0.350861
 C 0.2894 0.391 0.0416   -0.129722
 C 0.2533 0.2294 0.8932   0.69653
 C 0.1936 0.2644 0.9773   -0.166342
 C 0.9862 0.2008 0.0675   -0.195385
 C 0.2337 0.4176 0.1193   0.159058
 C 0.1984 0.501 0.2502   0.363863
 C 0.0842 0.326 0.1319   0.174683
 C 0.0442 0.1722 0.9903   -0.038249
 C 0.2173 0.5978 0.3391   0.154136
 C 0.1891 0.7354 0.3388   -0.350722
 C 0.1016 0.391 0.5416   -0.129323
 C 0.9761 0.2294 0.3932   0.694693
 C 0.0708 0.2644 0.4773   -0.166694
 C 0.2146 0.2008 0.5675   -0.195015
 C 0.1839 0.4176 0.6193   0.159272
 C 0.3026 0.501 0.7502   0.364158
 C 0.2418 0.326 0.6319   0.174905
 C 0.128 0.1722 0.4903   -0.037438
 C 0.3805 0.5978 0.8391   0.152899
 C 0.5463 0.7354 0.8388   -0.350861
 C 0.7106 0.609 0.9584   -0.129722
 C 0.7467 0.7706 0.1068   0.69653
 C 0.8064 0.7356 0.0227   -0.166342
 C 0.0138 0.7992 0.9325   -0.195386
 C 0.7663 0.5824 0.8807   0.159058
 C 0.8016 0.499 0.7498   0.363863
 C 0.9158 0.674 0.8681   0.174683
 C 0.9558 0.8278 0.0097   -0.038249
 C 0.7827 0.4022 0.6609   0.154136
 C 0.8109 0.2646 0.6612   -0.350721
 N 0.7763 0.4698 0.3039   -0.500415
 N 0.6794 0.618 0.2835   -0.528728
 N 0.3065 0.5302 0.1961   -0.500715
 N 0.0614 0.382 0.2165   -0.528454
 N 0.2237 0.5302 0.6961   -0.500415
 N 0.3206 0.382 0.7165   -0.528728
 N 0.6935 0.4698 0.8039   -0.500715
 N 0.9386 0.618 0.7835   -0.528454
 O 0.0558 0.8894 0.662   -0.631108
 O 0.3007 0.8706 0.7808   -0.986924
 O 0.0701 0.6852 0.6188   -0.595206
 O 0.7117 0.3262 0.1288   -0.558959
 O 0.1664 0.1106 0.838   -0.63231
 O 0.4301 0.1294 0.7192   -0.985224
 O 0.3849 0.3148 0.8812   -0.595902
 O 0.3855 0.6738 0.3712   -0.560179
 O 0.9442 0.1106 0.338   -0.631108
 O 0.6993 0.1294 0.2192   -0.986923
 O 0.9299 0.3148 0.3812   -0.595206
 O 0.2883 0.6738 0.8712   -0.558959
 O 0.8336 0.8894 0.162   -0.63231
 O 0.5699 0.8706 0.2808   -0.985223
 O 0.6151 0.6852 0.1188   -0.595902
 O 0.6145 0.3262 0.6288   -0.560179
