{'_ref': 'TBD', '_srcid': 'CAKYAQ_clean', 'submitters': [{'name': 'Dalar Nazarian Jeff Camp and David Sholl', 'email': 'dalar@gatech.edu jcamp6@gatech.edu'}], '_method': 'VASP DFT with PBE;DDEC'}
data_ZnH10C9(NO)2
_symmetry_space_group_name_H-M   'P 1'
_cell_length_a   10.14860000
_cell_length_b   17.58059981
_cell_length_c   17.58060000
_cell_angle_alpha   120.00000035
_cell_angle_beta   90.00000000
_cell_angle_gamma   90.00000000
_symmetry_Int_Tables_number   1
_chemical_formula_structural   ZnH10C9(NO)2
_chemical_formula_sum   'Zn6 H60 C54 N12 O12'
_cell_volume   2716.46520571
_cell_formula_units_Z   6
loop_
 _symmetry_equiv_pos_site_id
 _symmetry_equiv_pos_as_xyz
  1  'x, y, z'
loop_
 _atom_site_label
 _atom_site_fract_x
 _atom_site_fract_y
 _atom_site_fract_z
 _atom_site_charge
 Zn 0.96018 0.46685 0.92633   0.875453
 Zn 0.62685 0.45948 0.53315   0.875599
 Zn 0.29351 0.07367 0.54052   0.87618
 Zn 0.46018 0.53315 0.07367   0.875453
 Zn 0.12685 0.54052 0.46685   0.875599
 Zn 0.79351 0.92633 0.45948   0.87618
 H 0.0167 0.8919 0.3265   0.0765
 H 0.673 0.78 0.3045   0.086916
 H 0.0667 0.7966 0.1862   0.127897
 H 0.7228 0.6758 0.1607   0.127749
 H 0.952 0.5374 0.2061   0.101728
 H 0.0606 0.4682 0.1508   0.087864
 H 0.9209 0.4623 0.1102   0.100784
 H 0.8709 0.6555 0.021   0.082572
 H 0.0211 0.6669 0.0463   0.02496
 H 0.0547 0.6197 0.1611   0.056785
 H 0.68337 0.4346 0.1081   0.077361
 H 0.33967 0.5245 0.22   0.08698
 H 0.73337 0.3896 0.2034   0.127991
 H 0.38947 0.4849 0.3242   0.127673
 H 0.61867 0.6687 0.4626   0.102312
 H 0.72727 0.6826 0.5318   0.087838
 H 0.58757 0.6479 0.5377   0.101747
 H 0.53757 0.3655 0.3445   0.082368
 H 0.68777 0.3794 0.3331   0.025153
 H 0.72137 0.5414 0.3803   0.056773
 H 0.35003 0.6735 0.5654   0.077392
 H 0.00633 0.6955 0.4755   0.086836
 H 0.40003 0.8138 0.6104   0.128057
 H 0.05613 0.8393 0.5151   0.126821
 H 0.28533 0.7939 0.3313   0.10271
 H 0.39393 0.8492 0.3174   0.088248
 H 0.25423 0.8898 0.3521   0.101402
 H 0.20423 0.979 0.6345   0.08238
 H 0.35443 0.9537 0.6206   0.024838
 H 0.38803 0.8389 0.4586   0.056697
 H 0.5167 0.1081 0.6735   0.0765
 H 0.173 0.22 0.6955   0.086916
 H 0.5667 0.2034 0.8138   0.127897
 H 0.2228 0.3242 0.8393   0.127749
 H 0.452 0.4626 0.7939   0.101728
 H 0.5606 0.5318 0.8492   0.087863
 H 0.4209 0.5377 0.8898   0.100784
 H 0.3709 0.3445 0.979   0.082571
 H 0.5211 0.3331 0.9537   0.024959
 H 0.5547 0.3803 0.8389   0.056785
 H 0.18337 0.5654 0.8919   0.077361
 H 0.83967 0.4755 0.78   0.08698
 H 0.23337 0.6104 0.7966   0.127991
 H 0.88947 0.5151 0.6758   0.127673
 H 0.11867 0.3313 0.5374   0.102312
 H 0.22727 0.3174 0.4682   0.087837
 H 0.08757 0.3521 0.4623   0.101747
 H 0.03757 0.6345 0.6555   0.082368
 H 0.18777 0.6206 0.6669   0.025152
 H 0.22137 0.4586 0.6197   0.056773
 H 0.85003 0.3265 0.4346   0.077392
 H 0.50633 0.3045 0.5245   0.086836
 H 0.90003 0.1862 0.3896   0.128057
 H 0.55613 0.1607 0.4849   0.126821
 H 0.78533 0.2061 0.6687   0.10271
 H 0.89393 0.1508 0.6826   0.088247
 H 0.75423 0.1102 0.6479   0.101402
 H 0.70423 0.021 0.3655   0.082379
 H 0.85443 0.0463 0.3794   0.024837
 H 0.88803 0.1611 0.5414   0.056697
 C 0.9563 0.8481 0.2928   0.174157
 C 0.754 0.7825 0.2812   0.153177
 C 0.9865 0.7913 0.2087   -0.244978
 C 0.9003 0.7249 0.1548   0.151299
 C 0.7828 0.7204 0.1934   -0.204931
 C 0.9877 0.5016 0.1482   -0.313927
 C 0.1598 0.5209 0.0586   0.65197
 C 0.9349 0.655 0.0618   0.042512
 C 0.0353 0.5609 0.1122   0.066401
 C 0.62297 0.4447 0.1519   0.172962
 C 0.42067 0.4987 0.2175   0.153028
 C 0.65317 0.4174 0.2087   -0.245065
 C 0.56697 0.4299 0.2751   0.152336
 C 0.44947 0.473 0.2796   -0.20594
 C 0.65437 0.6466 0.4984   -0.316145
 C 0.82647 0.5377 0.4791   0.653834
 C 0.60157 0.4068 0.345   0.042115
 C 0.70197 0.5513 0.4391   0.067127
 C 0.28963 0.7072 0.5553   0.171905
 C 0.08733 0.7188 0.5013   0.152317
 C 0.31983 0.7913 0.5826   -0.244413
 C 0.23363 0.8452 0.5701   0.150806
 C 0.11613 0.8066 0.527   -0.203028
 C 0.32103 0.8518 0.3534   -0.316534
 C 0.49313 0.9414 0.4623   0.650898
 C 0.26823 0.9382 0.5932   0.043073
 C 0.36863 0.8878 0.4487   0.067099
 C 0.4563 0.1519 0.7072   0.174158
 C 0.254 0.2175 0.7188   0.153177
 C 0.4865 0.2087 0.7913   -0.244978
 C 0.4003 0.2751 0.8452   0.151299
 C 0.2828 0.2796 0.8066   -0.204931
 C 0.4877 0.4984 0.8518   -0.313927
 C 0.6598 0.4791 0.9414   0.65197
 C 0.4349 0.345 0.9382   0.042512
 C 0.5353 0.4391 0.8878   0.066401
 C 0.12297 0.5553 0.8481   0.172962
 C 0.92067 0.5013 0.7825   0.153028
 C 0.15317 0.5826 0.7913   -0.245065
 C 0.06697 0.5701 0.7249   0.152336
 C 0.94947 0.527 0.7204   -0.20594
 C 0.15437 0.3534 0.5016   -0.316145
 C 0.32647 0.4623 0.5209   0.653834
 C 0.10157 0.5932 0.655   0.042116
 C 0.20197 0.4487 0.5609   0.067127
 C 0.78963 0.2928 0.4447   0.171905
 C 0.58733 0.2812 0.4987   0.152317
 C 0.81983 0.2087 0.4174   -0.244413
 C 0.73363 0.1548 0.4299   0.150806
 C 0.61613 0.1934 0.473   -0.203028
 C 0.82103 0.1482 0.6466   -0.316534
 C 0.99313 0.0586 0.5377   0.650898
 C 0.76823 0.0618 0.4068   0.043074
 C 0.86863 0.1122 0.5513   0.067099
 N 0.935 0.5668 0.0558   -0.672779
 N 0.84 0.8448 0.3319   -0.364012
 N 0.60167 0.489 0.4332   -0.672847
 N 0.50667 0.4871 0.1552   -0.362869
 N 0.26833 0.9442 0.511   -0.673255
 N 0.17333 0.6681 0.5129   -0.362651
 N 0.435 0.4332 0.9442   -0.672779
 N 0.34 0.1552 0.6681   -0.364012
 N 0.10167 0.511 0.5668   -0.672847
 N 0.00667 0.5129 0.8448   -0.362869
 N 0.76833 0.0558 0.489   -0.673255
 N 0.67333 0.3319 0.4871   -0.362651
 O 0.1546 0.4799 0.9767   -0.554112
 O 0.2636 0.5318 0.1043   -0.634308
 O 0.82127 0.4968 0.5201   -0.554966
 O 0.93027 0.5725 0.4682   -0.635289
 O 0.48793 0.0233 0.5032   -0.553405
 O 0.59693 0.8957 0.4275   -0.634124
 O 0.6546 0.5201 0.0233   -0.554112
 O 0.7636 0.4682 0.8957   -0.634308
 O 0.32127 0.5032 0.4799   -0.554966
 O 0.43027 0.4275 0.5318   -0.635289
 O 0.98793 0.9767 0.4968   -0.553405
 O 0.09693 0.1043 0.5725   -0.634124
