{'_ref': 'TBD', '_srcid': 'CAKYAQ_clean', 'submitters': [{'name': 'Dalar Nazarian Jeff Camp and David Sholl', 'email': 'dalar@gatech.edu jcamp6@gatech.edu'}], '_method': 'VASP DFT with PBE;DDEC'}
data_ZnH11C9N2ClO2
_symmetry_space_group_name_H-M   'P 1'
_cell_length_a   10.24480000
_cell_length_b   17.45870025
_cell_length_c   17.45870000
_cell_angle_alpha   119.99999954
_cell_angle_beta   90.00000000
_cell_angle_gamma   90.00000000
_symmetry_Int_Tables_number   1
_chemical_formula_structural   ZnH11C9N2ClO2
_chemical_formula_sum   'Zn6 H66 C54 N12 Cl6 O12'
_cell_volume   2704.31905996
_cell_formula_units_Z   6
loop_
 _symmetry_equiv_pos_site_id
 _symmetry_equiv_pos_as_xyz
  1  'x, y, z'
loop_
 _atom_site_label
 _atom_site_fract_x
 _atom_site_fract_y
 _atom_site_fract_z
 _atom_site_charge
 Zn 0.84569 0.4581 0.53313   0.780314
 Zn 0.51236 0.07503 0.5419   0.779521
 Zn 0.17902 0.46687 0.92497   0.779546
 Zn 0.34569 0.5419 0.46687   0.780314
 Zn 0.01236 0.92497 0.4581   0.779521
 Zn 0.67902 0.53313 0.07503   0.779546
 H 0.9542 0.5355 0.4614   0.268406
 H 0.8797 0.4786 0.3152   0.107032
 H 0.7301 0.4578 0.2988   0.135519
 H 0.8153 0.4113 0.3384   0.112974
 H 0.766 0.5959 0.4293   0.066028
 H 0.7761 0.7957 0.619   0.143692
 H 0.8192 0.8969 0.5753   0.082363
 H 0.068 0.6452 0.4606   0.131644
 H 0.1065 0.7529 0.4249   0.091442
 H 0.9571 0.6376 0.607   0.115671
 H 0.8069 0.652 0.6023   0.089318
 H 0.62087 0.9259 0.4645   0.268189
 H 0.54637 0.8366 0.5214   0.107062
 H 0.39677 0.841 0.5422   0.136118
 H 0.48197 0.9271 0.5887   0.113584
 H 0.43267 0.8334 0.4041   0.066075
 H 0.44277 0.8233 0.2043   0.14334
 H 0.48587 0.6784 0.1031   0.081692
 H 0.73467 0.8154 0.3548   0.132893
 H 0.77317 0.672 0.2471   0.09121
 H 0.62377 0.9694 0.3624   0.115303
 H 0.47357 0.9503 0.348   0.088483
 H 0.28753 0.5386 0.0741   0.267958
 H 0.21303 0.6848 0.1634   0.107637
 H 0.06343 0.7012 0.159   0.135889
 H 0.14863 0.6616 0.0729   0.113447
 H 0.09933 0.5707 0.1666   0.065721
 H 0.10943 0.381 0.1767   0.143978
 H 0.15253 0.4247 0.3216   0.08164
 H 0.40133 0.5394 0.1846   0.132525
 H 0.43983 0.5751 0.328   0.090556
 H 0.29043 0.393 0.0306   0.11511
 H 0.14023 0.3977 0.0497   0.088595
 H 0.4542 0.4645 0.5386   0.268406
 H 0.3797 0.5214 0.6848   0.107032
 H 0.2301 0.5422 0.7012   0.135519
 H 0.3153 0.5887 0.6616   0.112974
 H 0.266 0.4041 0.5707   0.066028
 H 0.2761 0.2043 0.381   0.143692
 H 0.3192 0.1031 0.4247   0.082363
 H 0.568 0.3548 0.5394   0.131644
 H 0.6065 0.2471 0.5751   0.091442
 H 0.4571 0.3624 0.393   0.115671
 H 0.3069 0.348 0.3977   0.089317
 H 0.12087 0.0741 0.5355   0.268189
 H 0.04637 0.1634 0.4786   0.107062
 H 0.89677 0.159 0.4578   0.136118
 H 0.98197 0.0729 0.4113   0.113584
 H 0.93267 0.1666 0.5959   0.066075
 H 0.94277 0.1767 0.7957   0.14334
 H 0.98587 0.3216 0.8969   0.081691
 H 0.23467 0.1846 0.6452   0.132893
 H 0.27317 0.328 0.7529   0.09121
 H 0.12377 0.0306 0.6376   0.115304
 H 0.97357 0.0497 0.652   0.088482
 H 0.78753 0.4614 0.9259   0.267958
 H 0.71303 0.3152 0.8366   0.107637
 H 0.56343 0.2988 0.841   0.135889
 H 0.64863 0.3384 0.9271   0.113447
 H 0.59933 0.4293 0.8334   0.065721
 H 0.60943 0.619 0.8233   0.143978
 H 0.65253 0.5753 0.6784   0.08164
 H 0.90133 0.4606 0.8154   0.132525
 H 0.93983 0.4249 0.672   0.090556
 H 0.79043 0.607 0.9694   0.11511
 H 0.64023 0.6023 0.9503   0.088594
 C 0.8022 0.4651 0.3371   -0.32835
 C 0.773 0.5405 0.4304   0.026277
 C 0.843 0.7853 0.579   -0.22446
 C 0.8702 0.8462 0.5531   0.155574
 C 0.6442 0.523 0.4629   0.628118
 C 0.9163 0.708 0.5448   0.121489
 C 0.0171 0.6961 0.4852   -0.191649
 C 0.0391 0.7609 0.4639   0.179555
 C 0.8878 0.6376 0.5691   -0.028488
 C 0.46887 0.872 0.5349   -0.329268
 C 0.43967 0.8899 0.4595   0.026822
 C 0.50967 0.7937 0.2147   -0.223045
 C 0.53687 0.7069 0.1538   0.15609
 C 0.31087 0.9399 0.477   0.627512
 C 0.58297 0.8368 0.292   0.119021
 C 0.68377 0.7891 0.3039   -0.193242
 C 0.70577 0.703 0.2391   0.179325
 C 0.55447 0.9315 0.3624   -0.025495
 C 0.13553 0.6629 0.128   -0.330166
 C 0.10633 0.5696 0.1101   0.027802
 C 0.17633 0.421 0.2063   -0.223754
 C 0.20353 0.4469 0.2931   0.157983
 C 0.97753 0.5371 0.0601   0.627987
 C 0.24963 0.4552 0.1632   0.119013
 C 0.35043 0.5148 0.2109   -0.191969
 C 0.37243 0.5361 0.297   0.180741
 C 0.22113 0.4309 0.0685   -0.025928
 C 0.3022 0.5349 0.6629   -0.328351
 C 0.273 0.4595 0.5696   0.026277
 C 0.343 0.2147 0.421   -0.224461
 C 0.3702 0.1538 0.4469   0.155575
 C 0.1442 0.477 0.5371   0.628118
 C 0.4163 0.292 0.4552   0.121489
 C 0.5171 0.3039 0.5148   -0.191649
 C 0.5391 0.2391 0.5361   0.179555
 C 0.3878 0.3624 0.4309   -0.028488
 C 0.96887 0.128 0.4651   -0.329268
 C 0.93967 0.1101 0.5405   0.026822
 C 0.00967 0.2063 0.7853   -0.223045
 C 0.03687 0.2931 0.8462   0.15609
 C 0.81087 0.0601 0.523   0.627512
 C 0.08297 0.1632 0.708   0.119021
 C 0.18377 0.2109 0.6961   -0.193242
 C 0.20577 0.297 0.7609   0.179325
 C 0.05447 0.0685 0.6376   -0.025495
 C 0.63553 0.3371 0.872   -0.330166
 C 0.60633 0.4304 0.8899   0.027802
 C 0.67633 0.579 0.7937   -0.223754
 C 0.70353 0.5531 0.7069   0.157983
 C 0.47753 0.4629 0.9399   0.627987
 C 0.74963 0.5448 0.8368   0.119013
 C 0.85043 0.4852 0.7891   -0.191969
 C 0.87243 0.4639 0.703   0.180741
 C 0.72113 0.5691 0.9315   -0.025928
 N 0.8771 0.5488 0.49117   -0.399152
 N 0.9678 0.83531 0.4969   -0.312137
 N 0.54377 0.94237 0.4512   -0.399965
 N 0.63447 0.66159 0.16469   -0.310799
 N 0.21043 0.50883 0.05763   -0.399196
 N 0.30113 0.5031 0.33841   -0.314311
 N 0.3771 0.4512 0.50883   -0.399152
 N 0.4678 0.16469 0.5031   -0.312137
 N 0.04377 0.05763 0.5488   -0.399965
 N 0.13447 0.33841 0.83531   -0.310799
 N 0.71043 0.49117 0.94237   -0.399197
 N 0.80113 0.4969 0.66159   -0.314311
 Cl 0.82973 0.31249 0.43838   -0.583082
 Cl 0.4964 0.12589 0.68751   -0.58287
 Cl 0.16306 0.56162 0.87411   -0.582977
 Cl 0.32973 0.68751 0.56162   -0.583082
 Cl 0.9964 0.87411 0.31249   -0.58287
 Cl 0.66306 0.43838 0.12589   -0.582977
 O 0.6488 0.49114 0.51354   -0.579276
 O 0.542 0.5392 0.43371   -0.588684
 O 0.31547 0.0224 0.50886   -0.578747
 O 0.20867 0.89451 0.4608   -0.588763
 O 0.98213 0.48646 0.9776   -0.580293
 O 0.87533 0.56629 0.10549   -0.587716
 O 0.1488 0.50886 0.48646   -0.579276
 O 0.042 0.4608 0.56629   -0.588684
 O 0.81547 0.9776 0.49114   -0.578747
 O 0.70867 0.10549 0.5392   -0.588763
 O 0.48213 0.51354 0.0224   -0.580293
 O 0.37533 0.43371 0.89451   -0.587716
