{'_ref': 'TBD', '_srcid': 'CAKYAQ_clean', 'submitters': [{'name': 'Dalar Nazarian Jeff Camp and David Sholl', 'email': 'dalar@gatech.edu jcamp6@gatech.edu'}], '_method': 'VASP DFT with PBE;DDEC'}
data_Cu3H21(C5N2)4
_symmetry_space_group_name_H-M   'P 1'
_cell_length_a   11.31199942
_cell_length_b   11.51520028
_cell_length_c   12.69530000
_cell_angle_alpha   88.50300037
_cell_angle_beta   65.82900093
_cell_angle_gamma   68.34699857
_symmetry_Int_Tables_number   1
_chemical_formula_structural   Cu3H21(C5N2)4
_chemical_formula_sum   'Cu6 H42 C40 N16'
_cell_volume   1386.93493894
_cell_formula_units_Z   2
loop_
 _symmetry_equiv_pos_site_id
 _symmetry_equiv_pos_as_xyz
  1  'x, y, z'
loop_
 _atom_site_label
 _atom_site_fract_x
 _atom_site_fract_y
 _atom_site_fract_z
 _atom_site_charge
 Cu 0.1714 0.88051 0.59397   0.290861
 Cu 0.86536 0.05819 0.00869   0.255653
 Cu 0.63976 0.81806 0.28921   0.29389
 Cu 0.8286 0.11949 0.40603   0.290861
 Cu 0.13464 0.94181 0.99131   0.255655
 Cu 0.36024 0.18194 0.71079   0.29389
 H 0.4761 0.3465 0.4311   0.136968
 H 0.4533 0.4897 0.4122   0.139848
 H 0.384 0.4186 0.3637   0.123954
 H 0.6003 0.1965 0.2229   0.289903
 H 0.8672 0.8922 0.7045   0.302462
 H 0.9625 0.2644 0.9464   0.13108
 H 0.884 0.4151 0.9689   0.123878
 H 0.9779 0.3467 0.036   0.132766
 H 0.7018 0.588 0.166   0.116167
 H 0.5864 0.5961 0.2945   0.116708
 H 0.8737 0.3541 0.2899   0.11843
 H 0.0171 0.3708 0.3732   0.072165
 H 0.0198 0.5699 0.4059   0.122311
 H 0.7664 0.8585 0.3901   0.105952
 H 0.9254 0.8154 0.2938   0.13295
 H 0.618 0.9472 0.7046   0.133733
 H 0.6271 0.8691 0.5972   0.148423
 H 0.6692 0.7968 0.6939   0.121682
 H 0.2079 0.7 0.3051   0.128001
 H 0.1466 0.8412 0.2791   0.130523
 H 0.238 0.8086 0.3524   0.128218
 H 0.5239 0.6535 0.5689   0.136968
 H 0.5467 0.5103 0.5878   0.139848
 H 0.616 0.5814 0.6363   0.123952
 H 0.3997 0.8035 0.7771   0.289905
 H 0.1328 0.1078 0.2955   0.302461
 H 0.0375 0.7356 0.0536   0.131081
 H 0.116 0.5849 0.0311   0.123879
 H 0.0221 0.6533 0.964   0.132765
 H 0.2982 0.412 0.834   0.116167
 H 0.4136 0.4039 0.7055   0.116708
 H 0.1263 0.6459 0.7101   0.11843
 H 0.9829 0.6292 0.6268   0.072161
 H 0.9802 0.4301 0.5941   0.122309
 H 0.2336 0.1415 0.6099   0.105952
 H 0.0746 0.1846 0.7062   0.132951
 H 0.382 0.0528 0.2954   0.133733
 H 0.3729 0.1309 0.4028   0.148423
 H 0.3308 0.2032 0.3061   0.121679
 H 0.7921 0.3 0.6949   0.128003
 H 0.8534 0.1588 0.7209   0.130524
 H 0.762 0.1914 0.6476   0.128218
 C 0.4661 0.4084 0.3776   -0.372664
 C 0.5945 0.3637 0.2655   0.168705
 C 0.688 0.41818 0.2022   -0.20271
 C 0.7884 0.3312 0.1016   0.229271
 C 0.9139 0.3401 0.005   -0.370999
 C 0.6832 0.5447 0.2358   -0.192879
 C 0.7852 0.54187 0.2849   0.285603
 C 0.8729 0.4342 0.3073   -0.229911
 C 0.9588 0.4436 0.3546   0.035389
 C 0.9592 0.5615 0.3751   -0.248881
 C 0.8713 0.6653 0.3503   0.291159
 C 0.8642 0.7978 0.3687   -0.19734
 C 0.6706 0.868 0.6501   -0.371127
 C 0.8221 0.85381 0.5797   0.175995
 C 0.9076 0.8215 0.4608   -0.202123
 C 0.0377 0.81908 0.44675   0.23066
 C 0.1688 0.7897 0.3364   -0.374434
 C 0.993 0.98898 0.85376   -0.123868
 C 0.6979 0.91348 0.17254   -0.162279
 C 0.3564 0.85018 0.48843   -0.143347
 C 0.5339 0.5916 0.6224   -0.372664
 C 0.4055 0.6363 0.7345   0.168705
 C 0.312 0.58182 0.7978   -0.20271
 C 0.2116 0.6688 0.8984   0.229272
 C 0.0861 0.6599 0.995   -0.370999
 C 0.3168 0.4553 0.7642   -0.192879
 C 0.2148 0.45813 0.7151   0.285603
 C 0.1271 0.5658 0.6927   -0.229911
 C 0.0412 0.5564 0.6454   0.035389
 C 0.0408 0.4385 0.6249   -0.248881
 C 0.1287 0.3347 0.6497   0.291159
 C 0.1358 0.2022 0.6313   -0.19734
 C 0.3294 0.132 0.3499   -0.371126
 C 0.1779 0.14619 0.4203   0.175994
 C 0.0924 0.1785 0.5392   -0.202123
 C 0.9623 0.18092 0.55325   0.23066
 C 0.8312 0.2103 0.6636   -0.374434
 C 0.007 0.01102 0.14624   -0.123867
 C 0.3021 0.08652 0.82746   -0.162278
 C 0.6436 0.14982 0.51157   -0.143347
 N 0.76022 0.22851 0.10213   -0.221025
 N 0.64167 0.25016 0.20196   -0.138866
 N 0.78469 0.65572 0.307   -0.346906
 N 0.89899 0.87036 0.62906   -0.122849
 N 0.03312 0.84961 0.54947   -0.269539
 N 0.0596 0.94587 0.75692   -0.310399
 N 0.74063 0.97398 0.10563   -0.298876
 N 0.4661 0.83611 0.41813   -0.312286
 N 0.23978 0.77149 0.89787   -0.221024
 N 0.35833 0.74984 0.79804   -0.138866
 N 0.21531 0.34428 0.693   -0.346906
 N 0.10101 0.12964 0.37094   -0.122848
 N 0.96688 0.15039 0.45053   -0.269539
 N 0.9404 0.05413 0.24308   -0.310398
 N 0.25937 0.02602 0.89437   -0.298876
 N 0.5339 0.16389 0.58187   -0.312286
