{'_ref': 'TBD', '_srcid': 'CAKYAQ_clean', 'submitters': [{'name': 'Dalar Nazarian Jeff Camp and David Sholl', 'email': 'dalar@gatech.edu jcamp6@gatech.edu'}], '_method': 'VASP DFT with PBE;DDEC'}
data_CuH6C7O4
_symmetry_space_group_name_H-M   'P 1'
_cell_length_a   8.46710000
_cell_length_b   8.46710000
_cell_length_c   14.44370000
_cell_angle_alpha   90.00000000
_cell_angle_beta   90.00000000
_cell_angle_gamma   90.00000000
_symmetry_Int_Tables_number   1
_chemical_formula_structural   CuH6C7O4
_chemical_formula_sum   'Cu4 H24 C28 O16'
_cell_volume   1035.4945976
_cell_formula_units_Z   4
loop_
 _symmetry_equiv_pos_site_id
 _symmetry_equiv_pos_as_xyz
  1  'x, y, z'
loop_
 _atom_site_label
 _atom_site_fract_x
 _atom_site_fract_y
 _atom_site_fract_z
 _atom_site_charge
 Cu 0.5 0.853 0.0   0.900857
 Cu 0.5 0.147 0.0   0.900847
 Cu 0.147 0.5 0.5   0.900857
 Cu 0.853 0.5 0.5   0.900847
 H 0.7559 0.85 0.7105   0.11167
 H 0.2441 0.15 0.7105   0.11167
 H 0.15 0.7559 0.2105   0.11167
 H 0.85 0.2441 0.2105   0.11167
 H 0.2441 0.85 0.2895   0.111669
 H 0.7559 0.15 0.2895   0.111669
 H 0.85 0.7559 0.7895   0.111669
 H 0.15 0.2441 0.7895   0.111669
 H 0.2441 0.15 0.2895   0.111671
 H 0.7559 0.85 0.2895   0.111671
 H 0.85 0.2441 0.7895   0.111671
 H 0.15 0.7559 0.7895   0.111671
 H 0.7559 0.15 0.7105   0.11167
 H 0.2441 0.85 0.7105   0.11167
 H 0.15 0.2441 0.2105   0.11167
 H 0.85 0.7559 0.2105   0.11167
 H 0.0 0.0947 0.9132   0.10347
 H 0.0 0.9053 0.9132   0.10347
 H 0.9053 0.0 0.4132   0.10347
 H 0.0947 0.0 0.4132   0.10347
 H 0.0 0.0947 0.0868   0.10347
 H 0.0 0.9053 0.0868   0.10347
 H 0.0947 0.0 0.5868   0.10347
 H 0.9053 0.0 0.5868   0.10347
 C 0.7123 0.0 0.8783   0.642363
 C 0.8509 0.0 0.8111   0.031638
 C 0.2877 0.0 0.8783   0.642363
 C 0.1491 0.0 0.8111   0.031638
 C 0.0 0.7123 0.3783   0.642363
 C 0.0 0.8509 0.3111   0.031638
 C 0.0 0.2877 0.3783   0.642363
 C 0.0 0.1491 0.3111   0.031638
 C 0.2877 0.0 0.1217   0.642363
 C 0.1491 0.0 0.1889   0.031638
 C 0.7123 0.0 0.1217   0.642363
 C 0.8509 0.0 0.1889   0.031638
 C 0.0 0.7123 0.6217   0.642363
 C 0.0 0.8509 0.6889   0.031638
 C 0.0 0.2877 0.6217   0.642363
 C 0.0 0.1491 0.6889   0.031638
 C 0.8514 0.8514 0.75   -0.220761
 C 0.1486 0.1486 0.75   -0.220761
 C 0.1486 0.8514 0.25   -0.220761
 C 0.8514 0.1486 0.25   -0.220761
 C 0.1486 0.1486 0.25   -0.220762
 C 0.8514 0.8514 0.25   -0.220762
 C 0.8514 0.1486 0.75   -0.220762
 C 0.1486 0.8514 0.75   -0.220762
 C 0.0 0.0 0.873   -0.217735
 C 0.0 0.0 0.373   -0.217735
 C 0.0 0.0 0.127   -0.217735
 C 0.0 0.0 0.627   -0.217735
 O 0.6618 0.8683 0.9058   -0.560805
 O 0.3382 0.1317 0.9058   -0.560804
 O 0.1317 0.6618 0.4058   -0.560805
 O 0.8683 0.3382 0.4058   -0.560804
 O 0.3382 0.8683 0.0942   -0.560805
 O 0.6618 0.1317 0.0942   -0.560804
 O 0.8683 0.6618 0.5942   -0.560804
 O 0.1317 0.3382 0.5942   -0.560805
 O 0.3382 0.1317 0.0942   -0.560804
 O 0.6618 0.8683 0.0942   -0.560805
 O 0.8683 0.3382 0.5942   -0.560804
 O 0.1317 0.6618 0.5942   -0.560805
 O 0.6618 0.1317 0.9058   -0.560804
 O 0.3382 0.8683 0.9058   -0.560805
 O 0.1317 0.3382 0.4058   -0.560805
 O 0.8683 0.6618 0.4058   -0.560804
