{'_ref': 'TBD', '_srcid': 'CAKYAQ_clean', 'submitters': [{'name': 'Dalar Nazarian Jeff Camp and David Sholl', 'email': 'dalar@gatech.edu jcamp6@gatech.edu'}], '_method': 'VASP DFT with PBE;DDEC'}
data_InH4C4NO8
_symmetry_space_group_name_H-M   'P 1'
_cell_length_a   9.02500000
_cell_length_b   9.02499977
_cell_length_c   11.34300000
_cell_angle_alpha   90.00000000
_cell_angle_beta   90.00000000
_cell_angle_gamma   120.00000085
_symmetry_Int_Tables_number   1
_chemical_formula_structural   InH4C4NO8
_chemical_formula_sum   'In3 H12 C12 N3 O24'
_cell_volume   800.11602736
_cell_formula_units_Z   3
loop_
 _symmetry_equiv_pos_site_id
 _symmetry_equiv_pos_as_xyz
  1  'x, y, z'
loop_
 _atom_site_label
 _atom_site_fract_x
 _atom_site_fract_y
 _atom_site_fract_z
 _atom_site_charge
 In 0.5 0.0 0.66667   1.607258
 In 0.5 0.5 0.0   1.607368
 In 0.0 0.5 0.33333   1.607258
 H 0.8958 0.9721 0.0526   0.40905
 H 0.1042 0.0279 0.0526   0.40905
 H 0.9721 0.8958 0.9474   0.409049
 H 0.0279 0.1042 0.9474   0.409049
 H 0.0763 0.1042 0.38593   0.409081
 H 0.9237 0.8958 0.38593   0.409081
 H 0.9237 0.0279 0.28073   0.409018
 H 0.0763 0.9721 0.28073   0.409018
 H 0.0279 0.9237 0.71927   0.409019
 H 0.9721 0.0763 0.71927   0.409019
 H 0.1042 0.0763 0.61407   0.409081
 H 0.8958 0.9237 0.61407   0.409081
 C 0.78905 0.21095 0.5   0.548092
 C 0.69025 0.30975 0.5   0.546113
 C 0.4219 0.21095 0.83333   0.548075
 C 0.6195 0.30975 0.83333   0.546162
 C 0.78905 0.5781 0.16667   0.548076
 C 0.69025 0.3805 0.16667   0.54616
 C 0.21095 0.78905 0.5   0.548092
 C 0.30975 0.69025 0.5   0.546113
 C 0.5781 0.78905 0.83333   0.548075
 C 0.3805 0.69025 0.83333   0.546162
 C 0.21095 0.4219 0.16667   0.548076
 C 0.30975 0.6195 0.16667   0.54616
 N 0.0 0.0 0.0   -0.758848
 N 0.0 0.0 0.33333   -0.758857
 N 0.0 0.0 0.66667   -0.758857
 O 0.7319 0.0787 0.5614   -0.591544
 O 0.5531 0.2414 0.5554   -0.576691
 O 0.3468 0.2681 0.89473   -0.591538
 O 0.6883 0.4469 0.88873   -0.576747
 O 0.9213 0.6532 0.22807   -0.591595
 O 0.7586 0.3117 0.22207   -0.57671
 O 0.2681 0.9213 0.5614   -0.591542
 O 0.4469 0.7586 0.5554   -0.57669
 O 0.6532 0.7319 0.89473   -0.591536
 O 0.3117 0.5531 0.88873   -0.576746
 O 0.0787 0.3468 0.22807   -0.591593
 O 0.2414 0.6883 0.22207   -0.576708
 O 0.6532 0.9213 0.77193   -0.591594
 O 0.3117 0.7586 0.77793   -0.57671
 O 0.0787 0.7319 0.4386   -0.591543
 O 0.2414 0.5531 0.4446   -0.576691
 O 0.2681 0.3468 0.10527   -0.591537
 O 0.4469 0.6883 0.11127   -0.576747
 O 0.3468 0.0787 0.77193   -0.591592
 O 0.6883 0.2414 0.77793   -0.576709
 O 0.9213 0.2681 0.4386   -0.591542
 O 0.7586 0.4469 0.4446   -0.57669
 O 0.7319 0.6532 0.10527   -0.591535
 O 0.5531 0.3117 0.11127   -0.576746
