{'_ref': 'TBD', '_srcid': 'CAKYAQ_clean', 'submitters': [{'name': 'Dalar Nazarian Jeff Camp and David Sholl', 'email': 'dalar@gatech.edu jcamp6@gatech.edu'}], '_method': 'VASP DFT with PBE;DDEC'}
data_CdH17C20N3O4
_symmetry_space_group_name_H-M   'P 1'
_cell_length_a   10.42969987
_cell_length_b   11.21899984
_cell_length_c   11.21900000
_cell_angle_alpha   98.50859898
_cell_angle_beta   109.59199838
_cell_angle_gamma   109.59200207
_symmetry_Int_Tables_number   1
_chemical_formula_structural   CdH17C20N3O4
_chemical_formula_sum   'Cd2 H34 C40 N6 O8'
_cell_volume   1113.86696054
_cell_formula_units_Z   2
loop_
 _symmetry_equiv_pos_site_id
 _symmetry_equiv_pos_as_xyz
  1  'x, y, z'
loop_
 _atom_site_label
 _atom_site_fract_x
 _atom_site_fract_y
 _atom_site_fract_z
 _atom_site_charge
 Cd 0.25094 0.97483 0.06675   0.906289
 Cd 0.75094 0.06675 0.97483   0.906289
 H 0.1293 0.2097 0.0401   0.066863
 H 0.178 0.4061 0.9843   0.127048
 H 0.3598 0.4744 0.9008   0.091757
 H 0.4189 0.7835 0.0325   0.07965
 H 0.503 0.6379 0.1265   0.145785
 H 0.2992 0.6688 0.3706   0.131431
 H 0.2345 0.8229 0.2805   0.092652
 H 0.3883 0.488 0.352   0.096486
 H 0.4804 0.4847 0.2631   0.101195
 H 0.6818 0.6856 0.4214   0.069846
 H 0.5908 0.6795 0.5117   0.06395
 H 0.7096 0.4912 0.4576   0.102265
 H 0.6116 0.4784 0.5426   0.111293
 H 0.9492 0.7247 0.5501   0.142482
 H 0.148 0.8741 0.7409   0.081
 H 0.9564 0.7166 0.9616   0.093459
 H 0.7479 0.5676 0.7768   0.141015
 H 0.6293 0.0401 0.2097   0.066863
 H 0.678 0.9843 0.4061   0.127047
 H 0.8598 0.9008 0.4744   0.091755
 H 0.9189 0.0325 0.7835   0.079649
 H 0.003 0.1265 0.6379   0.145784
 H 0.7992 0.3706 0.6688   0.131433
 H 0.7345 0.2805 0.8229   0.092652
 H 0.8883 0.352 0.488   0.096489
 H 0.9804 0.2631 0.4847   0.101195
 H 0.1818 0.4214 0.6856   0.069845
 H 0.0908 0.5117 0.6795   0.063947
 H 0.2096 0.4576 0.4912   0.102268
 H 0.1116 0.5426 0.4784   0.111295
 H 0.4492 0.5501 0.7247   0.142481
 H 0.648 0.7409 0.8741   0.080998
 H 0.4564 0.9616 0.7166   0.093458
 H 0.2479 0.7768 0.5676   0.141014
 C 0.205 0.23885 0.00865   0.132414
 C 0.2321 0.35484 0.97456   -0.166456
 C 0.34 0.39499 0.92573   -0.015231
 C 0.4199 0.31942 0.91286   -0.071347
 C 0.5342 0.36813 0.85507   0.633142
 C 0.3891 0.20577 0.95439   0.093333
 C 0.4798 0.12346 0.9614   0.599846
 C 0.3972 0.76201 0.10439   0.166673
 C 0.4456 0.67294 0.15846   -0.246516
 C 0.4091 0.63539 0.26029   0.16383
 C 0.328 0.69239 0.30261   -0.223741
 C 0.2881 0.7834 0.2474   0.197818
 C 0.4641 0.54373 0.32587   -0.195337
 C 0.6103 0.62475 0.44805   -0.073221
 C 0.6831 0.54204 0.51816   -0.20059
 C 0.8217 0.63084 0.64076   0.158642
 C 0.9465 0.72312 0.63368   -0.237509
 C 0.0653 0.81145 0.74815   0.171841
 C 0.953 0.72026 0.87654   0.181648
 C 0.8285 0.63001 0.76659   -0.228039
 C 0.705 0.00865 0.23885   0.132414
 C 0.7321 0.97456 0.35484   -0.166456
 C 0.84 0.92573 0.39499   -0.01523
 C 0.9199 0.91286 0.31942   -0.071347
 C 0.0342 0.85507 0.36813   0.633141
 C 0.8891 0.95439 0.20577   0.093333
 C 0.9798 0.9614 0.12346   0.599846
 C 0.8972 0.10439 0.76201   0.166672
 C 0.9456 0.15846 0.67294   -0.246516
 C 0.9091 0.26029 0.63539   0.163831
 C 0.828 0.30261 0.69239   -0.223743
 C 0.7881 0.2474 0.7834   0.197818
 C 0.9641 0.32587 0.54373   -0.195338
 C 0.1103 0.44805 0.62475   -0.073219
 C 0.1831 0.51816 0.54204   -0.200592
 C 0.3217 0.64076 0.63084   0.158643
 C 0.4465 0.63368 0.72312   -0.237508
 C 0.5653 0.74815 0.81145   0.17184
 C 0.453 0.87654 0.72026   0.181647
 C 0.3285 0.76659 0.63001   -0.22804
 N 0.2812 0.16534 0.99922   -0.351729
 N 0.3219 0.81866 0.1487   -0.368836
 N 0.0696 0.81307 0.86933   -0.387344
 N 0.7812 0.99922 0.16534   -0.351729
 N 0.8219 0.1487 0.81866   -0.368836
 N 0.5696 0.86933 0.81307   -0.387344
 O 0.43883 0.0182 0.99068   -0.592589
 O 0.59487 0.1707 0.9399   -0.53092
 O 0.65521 0.46324 0.93152   -0.625635
 O 0.4939 0.31668 0.73484   -0.628614
 O 0.93883 0.99068 0.0182   -0.592589
 O 0.09487 0.9399 0.1707   -0.53092
 O 0.15521 0.93152 0.46324   -0.625631
 O 0.9939 0.73484 0.31668   -0.62861
