{'_ref': 'TBD', '_srcid': 'CAKYAQ_clean', 'submitters': [{'name': 'Dalar Nazarian Jeff Camp and David Sholl', 'email': 'dalar@gatech.edu jcamp6@gatech.edu'}], '_method': 'VASP DFT with PBE;DDEC'}
data_ZnH12(C9N5)2
_symmetry_space_group_name_H-M   'P 1'
_cell_length_a   6.71859952
_cell_length_b   17.08200000
_cell_length_c   17.35200000
_cell_angle_alpha   90.00000000
_cell_angle_beta   98.77000012
_cell_angle_gamma   90.00000000
_symmetry_Int_Tables_number   1
_chemical_formula_structural   ZnH12(C9N5)2
_chemical_formula_sum   'Zn4 H48 C72 N40'
_cell_volume   1968.15580449
_cell_formula_units_Z   4
loop_
 _symmetry_equiv_pos_site_id
 _symmetry_equiv_pos_as_xyz
  1  'x, y, z'
loop_
 _atom_site_label
 _atom_site_fract_x
 _atom_site_fract_y
 _atom_site_fract_z
 _atom_site_charge
 Zn 0.27804 0.51831 0.29612   0.63997
 Zn 0.72196 0.01831 0.20388   0.63997
 Zn 0.72196 0.48169 0.70388   0.63997
 Zn 0.27804 0.98169 0.79612   0.63997
 H 0.6407 0.5504 0.2188   0.070567
 H 0.7348 0.5458 0.097   0.129199
 H 0.1838 0.4611 0.0126   0.128179
 H 0.1003 0.4699 0.136   0.087836
 H 0.5006 0.4018 0.4077   0.057164
 H 0.8072 0.3904 0.4878   0.13125
 H 0.9094 0.6195 0.4494   0.14115
 H 0.602 0.6244 0.3691   0.068219
 H 0.5977 0.3643 0.166   0.091554
 H 0.6669 0.2478 0.3719   0.114143
 H 0.35 0.1906 0.3371   0.099365
 H 0.2844 0.3054 0.1303   0.101628
 H 0.3593 0.0504 0.2812   0.070567
 H 0.2652 0.0458 0.403   0.129199
 H 0.8162 0.9611 0.4874   0.128179
 H 0.8997 0.9699 0.364   0.087836
 H 0.4994 0.9018 0.0923   0.057164
 H 0.1928 0.8904 0.0122   0.13125
 H 0.0906 0.1195 0.0506   0.141151
 H 0.398 0.1244 0.1309   0.06822
 H 0.4023 0.8643 0.334   0.091554
 H 0.3331 0.7478 0.1281   0.114143
 H 0.65 0.6906 0.1629   0.099364
 H 0.7156 0.8054 0.3697   0.101629
 H 0.3593 0.4496 0.7812   0.070567
 H 0.2652 0.4542 0.903   0.129196
 H 0.8162 0.5389 0.9874   0.128174
 H 0.8997 0.5301 0.864   0.087836
 H 0.4994 0.5982 0.5923   0.057164
 H 0.1928 0.6096 0.5122   0.131252
 H 0.0906 0.3805 0.5506   0.141152
 H 0.398 0.3756 0.6309   0.068219
 H 0.4023 0.6357 0.834   0.091554
 H 0.3331 0.7522 0.6281   0.114142
 H 0.65 0.8094 0.6629   0.099364
 H 0.7156 0.6946 0.8697   0.101627
 H 0.6407 0.9496 0.7188   0.070567
 H 0.7348 0.9542 0.597   0.129196
 H 0.1838 0.0389 0.5126   0.128174
 H 0.1003 0.0301 0.636   0.087836
 H 0.5006 0.0982 0.9077   0.057164
 H 0.8072 0.1096 0.9878   0.131252
 H 0.9094 0.8805 0.9494   0.141152
 H 0.602 0.8756 0.8691   0.068219
 H 0.5977 0.1357 0.666   0.091554
 H 0.6669 0.2522 0.8719   0.114142
 H 0.35 0.3094 0.8371   0.099363
 H 0.2844 0.1946 0.6303   0.101628
 C 0.5458 0.53264 0.17615   0.181825
 C 0.6033 0.52945 0.10358   -0.164533
 C 0.4712 0.50252 0.03962   0.098111
 C 0.2803 0.4801 0.05408   -0.177682
 C 0.2313 0.48541 0.12784   0.157548
 C 0.5866 0.44615 0.41528   0.166919
 C 0.7695 0.43908 0.46336   -0.15439
 C 0.8988 0.50311 0.47605   0.088494
 C 0.8298 0.57347 0.44067   -0.16544
 C 0.6457 0.5761 0.39294   0.157951
 C 0.8587 0.35007 0.29717   0.333665
 C 0.6631 0.31187 0.27274   -0.025234
 C 0.5479 0.32879 0.20065   -0.082966
 C 0.5887 0.25989 0.32301   -0.088643
 C 0.0915 0.20307 0.20639   0.340831
 C 0.2865 0.24244 0.22985   -0.017908
 C 0.4008 0.22555 0.30219   -0.097106
 C 0.3615 0.29395 0.17959   -0.10408
 C 0.4542 0.03264 0.32385   0.181824
 C 0.3967 0.02945 0.39642   -0.164533
 C 0.5288 0.00252 0.46038   0.098111
 C 0.7197 0.9801 0.44592   -0.177682
 C 0.7687 0.98541 0.37216   0.157548
 C 0.4134 0.94615 0.08472   0.166919
 C 0.2305 0.93908 0.03664   -0.15439
 C 0.1012 0.00311 0.02395   0.088494
 C 0.1702 0.07347 0.05933   -0.16544
 C 0.3543 0.0761 0.10706   0.157951
 C 0.1413 0.85007 0.20283   0.333665
 C 0.3369 0.81187 0.22726   -0.025234
 C 0.4521 0.82879 0.29935   -0.082966
 C 0.4113 0.75989 0.17699   -0.088643
 C 0.9085 0.70307 0.29361   0.340831
 C 0.7135 0.74244 0.27015   -0.017908
 C 0.5992 0.72555 0.19781   -0.097107
 C 0.6385 0.79395 0.32041   -0.10408
 C 0.4542 0.46736 0.82385   0.181824
 C 0.3967 0.47055 0.89642   -0.164532
 C 0.5288 0.49748 0.96038   0.098101
 C 0.7197 0.5199 0.94592   -0.17768
 C 0.7687 0.51459 0.87216   0.157548
 C 0.4134 0.55385 0.58472   0.166921
 C 0.2305 0.56092 0.53664   -0.154391
 C 0.1012 0.49689 0.52395   0.0885
 C 0.1702 0.42653 0.55933   -0.165441
 C 0.3543 0.4239 0.60706   0.157952
 C 0.1413 0.64993 0.70283   0.333665
 C 0.3369 0.68813 0.72726   -0.025234
 C 0.4521 0.67121 0.79935   -0.082966
 C 0.4113 0.74011 0.67699   -0.088643
 C 0.9085 0.79693 0.79361   0.340831
 C 0.7135 0.75756 0.77015   -0.017908
 C 0.5992 0.77445 0.69781   -0.097106
 C 0.6385 0.70605 0.82041   -0.104079
 C 0.5458 0.96736 0.67615   0.181824
 C 0.6033 0.97055 0.60358   -0.164531
 C 0.4712 0.99748 0.53962   0.098101
 C 0.2803 0.0199 0.55408   -0.17768
 C 0.2313 0.01459 0.62784   0.157548
 C 0.5866 0.05385 0.91528   0.166921
 C 0.7695 0.06092 0.96336   -0.154391
 C 0.8988 0.99689 0.97605   0.0885
 C 0.8298 0.92653 0.94067   -0.165441
 C 0.6457 0.9239 0.89294   0.157952
 C 0.8587 0.14993 0.79717   0.333665
 C 0.6631 0.18813 0.77274   -0.025234
 C 0.5479 0.17121 0.70065   -0.082966
 C 0.5887 0.24011 0.82301   -0.088643
 C 0.0915 0.29693 0.70639   0.340831
 C 0.2865 0.25756 0.72985   -0.017908
 C 0.4008 0.27445 0.80219   -0.097106
 C 0.3615 0.20605 0.67959   -0.10408
 N 0.362 0.51188 0.18944   -0.295535
 N 0.5255 0.5132 0.37879   -0.302677
 N 0.0995 0.42917 0.30878   -0.018319
 N 0.1445 0.37608 0.36381   -0.103156
 N 0.994 0.32474 0.35766   -0.346844
 N 0.9205 0.41476 0.2652   -0.372575
 N 0.8585 0.12003 0.19413   -0.015227
 N 0.8037 0.17532 0.14189   -0.130657
 N 0.9499 0.22891 0.14851   -0.341621
 N 0.0392 0.13557 0.23589   -0.380972
 N 0.638 0.01188 0.31056   -0.295535
 N 0.4745 0.0132 0.12121   -0.302677
 N 0.9005 0.92917 0.19122   -0.018319
 N 0.8555 0.87608 0.13619   -0.103156
 N 0.006 0.82474 0.14234   -0.346844
 N 0.0795 0.91476 0.2348   -0.372575
 N 0.1415 0.62003 0.30587   -0.015227
 N 0.1963 0.67532 0.35811   -0.130657
 N 0.0501 0.72891 0.35149   -0.341621
 N 0.9608 0.63557 0.26411   -0.380972
 N 0.638 0.48812 0.81056   -0.295535
 N 0.4745 0.4868 0.62121   -0.302677
 N 0.9005 0.57083 0.69122   -0.018319
 N 0.8555 0.62392 0.63619   -0.103156
 N 0.006 0.67526 0.64234   -0.346844
 N 0.0795 0.58524 0.7348   -0.372575
 N 0.1415 0.87997 0.80587   -0.015227
 N 0.1963 0.82468 0.85811   -0.130657
 N 0.0501 0.77109 0.85149   -0.341621
 N 0.9608 0.86443 0.76411   -0.380972
 N 0.362 0.98812 0.68944   -0.295535
 N 0.5255 0.9868 0.87879   -0.302677
 N 0.0995 0.07083 0.80878   -0.018319
 N 0.1445 0.12392 0.86381   -0.103156
 N 0.994 0.17526 0.85766   -0.346844
 N 0.9205 0.08524 0.7652   -0.372575
 N 0.8585 0.37997 0.69413   -0.015227
 N 0.8037 0.32468 0.64189   -0.130657
 N 0.9499 0.27109 0.64851   -0.341621
 N 0.0392 0.36443 0.73589   -0.380972
