{'_ref': 'TBD', '_srcid': 'CAKYAQ_clean', 'submitters': [{'name': 'Dalar Nazarian Jeff Camp and David Sholl', 'email': 'dalar@gatech.edu jcamp6@gatech.edu'}], '_method': 'VASP DFT with PBE;DDEC'}
data_DyPH11C7NO5
_symmetry_space_group_name_H-M   'P 1'
_cell_length_a   5.52859990
_cell_length_b   13.31400000
_cell_length_c   20.59900000
_cell_angle_alpha   90.00000000
_cell_angle_beta   95.24399675
_cell_angle_gamma   90.00000000
_symmetry_Int_Tables_number   1
_chemical_formula_structural   DyPH11C7NO5
_chemical_formula_sum   'Dy4 P4 H44 C28 N4 O20'
_cell_volume   1509.90040577
_cell_formula_units_Z   4
loop_
 _symmetry_equiv_pos_site_id
 _symmetry_equiv_pos_as_xyz
  1  'x, y, z'
loop_
 _atom_site_label
 _atom_site_fract_x
 _atom_site_fract_y
 _atom_site_fract_z
 _atom_site_charge
 Dy 0.87235 0.63267 0.52782   2.318166
 Dy 0.12765 0.13267 0.97218   2.318166
 Dy 0.12765 0.36733 0.47218   2.318166
 Dy 0.87235 0.86733 0.02782   2.318166
 P 0.5899 0.5209 0.41395   1.632092
 P 0.4101 0.0209 0.08605   1.632092
 P 0.4101 0.4791 0.58605   1.632092
 P 0.5899 0.9791 0.91395   1.632092
 H 0.8349 0.5804 0.3366   0.125527
 H 0.7408 0.4727 0.3171   0.16613
 H 0.6225 0.7287 0.2983   0.038553
 H 0.4144 0.6989 0.3418   0.085484
 H 0.1249 0.7011 0.2488   0.072145
 H 0.2533 0.8063 0.2549   0.078952
 H 0.5153 0.7587 0.1753   0.110036
 H 0.4517 0.5997 0.1219   0.080547
 H 0.2482 0.5734 0.1677   0.080361
 H 0.6255 0.4975 0.2098   0.067585
 H 0.7484 0.6041 0.215   0.040595
 H 0.1651 0.0804 0.1634   0.125527
 H 0.2592 0.9727 0.1829   0.166131
 H 0.3775 0.2287 0.2017   0.038553
 H 0.5856 0.1989 0.1582   0.085484
 H 0.8751 0.2011 0.2512   0.072145
 H 0.7467 0.3063 0.2451   0.078953
 H 0.4847 0.2587 0.3247   0.110036
 H 0.5483 0.0997 0.3781   0.080547
 H 0.7518 0.0734 0.3323   0.080362
 H 0.3745 0.9975 0.2902   0.067586
 H 0.2516 0.1041 0.285   0.040595
 H 0.1651 0.4196 0.6634   0.125527
 H 0.2592 0.5273 0.6829   0.16613
 H 0.3775 0.2713 0.7017   0.038553
 H 0.5856 0.3011 0.6582   0.085484
 H 0.8751 0.2989 0.7512   0.072145
 H 0.7467 0.1937 0.7451   0.078952
 H 0.4847 0.2413 0.8247   0.110036
 H 0.5483 0.4003 0.8781   0.080547
 H 0.7518 0.4266 0.8323   0.080361
 H 0.3745 0.5025 0.7902   0.067585
 H 0.2516 0.3959 0.785   0.040595
 H 0.8349 0.9196 0.8366   0.125527
 H 0.7408 0.0273 0.8171   0.166131
 H 0.6225 0.7713 0.7983   0.038553
 H 0.4144 0.8011 0.8418   0.085484
 H 0.1249 0.7989 0.7488   0.072145
 H 0.2533 0.6937 0.7549   0.078953
 H 0.5153 0.7413 0.6753   0.110036
 H 0.4517 0.9003 0.6219   0.080547
 H 0.2482 0.9266 0.6677   0.080362
 H 0.6255 0.0025 0.7098   0.067586
 H 0.7484 0.8959 0.715   0.040595
 C 0.6922 0.5377 0.3328   -0.416249
 C 0.471 0.6922 0.2988   0.026038
 C 0.278 0.7356 0.2464   -0.151217
 C 0.361 0.723 0.1779   -0.154801
 C 0.4 0.6094 0.1651   -0.157597
 C 0.597 0.5682 0.2175   0.046045
 C 0.1704 0.7642 0.1251   0.713505
 C 0.3078 0.0377 0.1672   -0.416249
 C 0.529 0.1922 0.2012   0.026038
 C 0.722 0.2356 0.2536   -0.151217
 C 0.639 0.223 0.3221   -0.1548
 C 0.6 0.1094 0.3349   -0.157597
 C 0.403 0.0682 0.2825   0.046045
 C 0.8296 0.2642 0.3749   0.713505
 C 0.3078 0.4623 0.6672   -0.416249
 C 0.529 0.3078 0.7012   0.026038
 C 0.722 0.2644 0.7536   -0.151217
 C 0.639 0.277 0.8221   -0.154801
 C 0.6 0.3906 0.8349   -0.157597
 C 0.403 0.4318 0.7825   0.046045
 C 0.8296 0.2358 0.8749   0.713505
 C 0.6922 0.9623 0.8328   -0.416249
 C 0.471 0.8078 0.7988   0.026038
 C 0.278 0.7644 0.7464   -0.151217
 C 0.361 0.777 0.6779   -0.1548
 C 0.4 0.8906 0.6651   -0.157597
 C 0.597 0.9318 0.7175   0.046045
 C 0.1704 0.7358 0.6251   0.713505
 N 0.5095 0.5822 0.2834   -0.271324
 N 0.4905 0.0822 0.2166   -0.271324
 N 0.4905 0.4178 0.7166   -0.271324
 N 0.5095 0.9178 0.7834   -0.271324
 O 0.5408 0.623 0.4444   -0.997474
 O 0.8224 0.4814 0.4543   -1.127752
 O 0.376 0.4502 0.4091   -0.931263
 O 0.002 0.8192 0.1409   -0.694495
 O 0.1978 0.7488 0.0674   -0.779593
 O 0.4592 0.123 0.0556   -0.997474
 O 0.1776 0.9814 0.0457   -1.127752
 O 0.624 0.9502 0.0909   -0.931263
 O 0.998 0.3192 0.3591   -0.694495
 O 0.8022 0.2488 0.4326   -0.779593
 O 0.4592 0.377 0.5556   -0.997474
 O 0.1776 0.5186 0.5457   -1.127752
 O 0.624 0.5498 0.5909   -0.931263
 O 0.998 0.1808 0.8591   -0.694495
 O 0.8022 0.2512 0.9326   -0.779593
 O 0.5408 0.877 0.9444   -0.997474
 O 0.8224 0.0186 0.9543   -1.127752
 O 0.376 0.0498 0.9091   -0.931263
 O 0.002 0.6808 0.6409   -0.694495
 O 0.1978 0.7512 0.5674   -0.779593
