{'_ref': 'TBD', '_srcid': 'CAKYAQ_clean', 'submitters': [{'name': 'Dalar Nazarian Jeff Camp and David Sholl', 'email': 'dalar@gatech.edu jcamp6@gatech.edu'}], '_method': 'VASP DFT with PBE;DDEC'}
data_CoH13C21N7O4
_symmetry_space_group_name_H-M   'P 1'
_cell_length_a   11.14400000
_cell_length_b   15.23915102
_cell_length_c   16.69500000
_cell_angle_alpha   114.41908431
_cell_angle_beta   90.00000000
_cell_angle_gamma   111.44652964
_symmetry_Int_Tables_number   1
_chemical_formula_structural   CoH13C21N7O4
_chemical_formula_sum   'Co4 H52 C84 N28 O16'
_cell_volume   2364.32808096
_cell_formula_units_Z   4
loop_
 _symmetry_equiv_pos_site_id
 _symmetry_equiv_pos_as_xyz
  1  'x, y, z'
loop_
 _atom_site_label
 _atom_site_fract_x
 _atom_site_fract_y
 _atom_site_fract_z
 _atom_site_charge
 Co 0.5 0.5 0.0   0.779229
 Co 0.0 0.5 0.5   0.751494
 Co 0.0 0.5 0.0   1.002823
 Co 0.5 0.5 0.5   0.801402
 H 0.2087 0.3316 0.131   0.123443
 H 0.0435 0.569 0.3189   0.108629
 H 0.063 0.3046 0.3941   0.079225
 H 0.3861 0.6736 0.1176   0.074222
 H 0.4142 0.8438 0.1583   0.13543
 H 0.6604 0.852 0.9842   0.133431
 H 0.6279 0.6846 0.9524   0.057468
 H 0.8157 0.132 0.9805   0.130468
 H 0.9365 0.2666 0.9473   0.080541
 H 0.8107 0.4576 0.1249   0.069596
 H 0.6828 0.3284 0.1614   0.113493
 H 0.5408 0.1758 0.1772   0.272937
 H 0.1438 0.2526 0.26   0.329785
 H 0.8771 0.6684 0.369   0.124014
 H 0.4745 0.431 0.1811   0.111006
 H 0.7584 0.6954 0.1059   0.079405
 H 0.7125 0.3264 0.3824   0.074801
 H 0.5704 0.1562 0.3417   0.135421
 H 0.8084 0.148 0.5158   0.133156
 H 0.9433 0.3154 0.5476   0.058888
 H 0.6837 0.868 0.5195   0.133584
 H 0.6699 0.7334 0.5527   0.08828
 H 0.3531 0.5424 0.3751   0.076307
 H 0.3544 0.6716 0.3386   0.115492
 H 0.365 0.8242 0.3228   0.27463
 H 0.8912 0.7474 0.24   0.330136
 H 0.7913 0.6684 0.869   0.123447
 H 0.9565 0.431 0.6811   0.108619
 H 0.937 0.6954 0.6059   0.079253
 H 0.6139 0.3264 0.8824   0.074223
 H 0.5858 0.1562 0.8417   0.135427
 H 0.3396 0.148 0.0158   0.133492
 H 0.3721 0.3154 0.0476   0.057447
 H 0.1843 0.868 0.0195   0.130586
 H 0.0635 0.7334 0.0527   0.080597
 H 0.1893 0.5424 0.8751   0.069596
 H 0.3172 0.6716 0.8386   0.113494
 H 0.4592 0.8242 0.8228   0.272928
 H 0.8562 0.7474 0.74   0.329926
 H 0.1229 0.3316 0.631   0.124013
 H 0.5255 0.569 0.8189   0.111001
 H 0.2416 0.3046 0.8941   0.079437
 H 0.2875 0.6736 0.6176   0.074802
 H 0.4296 0.8438 0.6583   0.135418
 H 0.1916 0.852 0.4842   0.133223
 H 0.0567 0.6846 0.4524   0.058857
 H 0.3163 0.132 0.4805   0.133706
 H 0.3301 0.2666 0.4473   0.088332
 H 0.6469 0.4576 0.6249   0.076308
 H 0.6456 0.3284 0.6614   0.115493
 H 0.635 0.1758 0.6772   0.274623
 H 0.1088 0.2526 0.76   0.330279
 C 0.23422 0.47004 0.0715   0.646189
 C 0.17408 0.45956 0.1505   -0.096678
 C 0.12365 0.5313 0.2072   -0.107959
 C 0.12427 0.62494 0.1962   0.686064
 C 0.17575 0.3791 0.1682   -0.157266
 C 0.12747 0.37034 0.2425   0.106085
 C 0.08033 0.44226 0.3004   0.160045
 C 0.07691 0.52202 0.2818   -0.12827
 C 0.07436 0.33652 0.3562   0.274332
 C 0.44304 0.71048 0.0907   0.166182
 C 0.45878 0.81316 0.1156   -0.179265
 C 0.54181 0.86962 0.076   0.04505
 C 0.60448 0.81796 0.0132   -0.184358
 C 0.58348 0.71676 0.9941   0.148316
 C 0.56786 0.97912 0.097   0.347892
 C 0.65468 0.12696 0.0951   0.279341
 C 0.73501 0.21462 0.0757   0.035784
 C 0.8128 0.1978 0.0107   -0.167046
 C 0.8853 0.279 0.9914   0.164859
 C 0.81107 0.39094 0.0953   0.181874
 C 0.73446 0.31392 0.1181   -0.174748
 C 0.76418 0.52996 0.4285   0.633209
 C 0.71452 0.54044 0.3495   -0.095706
 C 0.59235 0.4687 0.2928   -0.106746
 C 0.49933 0.37506 0.3038   0.67456
 C 0.79665 0.6209 0.3318   -0.159449
 C 0.75713 0.62966 0.2575   0.10738
 C 0.63807 0.55774 0.1996   0.162277
 C 0.55489 0.47798 0.2182   -0.132268
 C 0.73784 0.66348 0.1438   0.276384
 C 0.73256 0.28952 0.4093   0.163765
 C 0.64562 0.18684 0.3844   -0.178647
 C 0.67219 0.13038 0.424   0.043459
 C 0.78652 0.18204 0.4868   -0.181874
 C 0.86672 0.28324 0.5059   0.147237
 C 0.58874 0.02088 0.403   0.347873
 C 0.52772 0.87304 0.4049   0.27815
 C 0.52039 0.78538 0.4243   0.035117
 C 0.615 0.8022 0.4893   -0.161719
 C 0.6063 0.721 0.5086   0.147184
 C 0.42013 0.60906 0.4047   0.166559
 C 0.42054 0.68608 0.3819   -0.166913
 C 0.76578 0.52996 0.9285   0.64619
 C 0.82592 0.54044 0.8495   -0.096677
 C 0.87635 0.4687 0.7928   -0.107959
 C 0.87573 0.37506 0.8038   0.686061
 C 0.82425 0.6209 0.8318   -0.157271
 C 0.87253 0.62966 0.7575   0.106102
 C 0.91967 0.55774 0.6996   0.160045
 C 0.92309 0.47798 0.7182   -0.128276
 C 0.92564 0.66348 0.6438   0.274339
 C 0.55696 0.28952 0.9093   0.166173
 C 0.54122 0.18684 0.8844   -0.179274
 C 0.45819 0.13038 0.924   0.045061
 C 0.39552 0.18204 0.9868   -0.184385
 C 0.41652 0.28324 0.0059   0.148314
 C 0.43214 0.02088 0.903   0.347899
 C 0.34532 0.87304 0.9049   0.279347
 C 0.26499 0.78538 0.9243   0.035801
 C 0.1872 0.8022 0.9893   -0.167086
 C 0.1147 0.721 0.0086   0.164845
 C 0.18893 0.60906 0.9047   0.181867
 C 0.26554 0.68608 0.8819   -0.174761
 C 0.23582 0.47004 0.5715   0.633209
 C 0.28548 0.45956 0.6505   -0.095706
 C 0.40765 0.5313 0.7072   -0.106745
 C 0.50067 0.62494 0.6962   0.674556
 C 0.20335 0.3791 0.6682   -0.159452
 C 0.24287 0.37034 0.7425   0.107396
 C 0.36193 0.44226 0.8004   0.162277
 C 0.44511 0.52202 0.7818   -0.132275
 C 0.26216 0.33652 0.8562   0.276391
 C 0.26744 0.71048 0.5907   0.163751
 C 0.35438 0.81316 0.6156   -0.178657
 C 0.32781 0.86962 0.576   0.04347
 C 0.21348 0.81796 0.5132   -0.181905
 C 0.13328 0.71676 0.4941   0.147238
 C 0.41126 0.97912 0.597   0.34788
 C 0.47228 0.12696 0.5951   0.278156
 C 0.47961 0.21462 0.5757   0.035133
 C 0.385 0.1978 0.5107   -0.161761
 C 0.3937 0.279 0.4914   0.14717
 C 0.57987 0.39094 0.5953   0.166548
 C 0.57946 0.31392 0.6181   -0.166929
 N 0.50343 0.66066 0.0314   -0.333464
 N 0.65997 0.03314 0.0614   -0.502284
 N 0.50566 0.03452 0.1492   -0.346605
 N 0.56383 0.12886 0.1473   -0.030177
 N 0.88582 0.37484 0.0327   -0.355156
 N 0.11998 0.30276 0.2796   -0.301462
 N 0.04742 0.41884 0.3727   -0.41026
 N 0.84277 0.33934 0.4686   -0.326347
 N 0.62683 0.96686 0.4386   -0.500933
 N 0.47114 0.96548 0.3508   -0.343445
 N 0.43497 0.87114 0.3527   -0.028874
 N 0.51098 0.62516 0.4673   -0.282623
 N 0.81722 0.69724 0.2204   -0.3015
 N 0.62858 0.58116 0.1273   -0.414004
 N 0.49657 0.33934 0.9686   -0.333465
 N 0.34003 0.96686 0.9386   -0.502294
 N 0.49434 0.96548 0.8508   -0.34661
 N 0.43617 0.87114 0.8527   -0.030175
 N 0.11418 0.62516 0.9673   -0.355152
 N 0.88002 0.69724 0.7204   -0.301518
 N 0.95258 0.58116 0.6273   -0.410261
 N 0.15723 0.66066 0.5314   -0.326348
 N 0.37317 0.03314 0.5614   -0.500943
 N 0.52886 0.03452 0.6492   -0.34345
 N 0.56503 0.12886 0.6473   -0.028872
 N 0.48902 0.37484 0.5327   -0.282618
 N 0.18278 0.30276 0.7796   -0.301556
 N 0.37142 0.41884 0.8727   -0.414004
 O 0.34422 0.46544 0.0673   -0.548931
 O 0.17334 0.48188 0.0159   -0.590265
 O 0.04989 0.61238 0.1325   -0.623345
 O 0.19473 0.71406 0.2569   -0.628705
 O 0.87878 0.53456 0.4327   -0.539781
 O 0.69146 0.51812 0.4841   -0.551868
 O 0.43751 0.38762 0.3675   -0.580811
 O 0.48067 0.28594 0.2431   -0.616898
 O 0.65578 0.53456 0.9327   -0.548932
 O 0.82666 0.51812 0.9841   -0.590269
 O 0.95011 0.38762 0.8675   -0.623347
 O 0.80527 0.28594 0.7431   -0.628705
 O 0.12122 0.46544 0.5673   -0.539781
 O 0.30854 0.48188 0.5159   -0.551873
 O 0.56249 0.61238 0.6325   -0.580814
 O 0.51933 0.71406 0.7569   -0.616898
