{'_ref': 'TBD', '_srcid': 'CAKYAQ_clean', 'submitters': [{'name': 'Dalar Nazarian Jeff Camp and David Sholl', 'email': 'dalar@gatech.edu jcamp6@gatech.edu'}], '_method': 'VASP DFT with PBE;DDEC'}
data_SmCuH8C14(NO4)2
_symmetry_space_group_name_H-M   'P 1'
_cell_length_a   9.23330000
_cell_length_b   9.55029979
_cell_length_c   21.58500000
_cell_angle_alpha   90.00000000
_cell_angle_beta   90.00000000
_cell_angle_gamma   116.00600176
_symmetry_Int_Tables_number   1
_chemical_formula_structural   SmCuH8C14(NO4)2
_chemical_formula_sum   'Sm4 Cu4 H32 C56 N8 O32'
_cell_volume   1710.66117948
_cell_formula_units_Z   4
loop_
 _symmetry_equiv_pos_site_id
 _symmetry_equiv_pos_as_xyz
  1  'x, y, z'
loop_
 _atom_site_label
 _atom_site_fract_x
 _atom_site_fract_y
 _atom_site_fract_z
 _atom_site_charge
 Sm 0.62341 0.85922 0.99144   2.286243
 Sm 0.87659 0.14078 0.49144   2.286243
 Sm 0.37659 0.14078 0.00856   2.286243
 Sm 0.12341 0.85922 0.50856   2.286243
 Cu 0.95914 0.80884 0.85455   0.397737
 Cu 0.54086 0.19116 0.35455   0.397737
 Cu 0.04086 0.19116 0.14545   0.397737
 Cu 0.45914 0.80884 0.64545   0.397737
 H 0.6089 0.8173 0.1664   0.116673
 H 0.0608 0.2969 0.9301   0.101351
 H 0.2558 0.4993 0.8748   0.143201
 H 0.7925 0.5292 0.9297   0.08629
 H 0.6472 0.7719 0.269   0.135182
 H 0.2063 0.7032 0.8436   0.059844
 H 0.496 0.1542 0.2239   0.079943
 H 0.6252 0.9265 0.3448   0.082646
 H 0.8911 0.1827 0.6664   0.116673
 H 0.4392 0.7031 0.4301   0.101351
 H 0.2442 0.5007 0.3748   0.143201
 H 0.7075 0.4708 0.4297   0.08629
 H 0.8528 0.2281 0.769   0.135182
 H 0.2937 0.2968 0.3436   0.059843
 H 0.004 0.8458 0.7239   0.079943
 H 0.8748 0.0735 0.8448   0.082646
 H 0.3911 0.1827 0.8336   0.116673
 H 0.9392 0.7031 0.0699   0.101351
 H 0.7442 0.5007 0.1252   0.1432
 H 0.2075 0.4708 0.0703   0.08629
 H 0.3528 0.2281 0.731   0.135182
 H 0.7937 0.2968 0.1564   0.059843
 H 0.504 0.8458 0.7761   0.079942
 H 0.3748 0.0735 0.6552   0.082646
 H 0.1089 0.8173 0.3336   0.116673
 H 0.5608 0.2969 0.5699   0.101351
 H 0.7558 0.4993 0.6252   0.1432
 H 0.2925 0.5292 0.5703   0.08629
 H 0.1472 0.7719 0.231   0.135182
 H 0.7063 0.7032 0.6564   0.059843
 H 0.996 0.1542 0.2761   0.079942
 H 0.1252 0.9265 0.1552   0.082646
 C 0.546 0.9915 0.1845   -0.218517
 C 0.5114 0.0273 0.1205   0.762146
 C 0.5941 0.8763 0.1979   0.062262
 C 0.7719 0.2595 0.9694   0.781214
 C 0.9038 0.3904 0.9349   -0.228155
 C 0.0441 0.3826 0.9186   0.049975
 C 0.1592 0.5018 0.8852   -0.149578
 C 0.885 0.5211 0.9173   0.183236
 C 0.6193 0.8514 0.2587   -0.194556
 C 0.1296 0.6247 0.8675   0.160297
 C 0.5291 0.0775 0.233   0.15532
 C 0.6035 0.943 0.3041   0.18601
 C 0.4888 0.492 0.9645   0.550688
 C 0.0035 0.9772 0.9663   0.541535
 C 0.954 0.0085 0.6845   -0.218517
 C 0.9886 0.9727 0.6205   0.762146
 C 0.9059 0.1237 0.6979   0.062263
 C 0.7281 0.7405 0.4694   0.781214
 C 0.5962 0.6096 0.4349   -0.228155
 C 0.4559 0.6174 0.4186   0.049975
 C 0.3408 0.4982 0.3852   -0.149579
 C 0.615 0.4789 0.4173   0.183236
 C 0.8807 0.1486 0.7587   -0.194557
 C 0.3704 0.3753 0.3675   0.160297
 C 0.9709 0.9225 0.733   0.15532
 C 0.8965 0.057 0.8041   0.18601
 C 0.0112 0.508 0.4645   0.550688
 C 0.4965 0.0228 0.4663   0.541535
 C 0.454 0.0085 0.8155   -0.218517
 C 0.4886 0.9727 0.8795   0.762146
 C 0.4059 0.1237 0.8021   0.062262
 C 0.2281 0.7405 0.0306   0.781214
 C 0.0962 0.6096 0.0651   -0.228154
 C 0.9559 0.6174 0.0814   0.049975
 C 0.8408 0.4982 0.1148   -0.149578
 C 0.115 0.4789 0.0827   0.183236
 C 0.3807 0.1486 0.7413   -0.194557
 C 0.8704 0.3753 0.1325   0.160297
 C 0.4709 0.9225 0.767   0.15532
 C 0.3965 0.057 0.6959   0.186009
 C 0.5112 0.508 0.0355   0.55069
 C 0.9965 0.0228 0.0337   0.541537
 C 0.046 0.9915 0.3155   -0.218517
 C 0.0114 0.0273 0.3795   0.762146
 C 0.0941 0.8763 0.3021   0.062262
 C 0.2719 0.2595 0.5306   0.781214
 C 0.4038 0.3904 0.5651   -0.228154
 C 0.5441 0.3826 0.5814   0.049975
 C 0.6592 0.5018 0.6148   -0.149578
 C 0.385 0.5211 0.5827   0.183236
 C 0.1193 0.8514 0.2413   -0.194557
 C 0.6296 0.6247 0.6325   0.160297
 C 0.0291 0.0775 0.267   0.15532
 C 0.1035 0.943 0.1959   0.18601
 C 0.9888 0.492 0.5355   0.55069
 C 0.5035 0.9772 0.5337   0.541537
 N 0.995 0.6369 0.8831   -0.312984
 N 0.5577 0.0568 0.2925   -0.307082
 N 0.505 0.3631 0.3831   -0.312984
 N 0.9423 0.9432 0.7925   -0.307082
 N 0.005 0.3631 0.1169   -0.312984
 N 0.4423 0.9432 0.7075   -0.307082
 N 0.495 0.6369 0.6169   -0.312984
 N 0.0577 0.0568 0.2075   -0.307082
 O 0.8732 0.8822 0.94214   -0.628244
 O 0.78 0.1321 0.96962   -0.736045
 O 0.5504 0.9683 0.07549   -0.803144
 O 0.5512 0.6154 0.93372   -0.643234
 O 0.664 0.2873 0.9942   -0.737505
 O 0.4431 0.1145 0.11438   -0.675088
 O 0.4089 0.3579 0.94314   -0.670194
 O 0.1366 0.0377 0.93933   -0.617465
 O 0.6268 0.1178 0.44214   -0.628244
 O 0.72 0.8679 0.46962   -0.736045
 O 0.9496 0.0317 0.57549   -0.803144
 O 0.9488 0.3846 0.43372   -0.643234
 O 0.836 0.7127 0.4942   -0.737505
 O 0.0569 0.8855 0.61438   -0.675088
 O 0.0911 0.6421 0.44314   -0.670194
 O 0.3634 0.9623 0.43933   -0.617465
 O 0.1268 0.1178 0.05786   -0.628244
 O 0.22 0.8679 0.03038   -0.736045
 O 0.4496 0.0317 0.92451   -0.803144
 O 0.4488 0.3846 0.06628   -0.643234
 O 0.336 0.7127 0.0058   -0.737505
 O 0.5569 0.8855 0.88562   -0.675088
 O 0.5911 0.6421 0.05686   -0.670195
 O 0.8634 0.9623 0.06067   -0.617465
 O 0.3732 0.8822 0.55786   -0.628244
 O 0.28 0.1321 0.53038   -0.736045
 O 0.0504 0.9683 0.42451   -0.803144
 O 0.0512 0.6154 0.56628   -0.643234
 O 0.164 0.2873 0.5058   -0.737505
 O 0.9431 0.1145 0.38562   -0.675088
 O 0.9089 0.3579 0.55686   -0.670195
 O 0.6366 0.0377 0.56067   -0.617465
