{'_ref': 'TBD', '_srcid': 'CAKYAQ_clean', 'submitters': [{'name': 'Dalar Nazarian Jeff Camp and David Sholl', 'email': 'dalar@gatech.edu jcamp6@gatech.edu'}], '_method': 'VASP DFT with PBE;DDEC'}
data_FeH16(C12N5)2
_symmetry_space_group_name_H-M   'P 1'
_cell_length_a   11.89979959
_cell_length_b   18.97912407
_cell_length_c   18.97920045
_cell_angle_alpha   115.75208646
_cell_angle_beta   102.06400033
_cell_angle_gamma   102.06322850
_symmetry_Int_Tables_number   1
_chemical_formula_structural   FeH16(C12N5)2
_chemical_formula_sum   'Fe3 H48 C72 N30'
_cell_volume   3549.99869519
_cell_formula_units_Z   3
loop_
 _symmetry_equiv_pos_site_id
 _symmetry_equiv_pos_as_xyz
  1  'x, y, z'
loop_
 _atom_site_label
 _atom_site_fract_x
 _atom_site_fract_y
 _atom_site_fract_z
 _atom_site_charge
 Fe 0.0 0.5 0.5   0.253569
 Fe 0.5 0.5 0.0   0.203971
 Fe 0.5 0.0 0.5   0.189458
 H 0.9221 0.6841 0.7482   0.135806
 H 0.7727 0.7223 0.6848   0.108037
 H 0.7111 0.6645 0.5392   0.130265
 H 0.7949 0.5735 0.4628   0.073855
 H 0.3266 0.4722 0.7255   0.131696
 H 0.4491 0.4561 0.8238   0.082722
 H 0.314 0.5832 0.9922   0.08813
 H 0.1873 0.6021 0.8968   0.135752
 H 0.1739 0.2518 0.9359   0.136547
 H 0.0879 0.3152 0.0375   0.10734
 H 0.1719 0.4608 0.1253   0.130142
 H 0.3321 0.5372 0.1107   0.074414
 H 0.6011 0.2745 0.7467   0.131516
 H 0.6253 0.1762 0.6323   0.085365
 H 0.3218 0.0078 0.591   0.088215
 H 0.2905 0.1032 0.7053   0.135285
 H 0.238 0.0641 0.3159   0.136378
 H 0.0504 0.9625 0.2777   0.107319
 H 0.0466 0.8747 0.3355   0.13103
 H 0.2214 0.8893 0.4265   0.075111
 H 0.8544 0.2533 0.5278   0.131877
 H 0.993 0.3677 0.5439   0.085062
 H 0.7308 0.409 0.4168   0.087384
 H 0.5852 0.2947 0.3979   0.136295
 H 0.0779 0.3159 0.2518   0.135811
 H 0.2273 0.2777 0.3152   0.108041
 H 0.2889 0.3355 0.4608   0.130263
 H 0.2051 0.4265 0.5372   0.073856
 H 0.6734 0.5278 0.2745   0.131695
 H 0.5509 0.5439 0.1762   0.082722
 H 0.686 0.4168 0.0078   0.08813
 H 0.8127 0.3979 0.1032   0.135751
 H 0.8261 0.7482 0.0641   0.136551
 H 0.9121 0.6848 0.9625   0.107345
 H 0.8281 0.5392 0.8747   0.13014
 H 0.6679 0.4628 0.8893   0.074414
 H 0.3989 0.7255 0.2533   0.131514
 H 0.3747 0.8238 0.3677   0.085365
 H 0.6782 0.9922 0.409   0.088215
 H 0.7095 0.8968 0.2947   0.135285
 H 0.762 0.9359 0.6841   0.136382
 H 0.9496 0.0375 0.7223   0.107324
 H 0.9534 0.1253 0.6645   0.131031
 H 0.7786 0.1107 0.5735   0.075116
 H 0.1456 0.7467 0.4722   0.131883
 H 0.007 0.6323 0.4561   0.085062
 H 0.2692 0.591 0.5832   0.087383
 H 0.4148 0.7053 0.6021   0.136294
 C 0.0365 0.5788 0.6717   0.252164
 C 0.16446 0.54807 0.73591   0.341863
 C 0.94272 0.60769 0.64077   0.126873
 C 0.8951 0.66219 0.68971   -0.157846
 C 0.80734 0.68463 0.65269   -0.031898
 C 0.77126 0.65021 0.56657   -0.197107
 C 0.82175 0.59625 0.5215   0.113884
 C 0.24306 0.53915 0.79913   0.048251
 C 0.32247 0.49559 0.78002   -0.177468
 C 0.39517 0.486 0.83881   0.092645
 C 0.31632 0.56026 0.9372   0.089139
 C 0.24063 0.57205 0.88074   -0.178734
 C 0.3648 0.3283 0.9071   0.248245
 C 0.42855 0.26409 0.81216   0.344543
 C 0.30195 0.35923 0.96692   0.127282
 C 0.20539 0.31029 0.97248   -0.156077
 C 0.15465 0.34731 0.03194   -0.034214
 C 0.20469 0.43343 0.08364   -0.195465
 C 0.30025 0.4785 0.07475   0.110563
 C 0.44393 0.20087 0.74002   0.045141
 C 0.54245 0.21998 0.71557   -0.17706
 C 0.55636 0.16119 0.64719   0.090265
 C 0.37912 0.0628 0.62306   0.088848
 C 0.35989 0.11926 0.69131   -0.177078
 C 0.4577 0.0929 0.4212   0.245974
 C 0.61639 0.18784 0.45193   0.340947
 C 0.33503 0.03308 0.39231   0.127998
 C 0.23291 0.02752 0.33781   -0.159098
 C 0.12271 0.96806 0.31537   -0.031604
 C 0.12105 0.91636 0.34979   -0.195722
 C 0.2255 0.92525 0.40375   0.108201
 C 0.70391 0.25998 0.46085   0.048457
 C 0.82688 0.28443 0.50441   -0.177114
 C 0.90917 0.35281 0.514   0.091016
 C 0.75606 0.37694 0.43974   0.093268
 C 0.66858 0.30869 0.42795   -0.179983
 C 0.9635 0.4212 0.3283   0.252165
 C 0.83554 0.45193 0.26409   0.341862
 C 0.05728 0.39231 0.35923   0.126874
 C 0.1049 0.33781 0.31029   -0.157848
 C 0.19266 0.31537 0.34731   -0.031899
 C 0.22874 0.34979 0.43343   -0.197108
 C 0.17825 0.40375 0.4785   0.113884
 C 0.75694 0.46085 0.20087   0.048251
 C 0.67753 0.50441 0.21998   -0.177468
 C 0.60483 0.514 0.16119   0.092645
 C 0.68368 0.43974 0.0628   0.08914
 C 0.75937 0.42795 0.11926   -0.178733
 C 0.6352 0.6717 0.0929   0.248246
 C 0.57145 0.73591 0.18784   0.344543
 C 0.69805 0.64077 0.03308   0.127283
 C 0.79461 0.68971 0.02752   -0.156078
 C 0.84535 0.65269 0.96806   -0.034216
 C 0.79531 0.56657 0.91636   -0.195465
 C 0.69975 0.5215 0.92525   0.110564
 C 0.55607 0.79913 0.25998   0.045141
 C 0.45755 0.78002 0.28443   -0.17706
 C 0.44364 0.83881 0.35281   0.090266
 C 0.62088 0.9372 0.37694   0.088847
 C 0.64011 0.88074 0.30869   -0.177078
 C 0.5423 0.9071 0.5788   0.245974
 C 0.38361 0.81216 0.54807   0.340946
 C 0.66497 0.96692 0.60769   0.127998
 C 0.76709 0.97248 0.66219   -0.159099
 C 0.87729 0.03194 0.68463   -0.031605
 C 0.87895 0.08364 0.65021   -0.195721
 C 0.7745 0.07475 0.59625   0.1082
 C 0.29609 0.74002 0.53915   0.048458
 C 0.17312 0.71557 0.49559   -0.177117
 C 0.09083 0.64719 0.486   0.091017
 C 0.24394 0.62306 0.56026   0.093269
 C 0.33142 0.69131 0.57205   -0.179982
 N 0.07691 0.52932 0.61561   -0.055709
 N 0.16067 0.50828 0.65633   -0.380172
 N 0.08818 0.59313 0.74851   -0.531333
 N 0.90821 0.5734 0.55593   -0.192272
 N 0.39361 0.51763 0.9183   -0.166318
 N 0.4613 0.38439 0.91371   -0.046637
 N 0.50434 0.34367 0.85195   -0.383205
 N 0.33967 0.25149 0.84462   -0.532633
 N 0.35228 0.44407 0.01747   -0.178089
 N 0.47531 0.0817 0.59933   -0.164234
 N 0.54759 0.08629 0.47068   -0.042758
 N 0.65239 0.14805 0.49172   -0.382795
 N 0.49505 0.15538 0.40687   -0.532189
 N 0.33481 0.98253 0.4266   -0.173109
 N 0.87598 0.40067 0.48237   -0.176702
 N 0.92309 0.47068 0.38439   -0.055709
 N 0.83933 0.49172 0.34367   -0.380172
 N 0.91182 0.40687 0.25149   -0.531333
 N 0.09179 0.4266 0.44407   -0.192271
 N 0.60639 0.48237 0.0817   -0.166317
 N 0.5387 0.61561 0.08629   -0.046637
 N 0.49566 0.65633 0.14805   -0.383205
 N 0.66033 0.74851 0.15538   -0.532633
 N 0.64772 0.55593 0.98253   -0.178089
 N 0.52469 0.9183 0.40067   -0.164234
 N 0.45241 0.91371 0.52932   -0.042759
 N 0.34761 0.85195 0.50828   -0.382795
 N 0.50495 0.84462 0.59313   -0.532189
 N 0.66519 0.01747 0.5734   -0.173109
 N 0.12402 0.59933 0.51763   -0.176701
