{'_ref': 'TBD', '_srcid': 'CAKYAQ_clean', 'submitters': [{'name': 'Dalar Nazarian Jeff Camp and David Sholl', 'email': 'dalar@gatech.edu jcamp6@gatech.edu'}], '_method': 'VASP DFT with PBE;DDEC'}
data_CuH6C12N5O4
_symmetry_space_group_name_H-M   'P 1'
_cell_length_a   4.65100000
_cell_length_b   10.81199981
_cell_length_c   34.68300000
_cell_angle_alpha   90.00000000
_cell_angle_beta   90.00000000
_cell_angle_gamma   95.80000178
_symmetry_Int_Tables_number   1
_chemical_formula_structural   CuH6C12N5O4
_chemical_formula_sum   'Cu4 H24 C48 N20 O16'
_cell_volume   1735.16202046
_cell_formula_units_Z   4
loop_
 _symmetry_equiv_pos_site_id
 _symmetry_equiv_pos_as_xyz
  1  'x, y, z'
loop_
 _atom_site_label
 _atom_site_fract_x
 _atom_site_fract_y
 _atom_site_fract_z
 _atom_site_charge
 Cu 0.08395 0.11471 0.80205   0.87796
 Cu 0.91605 0.38529 0.30205   0.87796
 Cu 0.91605 0.88529 0.19795   0.87796
 Cu 0.08395 0.61471 0.69795   0.87796
 H 0.9496 0.0698 0.7207   0.104568
 H 0.1436 0.1457 0.6608   0.111118
 H 0.0533 0.1334 0.9381   0.133213
 H 0.1898 0.1793 0.8745   0.109761
 H 0.5066 0.969 0.8337   0.014875
 H 0.3047 0.9575 0.896   0.12789
 H 0.0504 0.4302 0.2207   0.104568
 H 0.8564 0.3543 0.1608   0.111118
 H 0.9467 0.3666 0.4381   0.133213
 H 0.8102 0.3207 0.3745   0.109761
 H 0.4934 0.531 0.3337   0.014875
 H 0.6953 0.5425 0.396   0.12789
 H 0.0504 0.9302 0.2793   0.104568
 H 0.8564 0.8543 0.3392   0.111118
 H 0.9467 0.8666 0.0619   0.133212
 H 0.8102 0.8207 0.1255   0.109761
 H 0.4934 0.031 0.1663   0.014875
 H 0.6953 0.0425 0.104   0.12789
 H 0.9496 0.5698 0.7793   0.104568
 H 0.1436 0.6457 0.8392   0.111118
 H 0.0533 0.6334 0.5619   0.133212
 H 0.1898 0.6793 0.6255   0.109761
 H 0.5066 0.469 0.6663   0.014875
 H 0.3047 0.4575 0.604   0.12789
 C 0.4292 0.36767 0.78981   0.619704
 C 0.3398 0.30331 0.75085   0.06433
 C 0.08881 0.13814 0.71893   0.121018
 C 0.18699 0.19336 0.68435   0.115883
 C 0.43268 0.35624 0.71564   0.069219
 C 0.62602 0.47874 0.71379   0.577113
 C 0.93967 0.09851 0.91674   -0.179661
 C 0.03187 0.11663 0.87785   0.129441
 C 0.61562 0.99843 0.85503   0.249278
 C 0.50243 0.99412 0.89205   -0.208428
 C 0.67654 0.02615 0.9225   0.045975
 C 0.55908 0.01269 0.96322   0.353157
 C 0.5708 0.13233 0.28981   0.619704
 C 0.6602 0.19669 0.25085   0.06433
 C 0.91119 0.36186 0.21893   0.121018
 C 0.81301 0.30664 0.18435   0.115883
 C 0.56732 0.14376 0.21564   0.069219
 C 0.37398 0.02126 0.21379   0.577113
 C 0.06033 0.40149 0.41674   -0.179661
 C 0.96813 0.38337 0.37785   0.129441
 C 0.38438 0.50157 0.35503   0.249278
 C 0.49757 0.50588 0.39205   -0.208428
 C 0.32346 0.47385 0.4225   0.045975
 C 0.44092 0.48731 0.46322   0.353157
 C 0.5708 0.63233 0.21019   0.619704
 C 0.6602 0.69669 0.24915   0.06433
 C 0.91119 0.86186 0.28107   0.121018
 C 0.81301 0.80664 0.31565   0.115883
 C 0.56732 0.64376 0.28436   0.069219
 C 0.37398 0.52126 0.28621   0.577113
 C 0.06033 0.90149 0.08326   -0.179661
 C 0.96813 0.88337 0.12215   0.129441
 C 0.38438 0.00157 0.14497   0.249278
 C 0.49757 0.00588 0.10795   -0.208428
 C 0.32346 0.97385 0.0775   0.045974
 C 0.44092 0.98731 0.03678   0.353151
 C 0.4292 0.86767 0.71019   0.619704
 C 0.3398 0.80331 0.74915   0.06433
 C 0.08881 0.63814 0.78107   0.121018
 C 0.18699 0.69336 0.81565   0.115883
 C 0.43268 0.85624 0.78436   0.069219
 C 0.62602 0.97874 0.78621   0.577113
 C 0.93967 0.59851 0.58326   -0.179661
 C 0.03187 0.61663 0.62215   0.129441
 C 0.61562 0.49843 0.64497   0.249278
 C 0.50243 0.49412 0.60795   -0.208428
 C 0.67654 0.52615 0.5775   0.045974
 C 0.55908 0.51269 0.53678   0.353151
 N 0.18528 0.19382 0.75225   -0.214201
 N 0.3451 0.30035 0.68272   -0.279983
 N 0.88359 0.05315 0.8487   -0.333767
 N 0.55165 0.11402 0.98562   -0.204402
 N 0.4721 0.8999 0.97681   -0.190333
 N 0.81472 0.30618 0.25225   -0.214201
 N 0.6549 0.19965 0.18272   -0.279983
 N 0.11641 0.44685 0.3487   -0.333767
 N 0.44835 0.38598 0.48562   -0.204402
 N 0.5279 0.6001 0.47681   -0.190333
 N 0.81472 0.80618 0.24775   -0.214201
 N 0.6549 0.69965 0.31728   -0.279983
 N 0.11641 0.94685 0.1513   -0.333767
 N 0.44835 0.88598 0.01438   -0.204375
 N 0.5279 0.1001 0.02319   -0.190306
 N 0.18528 0.69382 0.74775   -0.214201
 N 0.3451 0.80035 0.81728   -0.279983
 N 0.88359 0.55315 0.6513   -0.333767
 N 0.55165 0.61402 0.51438   -0.204375
 N 0.4721 0.3999 0.52319   -0.190306
 O 0.31709 0.27985 0.81022   -0.625207
 O 0.50487 0.47449 0.80065   -0.517037
 O 0.54923 0.56368 0.69671   -0.514927
 O 0.87751 0.48736 0.72919   -0.556581
 O 0.68291 0.22015 0.31022   -0.625207
 O 0.49513 0.02551 0.30065   -0.517037
 O 0.45077 0.93632 0.19671   -0.514927
 O 0.12249 0.01264 0.22919   -0.556581
 O 0.68291 0.72015 0.18978   -0.625207
 O 0.49513 0.52551 0.19935   -0.517037
 O 0.45077 0.43632 0.30329   -0.514926
 O 0.12249 0.51264 0.27081   -0.556581
 O 0.31709 0.77985 0.68978   -0.625207
 O 0.50487 0.97449 0.69935   -0.517037
 O 0.54923 0.06368 0.80329   -0.514926
 O 0.87751 0.98736 0.77081   -0.556581
