{'_ref': 'TBD', '_srcid': 'CAKYAQ_clean', 'submitters': [{'name': 'Dalar Nazarian Jeff Camp and David Sholl', 'email': 'dalar@gatech.edu jcamp6@gatech.edu'}], '_method': 'VASP DFT with PBE;DDEC'}
data_CeH4(C4O3)3
_symmetry_space_group_name_H-M   'P 1'
_cell_length_a   10.44500007
_cell_length_b   11.11900019
_cell_length_c   12.43000000
_cell_angle_alpha   103.72599889
_cell_angle_beta   106.48700048
_cell_angle_gamma   98.39500187
_symmetry_Int_Tables_number   1
_chemical_formula_structural   CeH4(C4O3)3
_chemical_formula_sum   'Ce2 H8 C24 O18'
_cell_volume   1308.96707635
_cell_formula_units_Z   2
loop_
 _symmetry_equiv_pos_site_id
 _symmetry_equiv_pos_as_xyz
  1  'x, y, z'
loop_
 _atom_site_label
 _atom_site_fract_x
 _atom_site_fract_y
 _atom_site_fract_z
 _atom_site_charge
 Ce 0.09465 0.04501 0.68386   2.211567
 Ce 0.90535 0.95499 0.31614   2.211568
 H 0.0073 0.652 0.6687   0.135496
 H 0.3906 0.058 0.6365   0.111918
 H 0.9269 0.6196 0.2886   0.399337
 H 0.1791 0.434 0.9564   0.418351
 H 0.9927 0.348 0.3313   0.135496
 H 0.6094 0.942 0.3635   0.111918
 H 0.0731 0.3804 0.7114   0.399337
 H 0.8209 0.566 0.0436   0.418349
 C 0.2055 0.96 0.4252   0.781161
 C 0.9449 0.7463 0.4918   0.802544
 C 0.0042 0.5897 0.6002   -0.137914
 C 0.4242 0.9477 0.3808   0.351811
 C 0.5395 0.3971 0.9391   0.043991
 C 0.3621 0.4938 0.9891   0.292019
 C 0.357 0.9811 0.4625   -0.205207
 C 0.9678 0.527 0.3915   0.334131
 C 0.4001 0.3904 0.9282   -0.260857
 C 0.9716 0.6167 0.4934   -0.266663
 C 0.2952 0.2715 0.8534   0.716471
 C 0.4355 0.0339 0.5808   -0.071462
 C 0.7945 0.04 0.5748   0.781161
 C 0.0551 0.2537 0.5082   0.802543
 C 0.9958 0.4103 0.3998   -0.137924
 C 0.5758 0.0523 0.6192   0.351808
 C 0.4605 0.6029 0.0609   0.043995
 C 0.6379 0.5062 0.0109   0.292024
 C 0.643 0.0189 0.5375   -0.205207
 C 0.0322 0.473 0.6085   0.334124
 C 0.5999 0.6096 0.0718   -0.260859
 C 0.0284 0.3833 0.5066   -0.26666
 C 0.7048 0.7285 0.1466   0.716471
 C 0.5645 0.9661 0.4192   -0.071464
 O 0.9612 0.826 0.5876   -0.761128
 O 0.9077 0.7666 0.3923   -0.696773
 O 0.1715 0.2609 0.8509   -0.688838
 O 0.3327 0.1837 0.7925   -0.707152
 O 0.1455 0.9805 0.5004   -0.841008
 O 0.1377 0.9207 0.3159   -0.634802
 O 0.3562 0.8971 0.2632   -0.363922
 O 0.9379 0.5453 0.2835   -0.491312
 O 0.2334 0.5059 0.9863   -0.47175
 O 0.0388 0.174 0.4124   -0.761128
 O 0.0923 0.2334 0.6077   -0.696773
 O 0.8285 0.7391 0.1491   -0.688838
 O 0.6673 0.8163 0.2075   -0.707152
 O 0.8545 0.0195 0.4996   -0.841008
 O 0.8623 0.0793 0.6841   -0.634802
 O 0.6438 0.1029 0.7368   -0.363922
 O 0.0621 0.4547 0.7165   -0.491312
 O 0.7666 0.4941 0.0137   -0.47175
