{'_ref': 'TBD', '_srcid': 'CAKYAQ_clean', 'submitters': [{'name': 'Dalar Nazarian Jeff Camp and David Sholl', 'email': 'dalar@gatech.edu jcamp6@gatech.edu'}], '_method': 'VASP DFT with PBE;DDEC'}
data_Ag3P2H12C8S6(OF)4
_symmetry_space_group_name_H-M   'P 1'
_cell_length_a   10.18830000
_cell_length_b   12.01579993
_cell_length_c   19.20590000
_cell_angle_alpha   92.78999808
_cell_angle_beta   90.00000000
_cell_angle_gamma   90.00000000
_symmetry_Int_Tables_number   1
_chemical_formula_structural   Ag3P2H12C8S6(OF)4
_chemical_formula_sum   'Ag12 P8 H48 C32 S24 O16 F16'
_cell_volume   2348.41031835
_cell_formula_units_Z   4
loop_
 _symmetry_equiv_pos_site_id
 _symmetry_equiv_pos_as_xyz
  1  'x, y, z'
loop_
 _atom_site_label
 _atom_site_fract_x
 _atom_site_fract_y
 _atom_site_fract_z
 _atom_site_charge
 Ag 0.57895 0.24434 0.60221   0.188883
 Ag 0.29613 0.4876 0.86368   0.278512
 Ag 0.42432 0.73043 0.59049   0.258704
 Ag 0.07895 0.25566 0.89779   0.188879
 Ag 0.79613 0.0124 0.63632   0.278508
 Ag 0.92432 0.76957 0.90951   0.258704
 Ag 0.42105 0.75566 0.39779   0.188878
 Ag 0.70387 0.5124 0.13632   0.278506
 Ag 0.57568 0.26957 0.40951   0.258697
 Ag 0.92105 0.74434 0.10221   0.188874
 Ag 0.20387 0.9876 0.36368   0.278502
 Ag 0.07568 0.23043 0.09049   0.258697
 P 0.32581 0.15102 0.49567   1.590808
 P 0.4646 0.00429 0.68154   1.603354
 P 0.82581 0.34898 0.00433   1.590808
 P 0.9646 0.49571 0.81846   1.603354
 P 0.67419 0.84898 0.50433   1.590808
 P 0.5354 0.99571 0.31846   1.603354
 P 0.17419 0.65102 0.99567   1.590808
 P 0.0354 0.50429 0.18154   1.603354
 H 0.7327 0.4688 0.5572   0.094402
 H 0.8136 0.5436 0.6135   0.145779
 H 0.7127 0.6011 0.5625   0.142657
 H 0.4814 0.2791 0.8275   0.112932
 H 0.6357 0.2972 0.8177   0.142258
 H 0.5556 0.2205 0.7621   0.130542
 H 0.5675 0.7382 0.8318   0.126688
 H 0.4133 0.7198 0.8423   0.153359
 H 0.4648 0.7942 0.7811   0.139285
 H 0.1435 0.464 0.6552   0.144078
 H 0.2194 0.4077 0.5896   0.144957
 H 0.1966 0.5397 0.5949   0.116602
 H 0.2327 0.0312 0.9428   0.094401
 H 0.3136 0.9564 0.8865   0.145777
 H 0.2127 0.8989 0.9375   0.142656
 H 0.9814 0.2209 0.6725   0.112928
 H 0.1357 0.2028 0.6823   0.142258
 H 0.0556 0.2795 0.7379   0.130542
 H 0.0675 0.7618 0.6682   0.126685
 H 0.9133 0.7802 0.6577   0.153356
 H 0.9648 0.7058 0.7189   0.139284
 H 0.6435 0.036 0.8448   0.144078
 H 0.7194 0.0923 0.9104   0.144955
 H 0.6966 0.9603 0.9051   0.116598
 H 0.2673 0.5312 0.4428   0.094395
 H 0.1864 0.4564 0.3865   0.145779
 H 0.2873 0.3989 0.4375   0.142654
 H 0.5186 0.7209 0.1725   0.112932
 H 0.3643 0.7028 0.1823   0.142258
 H 0.4444 0.7795 0.2379   0.130542
 H 0.4325 0.2618 0.1682   0.126688
 H 0.5867 0.2802 0.1577   0.153359
 H 0.5352 0.2058 0.2189   0.139285
 H 0.8565 0.536 0.3448   0.144078
 H 0.7806 0.5923 0.4104   0.144954
 H 0.8034 0.4603 0.4051   0.116594
 H 0.7673 0.9688 0.0572   0.094394
 H 0.6864 0.0436 0.1135   0.145777
 H 0.7873 0.1011 0.0625   0.142654
 H 0.0186 0.7791 0.3275   0.112928
 H 0.8643 0.7972 0.3177   0.142258
 H 0.9444 0.7205 0.2621   0.130542
 H 0.9325 0.2382 0.3318   0.126685
 H 0.0867 0.2198 0.3423   0.153356
 H 0.0352 0.2942 0.2811   0.139284
 H 0.3565 0.964 0.1552   0.144077
 H 0.2806 0.9077 0.0896   0.144951
 H 0.3034 0.0397 0.0949   0.11659
 C 0.7295 0.535 0.5891   -0.329693
 C 0.6195 0.5218 0.6423   0.094934
 C 0.5517 0.2873 0.7933   -0.339274
 C 0.5241 0.3893 0.7507   0.098554
 C 0.483 0.7286 0.8078   -0.356431
 C 0.4884 0.6245 0.7583   0.110406
 C 0.2143 0.4737 0.6215   -0.338296
 C 0.3447 0.4889 0.6603   0.108831
 C 0.2295 0.965 0.9109   -0.329691
 C 0.1195 0.9782 0.8577   0.094934
 C 0.0517 0.2127 0.7067   -0.339273
 C 0.0241 0.1107 0.7493   0.098553
 C 0.983 0.7714 0.6922   -0.356429
 C 0.9884 0.8755 0.7417   0.110406
 C 0.7143 0.0263 0.8785   -0.338293
 C 0.8447 0.0111 0.8397   0.10883
 C 0.2705 0.465 0.4109   -0.32969
 C 0.3805 0.4782 0.3577   0.094933
 C 0.4483 0.7127 0.2067   -0.339274
 C 0.4759 0.6107 0.2493   0.098553
 C 0.517 0.2714 0.1922   -0.356431
 C 0.5116 0.3755 0.2417   0.110406
 C 0.7857 0.5263 0.3785   -0.338292
 C 0.6553 0.5111 0.3397   0.10883
 C 0.7705 0.035 0.0891   -0.329688
 C 0.8805 0.0218 0.1423   0.094933
 C 0.9483 0.7873 0.2933   -0.339273
 C 0.9759 0.8893 0.2507   0.098553
 C 0.017 0.2286 0.3078   -0.356429
 C 0.0116 0.1245 0.2583   0.110405
 C 0.2857 0.9737 0.1215   -0.33829
 C 0.1553 0.9889 0.1603   0.108829
 S 0.62184 0.64779 0.69838   -0.005737
 S 0.46797 0.5061 0.59251   -0.040484
 S 0.32797 0.61382 0.71689   -0.050379
 S 0.65944 0.39771 0.68886   -0.011401
 S 0.52248 0.50853 0.81329   0.001053
 S 0.36864 0.36373 0.70766   -0.038706
 S 0.12184 0.85221 0.80162   -0.005736
 S 0.96797 0.9939 0.90749   -0.040484
 S 0.82797 0.88618 0.78311   -0.050378
 S 0.15944 0.10229 0.81114   -0.0114
 S 0.02248 0.99147 0.68671   0.001053
 S 0.86864 0.13627 0.79234   -0.038705
 S 0.37816 0.35221 0.30162   -0.005737
 S 0.53203 0.4939 0.40749   -0.040484
 S 0.67203 0.38618 0.28311   -0.050378
 S 0.34056 0.60229 0.31114   -0.011401
 S 0.47752 0.49147 0.18671   0.001053
 S 0.63136 0.63627 0.29234   -0.038706
 S 0.87816 0.14779 0.19838   -0.005736
 S 0.03203 0.0061 0.09251   -0.040484
 S 0.17203 0.11382 0.21689   -0.050378
 S 0.84056 0.89771 0.18886   -0.0114
 S 0.97752 0.00853 0.31329   0.001053
 S 0.13136 0.86373 0.20766   -0.038705
 O 0.4445 0.2194 0.50814   -0.753449
 O 0.258 0.1511 0.42838   -0.779792
 O 0.4408 0.8892 0.6602   -0.778555
 O 0.5777 0.0682 0.65744   -0.764077
 O 0.9445 0.2806 0.99186   -0.753449
 O 0.758 0.3489 0.07162   -0.779792
 O 0.9408 0.6108 0.8398   -0.778555
 O 0.0777 0.4318 0.84256   -0.764077
 O 0.5555 0.7806 0.49186   -0.753449
 O 0.742 0.8489 0.57162   -0.779792
 O 0.5592 0.1108 0.3398   -0.778555
 O 0.4223 0.9318 0.34256   -0.764077
 O 0.0555 0.7194 0.00814   -0.753449
 O 0.242 0.6511 0.92838   -0.779792
 O 0.0592 0.3892 0.1602   -0.778555
 O 0.9223 0.5682 0.15744   -0.764077
 F 0.3551 0.0312 0.51531   -0.325513
 F 0.2275 0.1825 0.55446   -0.333634
 F 0.4649 0.0139 0.76253   -0.343092
 F 0.3415 0.0749 0.66986   -0.339036
 F 0.8551 0.4688 0.98469   -0.325513
 F 0.7275 0.3175 0.94554   -0.333634
 F 0.9649 0.4861 0.73747   -0.343092
 F 0.8415 0.4251 0.83014   -0.339036
 F 0.6449 0.9688 0.48469   -0.325513
 F 0.7725 0.8175 0.44554   -0.333634
 F 0.5351 0.9861 0.23747   -0.343092
 F 0.6585 0.9251 0.33014   -0.339036
 F 0.1449 0.5312 0.01531   -0.325513
 F 0.2725 0.6825 0.05446   -0.333634
 F 0.0351 0.5139 0.26253   -0.343092
 F 0.1585 0.5749 0.16986   -0.339036
