{'_ref': 'TBD', '_srcid': 'CAKYAQ_clean', 'submitters': [{'name': 'Dalar Nazarian Jeff Camp and David Sholl', 'email': 'dalar@gatech.edu jcamp6@gatech.edu'}], '_method': 'VASP DFT with PBE;DDEC'}
data_GdH12(C5O2)3
_symmetry_space_group_name_H-M   'P 1'
_cell_length_a   10.11000000
_cell_length_b   13.98700000
_cell_length_c   21.83500029
_cell_angle_alpha   91.62000044
_cell_angle_beta   90.00000000
_cell_angle_gamma   90.00000000
_symmetry_Int_Tables_number   1
_chemical_formula_structural   GdH12(C5O2)3
_chemical_formula_sum   'Gd8 H96 C120 O48'
_cell_volume   3086.42205336
_cell_formula_units_Z   8
loop_
 _symmetry_equiv_pos_site_id
 _symmetry_equiv_pos_as_xyz
  1  'x, y, z'
loop_
 _atom_site_label
 _atom_site_fract_x
 _atom_site_fract_y
 _atom_site_fract_z
 _atom_site_charge
 Gd 0.43666 0.76872 0.75975   2.111066
 Gd 0.25015 0.027 0.74868   2.246606
 Gd 0.93666 0.73128 0.24025   2.111067
 Gd 0.75015 0.473 0.25132   2.246606
 Gd 0.56334 0.23128 0.24025   2.111061
 Gd 0.74985 0.973 0.25132   2.2466
 Gd 0.06334 0.26872 0.75975   2.111061
 Gd 0.24985 0.527 0.74868   2.2466
 H 0.712 0.8105 0.4567   0.105018
 H 0.1411 0.866 0.0349   0.112837
 H 0.1171 0.7219 0.8393   0.15248
 H 0.9844 0.7622 0.8129   0.152818
 H 0.8234 0.8185 0.8854   0.121833
 H 0.6467 0.8826 0.5476   0.104704
 H 0.2024 0.8102 0.9385   0.118982
 H 0.2708 0.866 0.4938   0.097581
 H 0.4581 0.9882 0.596   0.165176
 H 0.3151 0.9483 0.5857   0.170706
 H 0.7647 0.8735 0.9823   0.097668
 H 0.3368 0.7913 0.4033   0.10786
 H 0.9022 0.9048 0.5714   0.099198
 H 0.0385 0.16 0.5226   0.093998
 H 0.85 0.05 0.6335   0.158832
 H 0.9131 0.1478 0.6161   0.160848
 H 0.5017 0.7128 0.3417   0.15862
 H 0.6415 0.6957 0.3705   0.156237
 H 0.9628 0.972 0.0901   0.151549
 H 0.8166 0.9414 0.0769   0.160045
 H 0.6984 0.9889 0.8763   0.147188
 H 0.6314 0.0897 0.8718   0.149557
 H 0.5833 0.146 0.9722   0.09017
 H 0.5011 0.8722 0.9311   0.119981
 H 0.212 0.6895 0.5433   0.105001
 H 0.6411 0.634 0.9651   0.11284
 H 0.6171 0.7781 0.1607   0.152473
 H 0.4844 0.7378 0.1871   0.152788
 H 0.3234 0.6815 0.1146   0.121832
 H 0.1467 0.6174 0.4524   0.104674
 H 0.7024 0.6898 0.0615   0.118969
 H 0.7708 0.634 0.5062   0.097532
 H 0.9581 0.5118 0.404   0.165171
 H 0.8151 0.5517 0.4143   0.170631
 H 0.2647 0.6265 0.0177   0.097659
 H 0.8368 0.7087 0.5967   0.107795
 H 0.4022 0.5952 0.4286   0.099079
 H 0.5385 0.34 0.4774   0.093999
 H 0.35 0.45 0.3665   0.158833
 H 0.4131 0.3522 0.3839   0.160848
 H 0.0017 0.7872 0.6583   0.158497
 H 0.1415 0.8043 0.6295   0.156122
 H 0.4628 0.528 0.9099   0.151548
 H 0.3166 0.5586 0.9231   0.160037
 H 0.1984 0.5111 0.1237   0.147188
 H 0.1314 0.4103 0.1282   0.149557
 H 0.0833 0.354 0.0278   0.090169
 H 0.0011 0.6278 0.0689   0.119984
 H 0.288 0.1895 0.5433   0.104862
 H 0.8589 0.134 0.9651   0.112695
 H 0.8829 0.2781 0.1607   0.152464
 H 0.0156 0.2378 0.1871   0.152762
 H 0.1766 0.1815 0.1146   0.121824
 H 0.3533 0.1174 0.4524   0.104727
 H 0.7976 0.1898 0.0615   0.118921
 H 0.7292 0.134 0.5062   0.097543
 H 0.5419 0.0118 0.404   0.165179
 H 0.6849 0.0517 0.4143   0.170706
 H 0.2353 0.1265 0.0177   0.09769
 H 0.6632 0.2087 0.5967   0.107711
 H 0.0978 0.0952 0.4286   0.099258
 H 0.9615 0.84 0.4774   0.093915
 H 0.15 0.95 0.3665   0.158794
 H 0.0869 0.8522 0.3839   0.160695
 H 0.4983 0.2872 0.6583   0.158619
 H 0.3585 0.3043 0.6295   0.156237
 H 0.0372 0.028 0.9099   0.151542
 H 0.1834 0.0586 0.9231   0.160041
 H 0.3016 0.0111 0.1237   0.147143
 H 0.3686 0.9103 0.1282   0.14947
 H 0.4167 0.854 0.0278   0.090086
 H 0.4989 0.1278 0.0689   0.120049
 H 0.788 0.3105 0.4567   0.104845
 H 0.3589 0.366 0.0349   0.112697
 H 0.3829 0.2219 0.8393   0.152457
 H 0.5156 0.2622 0.8129   0.152733
 H 0.6766 0.3185 0.8854   0.121822
 H 0.8533 0.3826 0.5476   0.104697
 H 0.2976 0.3102 0.9385   0.118908
 H 0.2292 0.366 0.4938   0.097495
 H 0.0419 0.4882 0.596   0.165174
 H 0.1849 0.4483 0.5857   0.170632
 H 0.7353 0.3735 0.9823   0.09768
 H 0.1632 0.2913 0.4033   0.107646
 H 0.5978 0.4048 0.5714   0.099138
 H 0.4615 0.66 0.5226   0.093917
 H 0.65 0.55 0.6335   0.158794
 H 0.5869 0.6478 0.6161   0.160695
 H 0.9983 0.2128 0.3417   0.158495
 H 0.8585 0.1957 0.3705   0.156122
 H 0.5372 0.472 0.0901   0.151542
 H 0.6834 0.4414 0.0769   0.160033
 H 0.8016 0.4889 0.8763   0.147143
 H 0.8686 0.5897 0.8718   0.14947
 H 0.9167 0.646 0.9722   0.090085
 H 0.9989 0.3722 0.9311   0.120051
 C 0.1376 0.8576 0.80745   0.78692
 C 0.4198 0.8721 0.64737   0.829334
 C 0.4511 0.8811 0.53128   0.112451
 C 0.5314 0.7924 0.4205   0.111886
 C 0.6224 0.8208 0.46405   -0.139748
 C 0.0769 0.857 0.00474   -0.122287
 C 0.0619 0.7785 0.83719   -0.390337
 C 0.02 0.8107 0.90116   0.106928
 C 0.8882 0.8286 0.91508   -0.153413
 C 0.5831 0.8643 0.51874   -0.122848
 C 0.9473 0.8768 0.01838   0.111608
 C 0.1141 0.8237 0.94674   -0.141468
 C 0.3602 0.8542 0.48694   -0.137565
 C 0.407 0.9299 0.59016   -0.420055
 C 0.8532 0.8615 0.97338   -0.126997
 C 0.3999 0.8097 0.43226   -0.142505
 C 0.636 0.8137 0.31798   0.797691
 C 0.9416 0.9434 0.54263   -0.130086
 C 0.9637 0.0394 0.55714   0.112755
 C 0.0376 0.0663 0.66606   0.818365
 C 0.0227 0.0956 0.51372   -0.131325
 C 0.9305 0.08 0.61929   -0.405056
 C 0.9115 0.8509 0.13291   0.817785
 C 0.5766 0.7443 0.36136   -0.398223
 C 0.9064 0.9176 0.08025   -0.412464
 C 0.5236 0.9834 0.82857   0.864122
 C 0.6145 0.0225 0.87839   -0.384787
 C 0.5538 0.0111 0.94125   0.103736
 C 0.5503 0.0868 0.98317   -0.128237
 C 0.5014 0.9239 0.95879   -0.134924
 C 0.6376 0.6424 0.19255   0.786898
 C 0.9198 0.6279 0.35263   0.829326
 C 0.9511 0.6189 0.46872   0.112442
 C 0.0314 0.7076 0.5795   0.111845
 C 0.1224 0.6792 0.53595   -0.139766
 C 0.5769 0.643 0.99526   -0.122326
 C 0.5619 0.7215 0.16281   -0.390336
 C 0.52 0.6893 0.09884   0.106925
 C 0.3882 0.6714 0.08492   -0.153409
 C 0.0831 0.6357 0.48126   -0.122845
 C 0.4473 0.6232 0.98162   0.111616
 C 0.6141 0.6763 0.05326   -0.141475
 C 0.8602 0.6458 0.51306   -0.137577
 C 0.907 0.5701 0.40984   -0.420024
 C 0.3532 0.6385 0.02662   -0.127021
 C 0.8999 0.6903 0.56774   -0.142492
 C 0.136 0.6863 0.68202   0.797644
 C 0.4416 0.5566 0.45737   -0.130078
 C 0.4637 0.4606 0.44286   0.112749
 C 0.5376 0.4337 0.33394   0.818364
 C 0.5227 0.4044 0.48628   -0.131332
 C 0.4305 0.42 0.38071   -0.405053
 C 0.4115 0.6491 0.86709   0.817785
 C 0.0766 0.7557 0.63864   -0.398145
 C 0.4064 0.5824 0.91975   -0.412462
 C 0.0236 0.5166 0.17143   0.864122
 C 0.1145 0.4775 0.12161   -0.384788
 C 0.0538 0.4889 0.05875   0.10374
 C 0.0503 0.4132 0.01683   -0.128233
 C 0.0014 0.5761 0.04121   -0.134957
 C 0.8624 0.1424 0.19255   0.786909
 C 0.5802 0.1279 0.35263   0.829339
 C 0.5489 0.1189 0.46872   0.112382
 C 0.4686 0.2076 0.5795   0.111828
 C 0.3776 0.1792 0.53595   -0.139754
 C 0.9231 0.143 0.99526   -0.122418
 C 0.9381 0.2215 0.16281   -0.390306
 C 0.98 0.1893 0.09884   0.106886
 C 0.1118 0.1714 0.08492   -0.153396
 C 0.4169 0.1357 0.48126   -0.12301
 C 0.0527 0.1232 0.98162   0.111558
 C 0.8859 0.1763 0.05326   -0.141544
 C 0.6398 0.1458 0.51306   -0.137652
 C 0.593 0.0701 0.40984   -0.420096
 C 0.1468 0.1385 0.02662   -0.127071
 C 0.6001 0.1903 0.56774   -0.142438
 C 0.364 0.1863 0.68202   0.797678
 C 0.0584 0.0566 0.45737   -0.130741
 C 0.0363 0.9606 0.44286   0.112917
 C 0.9624 0.9337 0.33394   0.818339
 C 0.9773 0.9044 0.48628   -0.13202
 C 0.0695 0.92 0.38071   -0.405001
 C 0.0885 0.1491 0.86709   0.817786
 C 0.4234 0.2557 0.63864   -0.398207
 C 0.0936 0.0824 0.91975   -0.412498
 C 0.4764 0.0166 0.17143   0.86412
 C 0.3855 0.9775 0.12161   -0.384757
 C 0.4462 0.9889 0.05875   0.104013
 C 0.4497 0.9132 0.01683   -0.129336
 C 0.4986 0.0761 0.04121   -0.135907
 C 0.3624 0.3576 0.80745   0.786887
 C 0.0802 0.3721 0.64737   0.829332
 C 0.0489 0.3811 0.53128   0.112373
 C 0.9686 0.2924 0.4205   0.11179
 C 0.8776 0.3208 0.46405   -0.139772
 C 0.4231 0.357 0.00474   -0.122452
 C 0.4381 0.2785 0.83719   -0.390305
 C 0.48 0.3107 0.90116   0.106883
 C 0.6118 0.3286 0.91508   -0.153391
 C 0.9169 0.3643 0.51874   -0.123007
 C 0.5527 0.3768 0.01838   0.111564
 C 0.3859 0.3237 0.94674   -0.141549
 C 0.1398 0.3542 0.48694   -0.137664
 C 0.093 0.4299 0.59016   -0.420065
 C 0.6468 0.3615 0.97338   -0.127095
 C 0.1001 0.3097 0.43226   -0.142425
 C 0.864 0.3137 0.31798   0.79763
 C 0.5584 0.4434 0.54263   -0.13073
 C 0.5363 0.5394 0.55714   0.11291
 C 0.4624 0.5663 0.66606   0.818338
 C 0.4773 0.5956 0.51372   -0.132027
 C 0.5695 0.58 0.61929   -0.404998
 C 0.5885 0.3509 0.13291   0.817786
 C 0.9234 0.2443 0.36136   -0.398129
 C 0.5936 0.4176 0.08025   -0.412496
 C 0.9764 0.4834 0.82857   0.864121
 C 0.8855 0.5225 0.87839   -0.384758
 C 0.9462 0.5111 0.94125   0.104015
 C 0.9497 0.5868 0.98317   -0.12933
 C 0.9986 0.4239 0.95879   -0.135931
 O 0.3653 0.90364 0.6965   -0.869764
 O 0.0742 0.92303 0.782   -0.684815
 O 0.831 0.86525 0.17645   -0.845633
 O 0.431 0.03584 0.81232   -0.751317
 O 0.0292 0.10936 0.71795   -0.848923
 O 0.1331 0.01343 0.6542   -0.676237
 O 0.9916 0.78388 0.13555   -0.668458
 O 0.4813 0.79604 0.64909   -0.675623
 O 0.5847 0.8945 0.31338   -0.669409
 O 0.2614 0.86121 0.80914   -0.791037
 O 0.5457 0.90134 0.80676   -0.763666
 O 0.7352 0.79292 0.28524   -0.815284
 O 0.8653 0.59636 0.3035   -0.869764
 O 0.5742 0.57697 0.218   -0.684813
 O 0.331 0.63475 0.82355   -0.845634
 O 0.931 0.46416 0.18768   -0.751317
 O 0.5292 0.39064 0.28205   -0.848924
 O 0.6331 0.48657 0.3458   -0.676236
 O 0.4916 0.71612 0.86445   -0.668462
 O 0.9813 0.70396 0.35091   -0.675622
 O 0.0847 0.6055 0.68662   -0.669405
 O 0.7614 0.63879 0.19086   -0.791034
 O 0.0457 0.59866 0.19324   -0.76367
 O 0.2352 0.70708 0.71476   -0.815278
 O 0.6347 0.09636 0.3035   -0.869766
 O 0.9258 0.07697 0.218   -0.684815
 O 0.169 0.13475 0.82355   -0.845616
 O 0.569 0.96416 0.18768   -0.751318
 O 0.9708 0.89064 0.28205   -0.848894
 O 0.8669 0.98657 0.3458   -0.676225
 O 0.0084 0.21612 0.86445   -0.668451
 O 0.5187 0.20396 0.35091   -0.675626
 O 0.4153 0.1055 0.68662   -0.669408
 O 0.7386 0.13879 0.19086   -0.791031
 O 0.4543 0.09866 0.19324   -0.763665
 O 0.2648 0.20708 0.71476   -0.815271
 O 0.1347 0.40364 0.6965   -0.869766
 O 0.4258 0.42303 0.782   -0.684813
 O 0.669 0.36525 0.17645   -0.845616
 O 0.069 0.53584 0.81232   -0.751318
 O 0.4708 0.60936 0.71795   -0.848895
 O 0.3669 0.51343 0.6542   -0.676224
 O 0.5084 0.28388 0.13555   -0.668455
 O 0.0187 0.29604 0.64909   -0.675625
 O 0.9153 0.3945 0.31338   -0.669404
 O 0.2386 0.36121 0.80914   -0.791028
 O 0.9543 0.40134 0.80676   -0.763669
 O 0.7648 0.29292 0.28524   -0.815266
