{'_ref': 'TBD', '_srcid': 'CAKYAQ_clean', 'submitters': [{'name': 'Dalar Nazarian Jeff Camp and David Sholl', 'email': 'dalar@gatech.edu jcamp6@gatech.edu'}], '_method': 'VASP DFT with PBE;DDEC'}
data_SmH2C7(NO3)2
_symmetry_space_group_name_H-M   'P 1'
_cell_length_a   7.98090000
_cell_length_b   9.74650016
_cell_length_c   15.92650000
_cell_angle_alpha   90.00000000
_cell_angle_beta   90.00000000
_cell_angle_gamma   96.21590235
_symmetry_Int_Tables_number   1
_chemical_formula_structural   SmH2C7(NO3)2
_chemical_formula_sum   'Sm4 H8 C28 N8 O24'
_cell_volume   1231.57293306
_cell_formula_units_Z   4
loop_
 _symmetry_equiv_pos_site_id
 _symmetry_equiv_pos_as_xyz
  1  'x, y, z'
loop_
 _atom_site_label
 _atom_site_fract_x
 _atom_site_fract_y
 _atom_site_fract_z
 _atom_site_charge
 Sm 0.91981 0.1351 0.32673   2.156559
 Sm 0.58019 0.3649 0.82673   2.156558
 Sm 0.08019 0.8649 0.67327   2.156558
 Sm 0.41981 0.6351 0.17327   2.156557
 H 0.9686 0.68496 0.38791   0.168865
 H 0.61737 0.34707 0.25147   0.044104
 H 0.5314 0.81504 0.88791   0.168865
 H 0.88263 0.15293 0.75147   0.044104
 H 0.0314 0.31504 0.61209   0.168865
 H 0.38263 0.65293 0.74853   0.044105
 H 0.4686 0.18496 0.11209   0.168865
 H 0.11737 0.84707 0.24853   0.044105
 C 0.9135 0.4763 0.3683   0.277529
 C 0.7427 0.7963 0.2851   0.70826
 C 0.8951 0.6156 0.3591   -0.171356
 C 0.7683 0.6488 0.3068   0.202029
 C 0.0567 0.4253 0.4183   0.602282
 C 0.6889 0.4205 0.2812   0.475247
 C 0.9106 0.0092 0.5159   0.596428
 C 0.5865 0.0237 0.8683   0.277529
 C 0.7573 0.7037 0.7851   0.70826
 C 0.6049 0.8844 0.8591   -0.171356
 C 0.7317 0.8512 0.8068   0.202029
 C 0.4433 0.0747 0.9183   0.602282
 C 0.8111 0.0795 0.7812   0.475247
 C 0.5894 0.4908 0.0159   0.596428
 C 0.0865 0.5237 0.6317   0.277529
 C 0.2573 0.2037 0.7149   0.70826
 C 0.1049 0.3844 0.6409   -0.171357
 C 0.2317 0.3512 0.6932   0.202029
 C 0.9433 0.5747 0.5817   0.602282
 C 0.3111 0.5795 0.7188   0.475247
 C 0.0894 0.9908 0.4841   0.596427
 C 0.4135 0.9763 0.1317   0.277529
 C 0.2427 0.2963 0.2149   0.70826
 C 0.3951 0.1156 0.1409   -0.171357
 C 0.2683 0.1488 0.1932   0.202029
 C 0.5567 0.9253 0.0817   0.602282
 C 0.1889 0.9205 0.2188   0.475247
 C 0.4106 0.5092 0.9841   0.596427
 N 0.8105 0.379 0.3294   -0.576586
 N 0.6625 0.5515 0.2684   -0.529594
 N 0.6895 0.121 0.8294   -0.576586
 N 0.8375 0.9485 0.7684   -0.529594
 N 0.1895 0.621 0.6706   -0.576586
 N 0.3375 0.4485 0.7316   -0.529594
 N 0.3105 0.879 0.1706   -0.576586
 N 0.1625 0.0515 0.2316   -0.529594
 O 0.0491 0.2964 0.42855   -0.676823
 O 0.85 0.8889 0.31136   -0.720653
 O 0.8122 0.0565 0.46447   -0.65962
 O 0.6176 0.8134 0.24057   -0.703236
 O 0.8752 0.9753 0.59008   -0.623732
 O 0.1711 0.5128 0.44246   -0.5697
 O 0.4509 0.2036 0.92855   -0.676823
 O 0.65 0.6111 0.81136   -0.720653
 O 0.6878 0.4435 0.96447   -0.65962
 O 0.8824 0.6866 0.74057   -0.703236
 O 0.6248 0.5247 0.09008   -0.623732
 O 0.3289 0.9872 0.94246   -0.5697
 O 0.9509 0.7036 0.57145   -0.676823
 O 0.15 0.1111 0.68864   -0.720653
 O 0.1878 0.9435 0.53553   -0.65962
 O 0.3824 0.1866 0.75943   -0.703236
 O 0.1248 0.0247 0.40992   -0.623732
 O 0.8289 0.4872 0.55754   -0.569701
 O 0.5491 0.7964 0.07145   -0.676823
 O 0.35 0.3889 0.18864   -0.720653
 O 0.3122 0.5565 0.03553   -0.65962
 O 0.1176 0.3134 0.25943   -0.703236
 O 0.3752 0.4753 0.90992   -0.623732
 O 0.6711 0.0128 0.05754   -0.569701
