{'_ref': 'TBD', '_srcid': 'CAKYAQ_clean', 'submitters': [{'name': 'Dalar Nazarian Jeff Camp and David Sholl', 'email': 'dalar@gatech.edu jcamp6@gatech.edu'}], '_method': 'VASP DFT with PBE;DDEC'}
data_ErH2C7(NO3)2
_symmetry_space_group_name_H-M   'P 1'
_cell_length_a   7.92300000
_cell_length_b   9.59259979
_cell_length_c   15.79380000
_cell_angle_alpha   90.00000000
_cell_angle_beta   90.00000000
_cell_angle_gamma   96.75900266
_symmetry_Int_Tables_number   1
_chemical_formula_structural   ErH2C7(NO3)2
_chemical_formula_sum   'Er4 H8 C28 N8 O24'
_cell_volume   1192.02049225
_cell_formula_units_Z   4
loop_
 _symmetry_equiv_pos_site_id
 _symmetry_equiv_pos_as_xyz
  1  'x, y, z'
loop_
 _atom_site_label
 _atom_site_fract_x
 _atom_site_fract_y
 _atom_site_fract_z
 _atom_site_charge
 Er 0.92817 0.13278 0.3274   1.396695
 Er 0.57183 0.36722 0.8274   1.396693
 Er 0.07183 0.86722 0.6726   1.396692
 Er 0.42817 0.63278 0.1726   1.396691
 H 0.9686 0.68496 0.38791   0.152243
 H 0.61737 0.34707 0.25147   0.04654
 H 0.5314 0.81504 0.88791   0.152243
 H 0.88263 0.15293 0.75147   0.04654
 H 0.0314 0.31504 0.61209   0.152243
 H 0.38263 0.65293 0.74853   0.046541
 H 0.4686 0.18496 0.11209   0.152243
 H 0.11737 0.84707 0.24853   0.046541
 C 0.9187 0.4726 0.3678   0.219653
 C 0.7494 0.7963 0.2826   0.647346
 C 0.8999 0.6142 0.3591   -0.172908
 C 0.7744 0.6469 0.3049   0.177775
 C 0.0601 0.422 0.4193   0.564439
 C 0.697 0.415 0.2774   0.424978
 C 0.9088 0.0099 0.5149   0.546667
 C 0.5813 0.0274 0.8678   0.219653
 C 0.7506 0.7037 0.7826   0.647346
 C 0.6001 0.8858 0.8591   -0.172908
 C 0.7256 0.8531 0.8049   0.177775
 C 0.4399 0.078 0.9193   0.564439
 C 0.803 0.085 0.7774   0.424978
 C 0.5912 0.4901 0.0149   0.546667
 C 0.0813 0.5274 0.6322   0.219653
 C 0.2506 0.2037 0.7174   0.647347
 C 0.1001 0.3858 0.6409   -0.172908
 C 0.2256 0.3531 0.6951   0.177775
 C 0.9399 0.578 0.5807   0.564439
 C 0.303 0.585 0.7226   0.424978
 C 0.0912 0.9901 0.4851   0.546662
 C 0.4187 0.9726 0.1322   0.219653
 C 0.2494 0.2963 0.2174   0.647346
 C 0.3999 0.1142 0.1409   -0.172908
 C 0.2744 0.1469 0.1951   0.177775
 C 0.5601 0.922 0.0807   0.564439
 C 0.197 0.915 0.2226   0.424978
 C 0.4088 0.5099 0.9851   0.546662
 N 0.8173 0.3736 0.3267   -0.450591
 N 0.6696 0.5479 0.2645   -0.421918
 N 0.6827 0.1264 0.8267   -0.450591
 N 0.8304 0.9521 0.7645   -0.421918
 N 0.1827 0.6264 0.6733   -0.450591
 N 0.3304 0.4521 0.7355   -0.421918
 N 0.3173 0.8736 0.1733   -0.450591
 N 0.1696 0.0479 0.2355   -0.421918
 O 0.0527 0.2901 0.4295   -0.543697
 O 0.8551 0.8912 0.3104   -0.628977
 O 0.8133 0.0565 0.4623   -0.470966
 O 0.6242 0.8128 0.2367   -0.61757
 O 0.8722 0.9776 0.5901   -0.463483
 O 0.1753 0.5108 0.4445   -0.406222
 O 0.4473 0.2099 0.9295   -0.543697
 O 0.6449 0.6088 0.8104   -0.628976
 O 0.6867 0.4435 0.9623   -0.470966
 O 0.8758 0.6872 0.7367   -0.61757
 O 0.6278 0.5224 0.0901   -0.463483
 O 0.3247 0.9892 0.9445   -0.406222
 O 0.9473 0.7099 0.5705   -0.543697
 O 0.1449 0.1088 0.6896   -0.628976
 O 0.1867 0.9435 0.5377   -0.470965
 O 0.3758 0.1872 0.7633   -0.617571
 O 0.1278 0.0224 0.4099   -0.463483
 O 0.8247 0.4892 0.5555   -0.406223
 O 0.5527 0.7901 0.0705   -0.543697
 O 0.3551 0.3912 0.1896   -0.628976
 O 0.3133 0.5565 0.0377   -0.470965
 O 0.1242 0.3128 0.2633   -0.617571
 O 0.3722 0.4776 0.9099   -0.463483
 O 0.6753 0.0108 0.0555   -0.406223
