{'_ref': 'TBD', '_srcid': 'CAKYAQ_clean', 'submitters': [{'name': 'Dalar Nazarian Jeff Camp and David Sholl', 'email': 'dalar@gatech.edu jcamp6@gatech.edu'}], '_method': 'VASP DFT with PBE;DDEC'}
data_Ca3Si2H34(C7O2)8
_symmetry_space_group_name_H-M   'P 1'
_cell_length_a   13.66910000
_cell_length_b   14.56900000
_cell_length_c   23.68740000
_cell_angle_alpha   90.00000000
_cell_angle_beta   90.00000000
_cell_angle_gamma   114.93899861
_symmetry_Int_Tables_number   1
_chemical_formula_structural   Ca3Si2H34(C7O2)8
_chemical_formula_sum   'Ca6 Si4 H68 C112 O32'
_cell_volume   4277.38244053
_cell_formula_units_Z   2
loop_
 _symmetry_equiv_pos_site_id
 _symmetry_equiv_pos_as_xyz
  1  'x, y, z'
loop_
 _atom_site_label
 _atom_site_fract_x
 _atom_site_fract_y
 _atom_site_fract_z
 _atom_site_charge
 Ca 0.01577 0.00132 0.65686   1.556759
 Ca 0.98423 0.49868 0.15686   1.556759
 Ca 0.98423 0.99868 0.34314   1.556761
 Ca 0.01577 0.50132 0.84314   1.556761
 Ca 0.0 0.0 0.5   1.599065
 Ca 0.0 0.5 0.0   1.599065
 Si 0.70684 0.37959 0.50911   0.877253
 Si 0.29316 0.12041 0.00911   0.877253
 Si 0.29316 0.62041 0.49089   0.877253
 Si 0.70684 0.87959 0.99089   0.877253
 H 0.874 0.4174 0.5997   0.082322
 H 0.9676 0.3276 0.6346   0.100045
 H 0.8191 0.1063 0.5197   0.109927
 H 0.7261 0.196 0.4851   0.085575
 H 0.5891 0.2075 0.5836   0.081346
 H 0.4099 0.114 0.6103   0.10958
 H 0.3193 0.2871 0.5077   0.09477
 H 0.4994 0.3885 0.4876   0.078724
 H 0.8879 0.5713 0.4802   0.063661
 H 0.9598 0.7367 0.5131   0.087063
 H 0.7182 0.6604 0.6269   0.110918
 H 0.6459 0.4943 0.5934   0.083663
 H 0.5642 0.3199 0.4058   0.086556
 H 0.5953 0.3269 0.3084   0.114605
 H 0.9167 0.437 0.3372   0.1039
 H 0.8853 0.4261 0.4339   0.082076
 H 0.729 0.377 0.1824   0.402279
 H 0.126 0.0826 0.0997   0.082322
 H 0.0324 0.1724 0.1346   0.100045
 H 0.1809 0.3937 0.0197   0.109927
 H 0.2739 0.304 0.9851   0.085575
 H 0.4109 0.2925 0.0836   0.081345
 H 0.5901 0.386 0.1103   0.109577
 H 0.6807 0.2129 0.0077   0.09477
 H 0.5006 0.1115 0.9876   0.078724
 H 0.1121 0.9287 0.9802   0.063661
 H 0.0402 0.7633 0.0131   0.087063
 H 0.2818 0.8396 0.1269   0.110917
 H 0.3541 0.0057 0.0934   0.08366
 H 0.4358 0.1801 0.9058   0.086556
 H 0.4047 0.1731 0.8084   0.114598
 H 0.0833 0.063 0.8372   0.1039
 H 0.1147 0.0739 0.9339   0.082076
 H 0.271 0.123 0.6824   0.402279
 H 0.126 0.5826 0.4003   0.082323
 H 0.0324 0.6724 0.3654   0.100045
 H 0.1809 0.8937 0.4803   0.109927
 H 0.2739 0.804 0.5149   0.085576
 H 0.4109 0.7925 0.4164   0.081345
 H 0.5901 0.886 0.3897   0.109581
 H 0.6807 0.7129 0.4923   0.09477
 H 0.5006 0.6115 0.5124   0.078725
 H 0.1121 0.4287 0.5198   0.063661
 H 0.0402 0.2633 0.4869   0.087063
 H 0.2818 0.3396 0.3731   0.110912
 H 0.3541 0.5057 0.4066   0.083663
 H 0.4358 0.6801 0.5942   0.086556
 H 0.4047 0.6731 0.6916   0.1146
 H 0.0833 0.563 0.6628   0.1039
 H 0.1147 0.5739 0.5661   0.082075
 H 0.271 0.623 0.8176   0.402279
 H 0.874 0.9174 0.9003   0.082323
 H 0.9676 0.8276 0.8654   0.100045
 H 0.8191 0.6063 0.9803   0.109927
 H 0.7261 0.696 0.0149   0.085576
 H 0.5891 0.7075 0.9164   0.081344
 H 0.4099 0.614 0.8897   0.109578
 H 0.3193 0.7871 0.9923   0.09477
 H 0.4994 0.8885 0.0124   0.078725
 H 0.8879 0.0713 0.0198   0.063661
 H 0.9598 0.2367 0.9869   0.087063
 H 0.7182 0.1604 0.8731   0.110911
 H 0.6459 0.9943 0.9066   0.08366
 H 0.5642 0.8199 0.0942   0.086556
 H 0.5953 0.8269 0.1916   0.114593
 H 0.9167 0.937 0.1628   0.1039
 H 0.8853 0.9261 0.0661   0.082076
 H 0.729 0.877 0.3176   0.402279
 C 0.78938 0.31632 0.5389   -0.348345
 C 0.8622 0.35405 0.58338   -0.017649
 C 0.918 0.30055 0.60433   -0.067941
 C 0.90125 0.20763 0.58109   -0.110864
 C 0.83 0.1693 0.53626   -0.062769
 C 0.77488 0.22299 0.51569   -0.009995
 C 0.95848 0.14699 0.60336   0.711841
 C 0.56374 0.30735 0.53164   -0.364158
 C 0.53458 0.22471 0.56864   0.000138
 C 0.42751 0.16756 0.5838   -0.09596
 C 0.34662 0.1888 0.56021   -0.105791
 C 0.3742 0.27147 0.52376   -0.071906
 C 0.48148 0.33065 0.51101   -0.004251
 C 0.23049 0.12182 0.57081   0.764221
 C 0.75982 0.51416 0.53358   -0.357725
 C 0.85299 0.58866 0.51026   0.00321
 C 0.89603 0.68752 0.52981   -0.05181
 C 0.84677 0.71492 0.5734   -0.114294
 C 0.75311 0.64238 0.59706   -0.068911
 C 0.71026 0.54314 0.57707   -0.01221
 C 0.8955 0.82153 0.59516   0.711876
 C 0.7213 0.37556 0.43041   -0.321492
 C 0.63611 0.3443 0.39211   -0.005763
 C 0.65431 0.34815 0.33399   -0.054753
 C 0.75899 0.38317 0.31374   -0.164855
 C 0.84501 0.41295 0.35112   -0.048792
 C 0.82617 0.40764 0.40858   -0.009215
 C 0.78519 0.3919 0.25247   0.715239
 C 0.21062 0.18368 0.0389   -0.348345
 C 0.1378 0.14595 0.08338   -0.017649
 C 0.082 0.19945 0.10433   -0.067941
 C 0.09875 0.29237 0.08109   -0.110864
 C 0.17 0.3307 0.03626   -0.062769
 C 0.22512 0.27701 0.01569   -0.009995
 C 0.04152 0.35301 0.10336   0.711841
 C 0.43626 0.19265 0.03164   -0.364158
 C 0.46542 0.27529 0.06864   0.000138
 C 0.57249 0.33244 0.0838   -0.095959
 C 0.65338 0.3112 0.06021   -0.105792
 C 0.6258 0.22853 0.02376   -0.071906
 C 0.51852 0.16935 0.01101   -0.004251
 C 0.76951 0.37818 0.07081   0.764221
 C 0.24018 0.98584 0.03358   -0.357725
 C 0.14701 0.91134 0.01026   0.00321
 C 0.10397 0.81248 0.02981   -0.05181
 C 0.15323 0.78508 0.0734   -0.114294
 C 0.24689 0.85762 0.09706   -0.068911
 C 0.28974 0.95686 0.07707   -0.012209
 C 0.1045 0.67847 0.09516   0.711876
 C 0.2787 0.12444 0.93041   -0.321492
 C 0.36389 0.1557 0.89211   -0.005764
 C 0.34569 0.15185 0.83399   -0.05475
 C 0.24101 0.11683 0.81374   -0.164856
 C 0.15499 0.08705 0.85112   -0.048792
 C 0.17383 0.09236 0.90858   -0.009215
 C 0.21481 0.1081 0.75247   0.71524
 C 0.21062 0.68368 0.4611   -0.348345
 C 0.1378 0.64595 0.41662   -0.017649
 C 0.082 0.69945 0.39567   -0.067942
 C 0.09875 0.79237 0.41891   -0.110864
 C 0.17 0.8307 0.46374   -0.062769
 C 0.22512 0.77701 0.48431   -0.009995
 C 0.04152 0.85301 0.39664   0.71184
 C 0.43626 0.69265 0.46836   -0.364158
 C 0.46542 0.77529 0.43136   0.000139
 C 0.57249 0.83244 0.4162   -0.09596
 C 0.65338 0.8112 0.43979   -0.105791
 C 0.6258 0.72853 0.47624   -0.071903
 C 0.51852 0.66935 0.48899   -0.004251
 C 0.76951 0.87818 0.42919   0.764221
 C 0.24018 0.48584 0.46642   -0.357725
 C 0.14701 0.41134 0.48974   0.003211
 C 0.10397 0.31248 0.47019   -0.05181
 C 0.15323 0.28508 0.4266   -0.114295
 C 0.24689 0.35762 0.40294   -0.068909
 C 0.28974 0.45686 0.42293   -0.012211
 C 0.1045 0.17847 0.40484   0.711876
 C 0.2787 0.62444 0.56959   -0.321493
 C 0.36389 0.6557 0.60789   -0.005762
 C 0.34569 0.65185 0.66601   -0.054751
 C 0.24101 0.61683 0.68626   -0.164855
 C 0.15499 0.58705 0.64888   -0.048792
 C 0.17383 0.59236 0.59142   -0.009215
 C 0.21481 0.6081 0.74753   0.715239
 C 0.78938 0.81632 0.9611   -0.348345
 C 0.8622 0.85405 0.91662   -0.017649
 C 0.918 0.80055 0.89567   -0.067942
 C 0.90125 0.70763 0.91891   -0.110864
 C 0.83 0.6693 0.96374   -0.062769
 C 0.77488 0.72299 0.98431   -0.009995
 C 0.95848 0.64699 0.89664   0.71184
 C 0.56374 0.80735 0.96836   -0.364158
 C 0.53458 0.72471 0.93136   0.000139
 C 0.42751 0.66756 0.9162   -0.095959
 C 0.34662 0.6888 0.93979   -0.105792
 C 0.3742 0.77147 0.97624   -0.071903
 C 0.48148 0.83065 0.98899   -0.004251
 C 0.23049 0.62182 0.92919   0.764221
 C 0.75982 0.01416 0.96642   -0.357725
 C 0.85299 0.08866 0.98974   0.003211
 C 0.89603 0.18752 0.97019   -0.05181
 C 0.84677 0.21492 0.9266   -0.114294
 C 0.75311 0.14238 0.90294   -0.068909
 C 0.71026 0.04314 0.92293   -0.01221
 C 0.8955 0.32153 0.90484   0.711876
 C 0.7213 0.87556 0.06959   -0.321492
 C 0.63611 0.8443 0.10789   -0.005763
 C 0.65431 0.84815 0.16601   -0.054749
 C 0.75899 0.88317 0.18626   -0.164856
 C 0.84501 0.91295 0.14888   -0.048792
 C 0.82617 0.90764 0.09142   -0.009215
 C 0.78519 0.8919 0.24753   0.715239
 O 0.01316 0.1729 0.64744   -0.662086
 O 0.94679 0.06745 0.57669   -0.807694
 O 0.169 0.10199 0.52915   -0.699388
 O 0.19985 0.08789 0.62017   -0.748693
 O 0.85183 0.84496 0.63586   -0.685199
 O 0.98213 0.88459 0.57228   -0.792389
 O 0.87741 0.41743 0.23617   -0.636522
 O 0.70335 0.37141 0.21792   -0.515651
 O 0.98684 0.3271 0.14744   -0.662086
 O 0.05321 0.43255 0.07669   -0.807694
 O 0.831 0.39801 0.02915   -0.699388
 O 0.80015 0.41211 0.12017   -0.748693
 O 0.14817 0.65504 0.13586   -0.685199
 O 0.01787 0.61541 0.07228   -0.792389
 O 0.12259 0.08257 0.73617   -0.636522
 O 0.29665 0.12859 0.71792   -0.515651
 O 0.98684 0.8271 0.35256   -0.662086
 O 0.05321 0.93255 0.42331   -0.807694
 O 0.831 0.89801 0.47085   -0.699388
 O 0.80015 0.91211 0.37983   -0.748693
 O 0.14817 0.15504 0.36414   -0.685199
 O 0.01787 0.11541 0.42772   -0.792389
 O 0.12259 0.58257 0.76383   -0.636522
 O 0.29665 0.62859 0.78208   -0.515651
 O 0.01316 0.6729 0.85256   -0.662086
 O 0.94679 0.56745 0.92331   -0.807694
 O 0.169 0.60199 0.97085   -0.699388
 O 0.19985 0.58789 0.87983   -0.748693
 O 0.85183 0.34496 0.86414   -0.685199
 O 0.98213 0.38459 0.92772   -0.792389
 O 0.87741 0.91743 0.26383   -0.636522
 O 0.70335 0.87141 0.28208   -0.515651
