{'_ref': 'TBD', '_srcid': 'CAKYAQ_clean', 'submitters': [{'name': 'Dalar Nazarian Jeff Camp and David Sholl', 'email': 'dalar@gatech.edu jcamp6@gatech.edu'}], '_method': 'VASP DFT with PBE;DDEC'}
data_Mg3Si2H32(C7O2)8
_symmetry_space_group_name_H-M   'P 1'
_cell_length_a   12.72789954
_cell_length_b   14.53309989
_cell_length_c   23.28120000
_cell_angle_alpha   99.81500077
_cell_angle_beta   92.60099788
_cell_angle_gamma   97.07099934
_symmetry_Int_Tables_number   1
_chemical_formula_structural   Mg3Si2H32(C7O2)8
_chemical_formula_sum   'Mg6 Si4 H64 C112 O32'
_cell_volume   4201.44388781
_cell_formula_units_Z   2
loop_
 _symmetry_equiv_pos_site_id
 _symmetry_equiv_pos_as_xyz
  1  'x, y, z'
loop_
 _atom_site_label
 _atom_site_fract_x
 _atom_site_fract_y
 _atom_site_fract_z
 _atom_site_charge
 Mg 0.49549 0.69808 0.60862   1.524786
 Mg 0.94134 0.31208 0.07448   1.579556
 Mg 0.50451 0.30192 0.39138   1.524786
 Mg 0.05866 0.68792 0.92552   1.579556
 Mg 0.5 0.5 0.5   1.555234
 Mg 0.0 0.5 0.0   1.567774
 Si 0.97304 0.77608 0.36669   0.870584
 Si 0.60107 0.7548 0.18747   0.885986
 Si 0.02696 0.22392 0.63331   0.870584
 Si 0.39893 0.2452 0.81253   0.885986
 H 0.8667 0.622 0.412   0.088438
 H 0.7293 0.5936 0.4739   0.117248
 H 0.6663 0.8621 0.476   0.119577
 H 0.803 0.8862 0.4153   0.080965
 H 0.8352 0.6083 0.3062   0.067243
 H 0.8306 0.5043 0.2204   0.10512
 H 0.0602 0.6786 0.1646   0.105148
 H 0.0705 0.7801 0.2545   0.086892
 H 0.1614 0.679 0.3402   0.078487
 H 0.2876 0.6202 0.3929   0.109121
 H 0.1663 0.7308 0.5425   0.110529
 H 0.032 0.7772 0.4894   0.078471
 H 0.935 0.9009 0.2825   0.076154
 H 0.9733 0.0624 0.282   0.107519
 H 0.1217 0.1002 0.4436   0.092582
 H 0.0833 0.9387 0.4441   0.087471
 H 0.5352 0.7672 0.307   0.07927
 H 0.5185 0.6714 0.3756   0.104087
 H 0.6105 0.4623 0.2622   0.107068
 H 0.6306 0.5581 0.1937   0.072928
 H 0.6623 0.6049 0.1046   0.086229
 H 0.7919 0.5853 0.037   0.113814
 H 0.9222 0.8552 0.0924   0.114285
 H 0.7955 0.8721 0.1634   0.078744
 H 0.3917 0.641 0.1831   0.084228
 H 0.2505 0.5932 0.1136   0.102415
 H 0.3786 0.7638 0.0132   0.097575
 H 0.5285 0.8038 0.0774   0.082929
 H 0.7384 0.8653 0.2844   0.073822
 H 0.7485 0.0082 0.3436   0.097674
 H 0.5032 0.071 0.2491   0.11212
 H 0.4926 0.9274 0.1879   0.084232
 H 0.1333 0.378 0.588   0.088438
 H 0.2707 0.4064 0.5261   0.117248
 H 0.3337 0.1379 0.524   0.119578
 H 0.197 0.1138 0.5847   0.080965
 H 0.1648 0.3917 0.6938   0.067243
 H 0.1694 0.4957 0.7796   0.10512
 H 0.9398 0.3214 0.8354   0.105148
 H 0.9295 0.2199 0.7455   0.086892
 H 0.8386 0.321 0.6598   0.078487
 H 0.7124 0.3798 0.6071   0.109121
 H 0.8337 0.2692 0.4575   0.110529
 H 0.968 0.2228 0.5106   0.078471
 H 0.065 0.0991 0.7175   0.076154
 H 0.0267 0.9376 0.718   0.107519
 H 0.8783 0.8998 0.5564   0.092581
 H 0.9167 0.0613 0.5559   0.087471
 H 0.4648 0.2328 0.693   0.07927
 H 0.4815 0.3286 0.6244   0.104087
 H 0.3895 0.5377 0.7378   0.107068
 H 0.3694 0.4419 0.8063   0.072928
 H 0.3377 0.3951 0.8954   0.086229
 H 0.2081 0.4147 0.963   0.113814
 H 0.0778 0.1448 0.9076   0.114285
 H 0.2045 0.1279 0.8366   0.078744
 H 0.6083 0.359 0.8169   0.084228
 H 0.7495 0.4068 0.8864   0.102415
 H 0.6214 0.2362 0.9868   0.097574
 H 0.4715 0.1962 0.9226   0.082929
 H 0.2616 0.1347 0.7156   0.073822
 H 0.2515 0.9918 0.6564   0.097674
 H 0.4968 0.929 0.7509   0.11212
 H 0.5074 0.0726 0.8121   0.084232
 C 0.8524 0.7564 0.4093   -0.345323
 C 0.827 0.6715 0.4259   -0.003826
 C 0.7452 0.6533 0.4625   -0.023769
 C 0.6872 0.7297 0.4818   -0.098901
 C 0.7078 0.8131 0.4639   -0.068357
 C 0.7893 0.8272 0.4278   -0.001088
 C 0.605 0.7141 0.5257   0.715909
 C 0.9561 0.7035 0.292   -0.344781
 C 0.8843 0.6219 0.2782   0.0098
 C 0.8801 0.5602 0.2268   -0.059778
 C 0.9466 0.5781 0.1841   -0.131249
 C 0.0163 0.6628 0.1943   -0.063577
 C 0.0216 0.7238 0.2479   -0.018727
 C 0.9493 0.5099 0.1295   0.779014
 C 0.0821 0.7355 0.4082   -0.33705
 C 0.1603 0.6881 0.3815   -0.000418
 C 0.2367 0.6537 0.413   -0.076544
 C 0.24 0.6675 0.4745   -0.09355
 C 0.1641 0.7171 0.5011   -0.054629
 C 0.0855 0.7473 0.4693   -0.000252
 C 0.3244 0.6349 0.5079   0.721072
 C 0.0055 0.9046 0.3633   -0.348015
 C 0.9729 0.9414 0.3152   -0.005463
 C 0.9957 0.0373 0.3149   -0.066163
 C 0.0511 0.0965 0.3627   -0.114748
 C 0.0838 0.0597 0.4109   -0.053184
 C 0.061 0.9638 0.4112   -0.003725
 C 0.0772 0.1978 0.3604   0.580475
 C 0.5895 0.6761 0.2422   -0.351623
 C 0.5529 0.7051 0.2976   -0.007024
 C 0.5418 0.6482 0.3383   -0.056598
 C 0.5641 0.5572 0.3255   -0.129364
 C 0.5962 0.5255 0.2717   -0.061489
 C 0.6084 0.5829 0.231   0.002258
 C 0.5465 0.4929 0.3683   0.759871
 C 0.7146 0.7415 0.1404   -0.348383
 C 0.7152 0.6563 0.1025   -0.004721
 C 0.7914 0.6445 0.0617   -0.068019
 C 0.8673 0.7209 0.0576   -0.094784
 C 0.8694 0.8039 0.0947   -0.070216
 C 0.7927 0.8141 0.137   -0.005968
 C 0.9427 0.7067 0.0086   0.721314
 C 0.4775 0.7259 0.1364   -0.351569
 C 0.3921 0.6646 0.1475   -0.018131
 C 0.3071 0.6378 0.1063   -0.067489
 C 0.3015 0.6729 0.0558   -0.109843
 C 0.3821 0.7357 0.0471   -0.065225
 C 0.4712 0.7611 0.0861   -0.008331
 C 0.206 0.6412 0.0128   0.773411
 C 0.6144 0.8786 0.2288   -0.348065
 C 0.6896 0.9071 0.2769   0.000617
 C 0.695 0.9905 0.3125   -0.069043
 C 0.624 0.0491 0.3037   -0.112341
 C 0.5498 0.0273 0.2562   -0.067674
 C 0.5445 0.943 0.2199   -0.00472
 C 0.6218 0.1394 0.3461   0.664775
 C 0.1476 0.2436 0.5907   -0.345323
 C 0.173 0.3285 0.5741   -0.003826
 C 0.2548 0.3467 0.5375   -0.023769
 C 0.3128 0.2703 0.5182   -0.098901
 C 0.2922 0.1869 0.5361   -0.068357
 C 0.2107 0.1728 0.5722   -0.001088
 C 0.395 0.2859 0.4743   0.715909
 C 0.0439 0.2965 0.708   -0.344781
 C 0.1157 0.3781 0.7218   0.0098
 C 0.1199 0.4398 0.7732   -0.059778
 C 0.0534 0.4219 0.8159   -0.131249
 C 0.9837 0.3372 0.8057   -0.063577
 C 0.9784 0.2762 0.7521   -0.018727
 C 0.0507 0.4901 0.8705   0.779014
 C 0.9179 0.2645 0.5918   -0.33705
 C 0.8397 0.3119 0.6185   -0.000418
 C 0.7633 0.3463 0.587   -0.076544
 C 0.76 0.3325 0.5255   -0.09355
 C 0.8359 0.2829 0.4989   -0.054629
 C 0.9145 0.2527 0.5307   -0.000252
 C 0.6756 0.3651 0.4921   0.721072
 C 0.9945 0.0954 0.6367   -0.348015
 C 0.0271 0.0586 0.6848   -0.005463
 C 0.0043 0.9627 0.6851   -0.066163
 C 0.9489 0.9035 0.6373   -0.114749
 C 0.9162 0.9403 0.5891   -0.053184
 C 0.939 0.0362 0.5888   -0.003725
 C 0.9228 0.8022 0.6396   0.580475
 C 0.4105 0.3239 0.7578   -0.351623
 C 0.4471 0.2949 0.7024   -0.007024
 C 0.4582 0.3518 0.6617   -0.056598
 C 0.4359 0.4428 0.6745   -0.129364
 C 0.4038 0.4745 0.7283   -0.061489
 C 0.3916 0.4171 0.769   0.002258
 C 0.4535 0.5071 0.6317   0.759871
 C 0.2854 0.2585 0.8596   -0.348383
 C 0.2848 0.3437 0.8975   -0.004721
 C 0.2086 0.3555 0.9383   -0.068019
 C 0.1327 0.2791 0.9424   -0.094784
 C 0.1306 0.1961 0.9053   -0.070216
 C 0.2073 0.1859 0.863   -0.005968
 C 0.0573 0.2933 0.9914   0.721314
 C 0.5225 0.2741 0.8636   -0.351569
 C 0.6079 0.3354 0.8525   -0.018131
 C 0.6929 0.3622 0.8937   -0.067489
 C 0.6985 0.3271 0.9442   -0.109843
 C 0.6179 0.2643 0.9529   -0.065225
 C 0.5288 0.2389 0.9139   -0.008331
 C 0.794 0.3588 0.9872   0.773411
 C 0.3856 0.1214 0.7712   -0.348065
 C 0.3104 0.0929 0.7231   0.000617
 C 0.305 0.0095 0.6875   -0.069043
 C 0.376 0.9509 0.6963   -0.112341
 C 0.4502 0.9727 0.7438   -0.067674
 C 0.4555 0.057 0.7801   -0.00472
 C 0.3782 0.8606 0.6539   0.664775
 O 0.5771 0.6338 0.53749   -0.825679
 O 0.57 0.7845 0.55282   -0.661256
 O 0.9115 0.4258 0.12879   -0.804419
 O 0.9913 0.5405 0.08702   -0.709987
 O 0.357 0.5603 0.48828   -0.600937
 O 0.3572 0.6867 0.55603   -0.578164
 O 0.0547 0.2295 0.3169   -0.4151
 O 0.1315 0.251 0.4074   -0.360696
 O 0.5268 0.5277 0.42012   -0.729281
 O 0.5544 0.4066 0.35212   -0.74534
 O 0.957 0.6261 0.98359   -0.817163
 O 0.987 0.7818 0.993   -0.703166
 O 0.1543 0.5625 0.01456   -0.695214
 O 0.1885 0.6977 0.97963   -0.775519
 O 0.6887 0.1559 0.39229   -0.33758
 O 0.5596 0.1946 0.33766   -0.660083
 O 0.4229 0.3662 0.46251   -0.825679
 O 0.43 0.2155 0.44718   -0.661256
 O 0.0885 0.5742 0.87121   -0.804419
 O 0.0087 0.4595 0.91298   -0.709987
 O 0.643 0.4397 0.51172   -0.600937
 O 0.6428 0.3133 0.44397   -0.578164
 O 0.9453 0.7705 0.6831   -0.4151
 O 0.8685 0.749 0.5926   -0.360696
 O 0.4732 0.4723 0.57988   -0.729281
 O 0.4456 0.5934 0.64788   -0.74534
 O 0.043 0.3739 0.01641   -0.817163
 O 0.013 0.2182 0.007   -0.703166
 O 0.8457 0.4375 0.98544   -0.695214
 O 0.8115 0.3023 0.02037   -0.775519
 O 0.3113 0.8441 0.60771   -0.33758
 O 0.4404 0.8054 0.66234   -0.660083
