{'_ref': 'TBD', '_srcid': 'CAKYAQ_clean', 'submitters': [{'name': 'Dalar Nazarian Jeff Camp and David Sholl', 'email': 'dalar@gatech.edu jcamp6@gatech.edu'}], '_method': 'VASP DFT with PBE;DDEC'}
data_CuH16C24(N4O)2
_symmetry_space_group_name_H-M   'P 1'
_cell_length_a   13.90770000
_cell_length_b   16.43550000
_cell_length_c   16.43550000
_cell_angle_alpha   90.00000000
_cell_angle_beta   90.00000000
_cell_angle_gamma   90.00000000
_symmetry_Int_Tables_number   1
_chemical_formula_structural   CuH16C24(N4O)2
_chemical_formula_sum   'Cu4 H64 C96 N32 O8'
_cell_volume   3756.82664506
_cell_formula_units_Z   4
loop_
 _symmetry_equiv_pos_site_id
 _symmetry_equiv_pos_as_xyz
  1  'x, y, z'
loop_
 _atom_site_label
 _atom_site_fract_x
 _atom_site_fract_y
 _atom_site_fract_z
 _atom_site_charge
 Cu 0.5 0.81739 0.81739   0.398079
 Cu 0.0 0.18261 0.18261   0.398079
 Cu 0.25 0.68261 0.31739   0.398079
 Cu 0.75 0.31739 0.68261   0.398079
 H 0.6166 0.9679 0.7813   0.072112
 H 0.7511 0.0042 0.7099   0.118493
 H 0.7743 0.7742 0.635   0.121911
 H 0.6424 0.7426 0.7108   0.072029
 H 0.2292 0.86 0.3706   0.068566
 H 0.1305 0.9384 0.4502   0.123542
 H 0.9754 0.7393 0.4965   0.120105
 H 0.0791 0.6658 0.4186   0.067966
 H 0.1166 0.0321 0.2187   0.072112
 H 0.2511 0.9958 0.2901   0.118493
 H 0.2743 0.2258 0.365   0.121911
 H 0.1424 0.2574 0.2892   0.072029
 H 0.7292 0.14 0.6294   0.068566
 H 0.6305 0.0616 0.5498   0.123542
 H 0.4754 0.2607 0.5035   0.120105
 H 0.5791 0.3342 0.5814   0.067966
 H 0.3666 0.7187 0.4679   0.072113
 H 0.5011 0.7901 0.5042   0.118493
 H 0.5243 0.865 0.2742   0.121911
 H 0.3924 0.7892 0.2426   0.072029
 H 0.9792 0.1294 0.36   0.068566
 H 0.8805 0.0498 0.4384   0.123542
 H 0.7254 0.0035 0.2393   0.120105
 H 0.8291 0.0814 0.1658   0.067966
 H 0.8666 0.2813 0.5321   0.072113
 H 0.0011 0.2099 0.4958   0.118493
 H 0.0243 0.135 0.7258   0.121911
 H 0.8924 0.2108 0.7574   0.072029
 H 0.4792 0.8706 0.64   0.068566
 H 0.3805 0.9502 0.5616   0.123542
 H 0.2254 0.9965 0.7607   0.120105
 H 0.3291 0.9186 0.8342   0.067966
 H 0.1334 0.5321 0.2813   0.072114
 H 0.9989 0.4958 0.2099   0.118493
 H 0.9757 0.7258 0.135   0.121911
 H 0.1076 0.7574 0.2108   0.07203
 H 0.5208 0.64 0.8706   0.068566
 H 0.6195 0.5616 0.9502   0.123542
 H 0.7746 0.7607 0.9965   0.120105
 H 0.6709 0.8342 0.9186   0.067966
 H 0.6334 0.4679 0.7187   0.072114
 H 0.4989 0.5042 0.7901   0.118493
 H 0.4757 0.2742 0.865   0.121911
 H 0.6076 0.2426 0.7892   0.07203
 H 0.0208 0.36 0.1294   0.068566
 H 0.1195 0.4384 0.0498   0.123542
 H 0.2746 0.2393 0.0035   0.120105
 H 0.1709 0.1658 0.0814   0.067966
 H 0.3834 0.7813 0.9679   0.072114
 H 0.2489 0.7099 0.0042   0.118493
 H 0.2257 0.635 0.7742   0.121911
 H 0.3576 0.7108 0.7426   0.07203
 H 0.7708 0.3706 0.86   0.068566
 H 0.8695 0.4502 0.9384   0.123542
 H 0.0246 0.4965 0.7393   0.120105
 H 0.9209 0.4186 0.6658   0.067966
 H 0.8834 0.2187 0.0321   0.072114
 H 0.7489 0.2901 0.9958   0.118493
 H 0.7257 0.365 0.2258   0.121911
 H 0.8576 0.2892 0.2574   0.07203
 H 0.2708 0.6294 0.14   0.068566
 H 0.3695 0.5498 0.0616   0.123542
 H 0.5246 0.5035 0.2607   0.120105
 H 0.4209 0.5814 0.3342   0.067966
 C 0.64984 0.92824 0.75239   0.099514
 C 0.72963 0.95062 0.70907   -0.15532
 C 0.77765 0.8927 0.66421   0.019939
 C 0.74368 0.81448 0.66516   -0.173295
 C 0.66459 0.79598 0.71063   0.119776
 C 0.86237 0.91365 0.6157   0.343312
 C 0.97886 0.89365 0.53617   0.327397
 C 0.17775 0.83533 0.39693   0.11927
 C 0.11896 0.88298 0.44458   -0.162571
 C 0.04187 0.84641 0.48418   -0.001841
 C 0.02753 0.76505 0.4722   -0.184805
 C 0.0895 0.72137 0.4247   0.113792
 C 0.14984 0.07176 0.24761   0.099514
 C 0.22963 0.04938 0.29093   -0.15532
 C 0.27765 0.1073 0.33579   0.019939
 C 0.24368 0.18552 0.33484   -0.173295
 C 0.16459 0.20402 0.28937   0.119776
 C 0.36237 0.08635 0.3843   0.343312
 C 0.47886 0.10635 0.46383   0.327397
 C 0.67775 0.16467 0.60307   0.11927
 C 0.61896 0.11702 0.55542   -0.162571
 C 0.54187 0.15359 0.51582   -0.001841
 C 0.52753 0.23495 0.5278   -0.184805
 C 0.5895 0.27863 0.5753   0.113792
 C 0.39984 0.74761 0.42824   0.099514
 C 0.47963 0.79093 0.45062   -0.15532
 C 0.52765 0.83579 0.3927   0.019939
 C 0.49368 0.83484 0.31448   -0.173294
 C 0.41459 0.78937 0.29598   0.119776
 C 0.61237 0.8843 0.41365   0.343312
 C 0.72886 0.96383 0.39365   0.327396
 C 0.92775 0.10307 0.33533   0.11927
 C 0.86896 0.05542 0.38298   -0.162572
 C 0.79187 0.01582 0.34641   -0.001842
 C 0.77753 0.0278 0.26505   -0.184805
 C 0.8395 0.0753 0.22137   0.113792
 C 0.89984 0.25239 0.57176   0.099514
 C 0.97963 0.20907 0.54938   -0.15532
 C 0.02765 0.16421 0.6073   0.019939
 C 0.99368 0.16516 0.68552   -0.173294
 C 0.91459 0.21063 0.70402   0.119776
 C 0.11237 0.1157 0.58635   0.343312
 C 0.22886 0.03617 0.60635   0.327396
 C 0.42775 0.89693 0.66467   0.11927
 C 0.36896 0.94458 0.61702   -0.162572
 C 0.29187 0.98418 0.65359   -0.001842
 C 0.27753 0.9722 0.73495   -0.184805
 C 0.3395 0.9247 0.77863   0.113792
 C 0.10016 0.57176 0.25239   0.099514
 C 0.02037 0.54938 0.20907   -0.15532
 C 0.97235 0.6073 0.16421   0.019938
 C 0.00632 0.68552 0.16516   -0.173294
 C 0.08541 0.70402 0.21063   0.119776
 C 0.88763 0.58635 0.1157   0.343312
 C 0.77114 0.60635 0.03617   0.327397
 C 0.57225 0.66467 0.89693   0.11927
 C 0.63104 0.61702 0.94458   -0.162571
 C 0.70813 0.65359 0.98418   -0.001841
 C 0.72247 0.73495 0.9722   -0.184806
 C 0.6605 0.77863 0.9247   0.113793
 C 0.60016 0.42824 0.74761   0.099514
 C 0.52037 0.45062 0.79093   -0.15532
 C 0.47235 0.3927 0.83579   0.019938
 C 0.50632 0.31448 0.83484   -0.173294
 C 0.58541 0.29598 0.78937   0.119776
 C 0.38763 0.41365 0.8843   0.343312
 C 0.27114 0.39365 0.96383   0.327397
 C 0.07225 0.33533 0.10307   0.11927
 C 0.13104 0.38298 0.05542   -0.162571
 C 0.20813 0.34641 0.01582   -0.001841
 C 0.22247 0.26505 0.0278   -0.184806
 C 0.1605 0.22137 0.0753   0.113793
 C 0.35016 0.75239 0.92824   0.099514
 C 0.27037 0.70907 0.95062   -0.15532
 C 0.22235 0.66421 0.8927   0.019938
 C 0.25632 0.66516 0.81448   -0.173294
 C 0.33541 0.71063 0.79598   0.119776
 C 0.13763 0.6157 0.91365   0.343312
 C 0.02114 0.53617 0.89365   0.327396
 C 0.82225 0.39693 0.83533   0.11927
 C 0.88104 0.44458 0.88298   -0.162572
 C 0.95813 0.48418 0.84641   -0.001842
 C 0.97247 0.4722 0.76505   -0.184806
 C 0.9105 0.4247 0.72137   0.113793
 C 0.85016 0.24761 0.07176   0.099514
 C 0.77037 0.29093 0.04938   -0.15532
 C 0.72235 0.33579 0.1073   0.019938
 C 0.75632 0.33484 0.18552   -0.173294
 C 0.83541 0.28937 0.20402   0.119776
 C 0.63763 0.3843 0.08635   0.343312
 C 0.52114 0.46383 0.10635   0.327396
 C 0.32225 0.60307 0.16467   0.11927
 C 0.38104 0.55542 0.11702   -0.162572
 C 0.45813 0.51582 0.15359   -0.001842
 C 0.47247 0.5278 0.23495   -0.184806
 C 0.4105 0.5753 0.27863   0.113793
 N 0.6177 0.85134 0.75481   -0.302999
 N 0.90454 0.98259 0.60882   -0.314612
 N 0.98208 0.96985 0.55522   -0.260593
 N 0.16479 0.75546 0.38654   -0.329448
 N 0.1177 0.14866 0.24519   -0.302999
 N 0.40454 0.01741 0.39118   -0.314612
 N 0.48208 0.03015 0.44478   -0.260593
 N 0.66479 0.24454 0.61346   -0.329448
 N 0.3677 0.74519 0.35134   -0.302999
 N 0.65454 0.89118 0.48259   -0.314612
 N 0.73208 0.94478 0.46985   -0.260593
 N 0.91479 0.11346 0.25546   -0.329448
 N 0.8677 0.25481 0.64866   -0.302999
 N 0.15454 0.10882 0.51741   -0.314612
 N 0.23208 0.05522 0.53015   -0.260593
 N 0.41479 0.88654 0.74454   -0.329448
 N 0.1323 0.64866 0.25481   -0.302999
 N 0.84546 0.51741 0.10882   -0.314612
 N 0.76792 0.53015 0.05522   -0.260593
 N 0.58521 0.74454 0.88654   -0.329449
 N 0.6323 0.35134 0.74519   -0.302999
 N 0.34546 0.48259 0.89118   -0.314612
 N 0.26792 0.46985 0.94478   -0.260593
 N 0.08521 0.25546 0.11346   -0.329449
 N 0.3823 0.75481 0.85134   -0.302999
 N 0.09546 0.60882 0.98259   -0.314612
 N 0.01792 0.55522 0.96985   -0.260593
 N 0.83521 0.38654 0.75546   -0.329449
 N 0.8823 0.24519 0.14866   -0.302999
 N 0.59546 0.39118 0.01741   -0.314612
 N 0.51792 0.44478 0.03015   -0.260593
 N 0.33521 0.61346 0.24454   -0.329449
 O 0.90366 0.85382 0.57143   -0.221277
 O 0.40366 0.14618 0.42857   -0.221277
 O 0.65366 0.92857 0.35382   -0.221277
 O 0.15366 0.07143 0.64618   -0.221277
 O 0.84634 0.64618 0.07143   -0.221277
 O 0.34634 0.35382 0.92857   -0.221277
 O 0.09634 0.57143 0.85382   -0.221277
 O 0.59634 0.42857 0.14618   -0.221277
