{'_ref': 'TBD', '_srcid': 'CAKYAQ_clean', 'submitters': [{'name': 'Dalar Nazarian Jeff Camp and David Sholl', 'email': 'dalar@gatech.edu jcamp6@gatech.edu'}], '_method': 'VASP DFT with PBE;DDEC'}
data_UZnH8C10(NF2)2
_symmetry_space_group_name_H-M   'P 1'
_cell_length_a   9.46300000
_cell_length_b   16.75340007
_cell_length_c   22.38360000
_cell_angle_alpha   90.00000000
_cell_angle_beta   90.00000000
_cell_angle_gamma   91.89900094
_symmetry_Int_Tables_number   1
_chemical_formula_structural   UZnH8C10(NF2)2
_chemical_formula_sum   'U8 Zn8 H64 C80 N16 F32'
_cell_volume   3546.68936924
_cell_formula_units_Z   8
loop_
 _symmetry_equiv_pos_site_id
 _symmetry_equiv_pos_as_xyz
  1  'x, y, z'
loop_
 _atom_site_label
 _atom_site_fract_x
 _atom_site_fract_y
 _atom_site_fract_z
 _atom_site_charge
 U 0.54298 0.13558 0.25189   1.631314
 U 0.90573 0.26493 0.25392   1.336338
 U 0.45702 0.36442 0.75189   1.631314
 U 0.09427 0.23507 0.75392   1.336338
 U 0.45702 0.86442 0.74811   1.631314
 U 0.09427 0.73507 0.74608   1.336338
 U 0.54298 0.63558 0.24811   1.631314
 U 0.90573 0.76493 0.24608   1.336338
 Zn 0.84113 0.00546 0.25405   0.967139
 Zn 0.22604 0.94958 0.24631   0.991916
 Zn 0.15887 0.49454 0.75405   0.967139
 Zn 0.77396 0.55042 0.74631   0.991916
 Zn 0.15887 0.99454 0.74595   0.967139
 Zn 0.77396 0.05042 0.75369   0.991916
 Zn 0.84113 0.50546 0.24595   0.967139
 Zn 0.22604 0.44958 0.25369   0.991916
 H 0.9745 0.0903 0.1503   0.04361
 H 0.9529 0.1048 0.049   0.120855
 H 0.6644 0.9309 0.1534   0.084155
 H 0.6309 0.9428 0.0529   0.127867
 H 0.8602 0.1442 0.9643   0.121436
 H 0.8544 0.1503 0.8626   0.021599
 H 0.6902 0.9229 0.9547   0.124289
 H 0.6951 0.9336 0.8532   0.032017
 H 0.952 0.1106 0.3543   0.029554
 H 0.9272 0.1302 0.4549   0.125729
 H 0.6966 0.9236 0.3589   0.076592
 H 0.6665 0.9366 0.4597   0.125527
 H 0.9751 0.0976 0.5487   0.116516
 H 0.9603 0.1041 0.6507   0.015197
 H 0.5849 0.9968 0.5471   0.11197
 H 0.5797 0.0084 0.6486   0.029792
 H 0.0255 0.4097 0.6503   0.04361
 H 0.0471 0.3952 0.549   0.120856
 H 0.3356 0.5691 0.6534   0.084155
 H 0.3691 0.5572 0.5529   0.127867
 H 0.1398 0.3558 0.4643   0.12144
 H 0.1456 0.3497 0.3626   0.021599
 H 0.3098 0.5771 0.4547   0.124289
 H 0.3049 0.5664 0.3532   0.032017
 H 0.048 0.3894 0.8543   0.029554
 H 0.0728 0.3698 0.9549   0.125733
 H 0.3034 0.5764 0.8589   0.076592
 H 0.3335 0.5634 0.9597   0.125527
 H 0.0249 0.4024 0.0487   0.116517
 H 0.0397 0.3959 0.1507   0.015197
 H 0.4151 0.5032 0.0471   0.11197
 H 0.4203 0.4916 0.1486   0.029792
 H 0.0255 0.9097 0.8497   0.04361
 H 0.0471 0.8952 0.951   0.120856
 H 0.3356 0.0691 0.8466   0.084155
 H 0.3691 0.0572 0.9471   0.127867
 H 0.1398 0.8558 0.0357   0.121438
 H 0.1456 0.8497 0.1374   0.021599
 H 0.3098 0.0771 0.0453   0.124291
 H 0.3049 0.0664 0.1468   0.032017
 H 0.048 0.8894 0.6457   0.029555
 H 0.0728 0.8698 0.5451   0.12573
 H 0.3034 0.0764 0.6411   0.076591
 H 0.3335 0.0634 0.5403   0.125529
 H 0.0249 0.9024 0.4513   0.116516
 H 0.0397 0.8959 0.3493   0.015197
 H 0.4151 0.0032 0.4529   0.11197
 H 0.4203 0.9916 0.3514   0.029792
 H 0.9745 0.5903 0.3497   0.04361
 H 0.9529 0.6048 0.451   0.120857
 H 0.6644 0.4309 0.3466   0.084155
 H 0.6309 0.4428 0.4471   0.127867
 H 0.8602 0.6442 0.5357   0.121441
 H 0.8544 0.6503 0.6374   0.021599
 H 0.6902 0.4229 0.5453   0.124292
 H 0.6951 0.4336 0.6468   0.032017
 H 0.952 0.6106 0.1457   0.029554
 H 0.9272 0.6302 0.0451   0.125734
 H 0.6966 0.4236 0.1411   0.076591
 H 0.6665 0.4366 0.0403   0.125529
 H 0.9751 0.5976 0.9513   0.116517
 H 0.9603 0.6041 0.8493   0.015197
 H 0.5849 0.4968 0.9529   0.11197
 H 0.5797 0.5084 0.8514   0.029792
 C 0.9054 0.06005 0.1302   0.148926
 C 0.893 0.06906 0.06937   -0.22917
 C 0.7225 0.9665 0.13198   0.122187
 C 0.7025 0.97278 0.07165   -0.231169
 C 0.7901 0.02435 0.03843   0.075706
 C 0.779 0.03201 0.97239   0.075336
 C 0.8261 0.10028 0.94264   -0.221058
 C 0.8229 0.10354 0.88143   0.182997
 C 0.7266 0.96945 0.93698   -0.217008
 C 0.7286 0.97664 0.87599   0.176383
 C 0.8936 0.07532 0.37587   0.148806
 C 0.8797 0.08745 0.43638   -0.238962
 C 0.744 0.96539 0.37863   0.152433
 C 0.725 0.97294 0.43921   -0.220755
 C 0.7936 0.03506 0.46968   0.078113
 C 0.7824 0.04456 0.53543   0.079589
 C 0.8942 0.07798 0.56809   -0.221223
 C 0.8842 0.08189 0.62942   0.192368
 C 0.663 0.01865 0.56719   -0.231601
 C 0.6609 0.02541 0.62818   0.174569
 C 0.0946 0.43995 0.6302   0.148926
 C 0.107 0.43094 0.56937   -0.22917
 C 0.2775 0.5335 0.63198   0.122187
 C 0.2975 0.52722 0.57165   -0.231169
 C 0.2099 0.47565 0.53843   0.075706
 C 0.221 0.46799 0.47239   0.075336
 C 0.1739 0.39972 0.44264   -0.221059
 C 0.1771 0.39646 0.38143   0.182998
 C 0.2734 0.53055 0.43698   -0.217009
 C 0.2714 0.52336 0.37599   0.176383
 C 0.1064 0.42468 0.87587   0.148806
 C 0.1203 0.41255 0.93638   -0.238963
 C 0.256 0.53461 0.87863   0.152433
 C 0.275 0.52706 0.93921   -0.220756
 C 0.2064 0.46494 0.96968   0.078114
 C 0.2176 0.45544 0.03543   0.079589
 C 0.1058 0.42202 0.06809   -0.221223
 C 0.1158 0.41811 0.12942   0.192368
 C 0.337 0.48135 0.06719   -0.231601
 C 0.3391 0.47459 0.12818   0.174569
 C 0.0946 0.93995 0.8698   0.148925
 C 0.107 0.93094 0.93063   -0.229171
 C 0.2775 0.0335 0.86802   0.122187
 C 0.2975 0.02722 0.92835   -0.231169
 C 0.2099 0.97565 0.96157   0.075706
 C 0.221 0.96799 0.02761   0.075336
 C 0.1739 0.89972 0.05736   -0.221059
 C 0.1771 0.89646 0.11857   0.182997
 C 0.2734 0.03055 0.06302   -0.21701
 C 0.2714 0.02336 0.12401   0.176383
 C 0.1064 0.92468 0.62413   0.148805
 C 0.1203 0.91255 0.56362   -0.238963
 C 0.256 0.03461 0.62137   0.152433
 C 0.275 0.02706 0.56079   -0.220756
 C 0.2064 0.96494 0.53032   0.078113
 C 0.2176 0.95544 0.46457   0.079589
 C 0.1058 0.92202 0.43191   -0.221224
 C 0.1158 0.91811 0.37058   0.192367
 C 0.337 0.98135 0.43281   -0.231601
 C 0.3391 0.97459 0.37182   0.174569
 C 0.9054 0.56005 0.3698   0.148925
 C 0.893 0.56906 0.43063   -0.229171
 C 0.7225 0.4665 0.36802   0.122187
 C 0.7025 0.47278 0.42835   -0.231169
 C 0.7901 0.52435 0.46157   0.075706
 C 0.779 0.53201 0.52761   0.075336
 C 0.8261 0.60028 0.55736   -0.22106
 C 0.8229 0.60354 0.61857   0.182998
 C 0.7266 0.46945 0.56302   -0.21701
 C 0.7286 0.47664 0.62401   0.176383
 C 0.8936 0.57532 0.12413   0.148806
 C 0.8797 0.58745 0.06362   -0.238964
 C 0.744 0.46539 0.12137   0.152433
 C 0.725 0.47294 0.06079   -0.220756
 C 0.7936 0.53506 0.03032   0.078114
 C 0.7824 0.54456 0.96457   0.079589
 C 0.8942 0.57798 0.93191   -0.221224
 C 0.8842 0.58189 0.87058   0.192367
 C 0.663 0.51865 0.93281   -0.231601
 C 0.6609 0.52541 0.87182   0.174569
 N 0.822 0.00943 0.16172   -0.400341
 N 0.7763 0.04236 0.84763   -0.387983
 N 0.8275 0.01542 0.34654   -0.390109
 N 0.7708 0.05542 0.65988   -0.369461
 N 0.178 0.49057 0.66172   -0.400341
 N 0.2237 0.45764 0.34763   -0.387983
 N 0.1725 0.48458 0.84654   -0.390109
 N 0.2292 0.44458 0.15988   -0.369461
 N 0.178 0.99057 0.83828   -0.400341
 N 0.2237 0.95764 0.15237   -0.387983
 N 0.1725 0.98458 0.65346   -0.390109
 N 0.2292 0.94458 0.34012   -0.36946
 N 0.822 0.50943 0.33828   -0.400341
 N 0.7763 0.54236 0.65237   -0.387983
 N 0.8275 0.51542 0.15346   -0.390109
 N 0.7708 0.55542 0.84012   -0.369461
 F 0.66016 0.25826 0.24943   -0.57279
 F 0.34523 0.0566 0.25125   -0.547974
 F 0.61807 0.00711 0.25616   -0.559064
 F 0.80602 0.13317 0.25452   -0.59738
 F 0.37049 0.22418 0.24765   -0.605179
 F 0.10487 0.34305 0.25561   -0.527972
 F 0.82802 0.38775 0.24166   -0.489584
 F 0.05136 0.02158 0.25234   -0.582044
 F 0.33984 0.24174 0.74943   -0.57279
 F 0.65477 0.4434 0.75125   -0.547974
 F 0.38193 0.49289 0.75616   -0.559064
 F 0.19398 0.36683 0.75452   -0.59738
 F 0.62951 0.27582 0.74765   -0.605179
 F 0.89513 0.15695 0.75561   -0.527972
 F 0.17198 0.11225 0.74166   -0.489584
 F 0.94864 0.47842 0.75234   -0.582044
 F 0.33984 0.74174 0.75057   -0.57279
 F 0.65477 0.9434 0.74875   -0.547974
 F 0.38193 0.99289 0.74384   -0.559064
 F 0.19398 0.86683 0.74548   -0.59738
 F 0.62951 0.77582 0.75235   -0.605179
 F 0.89513 0.65695 0.74439   -0.527972
 F 0.17198 0.61225 0.75834   -0.489584
 F 0.94864 0.97842 0.74766   -0.582044
 F 0.66016 0.75826 0.25057   -0.57279
 F 0.34523 0.5566 0.24875   -0.547974
 F 0.61807 0.50711 0.24384   -0.559064
 F 0.80602 0.63317 0.24548   -0.59738
 F 0.37049 0.72418 0.25235   -0.605179
 F 0.10487 0.84305 0.24439   -0.527972
 F 0.82802 0.88775 0.25834   -0.489584
 F 0.05136 0.52158 0.24766   -0.582044
