{'_ref': 'TBD', '_srcid': 'CAKYAQ_clean', 'submitters': [{'name': 'Dalar Nazarian Jeff Camp and David Sholl', 'email': 'dalar@gatech.edu jcamp6@gatech.edu'}], '_method': 'VASP DFT with PBE;DDEC'}
data_Co5H16C36(N5O12)2
_symmetry_space_group_name_H-M   'P 1'
_cell_length_a   9.25899969
_cell_length_b   11.17699979
_cell_length_c   12.13100000
_cell_angle_alpha   108.01999878
_cell_angle_beta   91.64000086
_cell_angle_gamma   105.26999886
_symmetry_Int_Tables_number   1
_chemical_formula_structural   Co5H16C36(N5O12)2
_chemical_formula_sum   'Co5 H16 C36 N10 O24'
_cell_volume   1143.36036572
_cell_formula_units_Z   1
loop_
 _symmetry_equiv_pos_site_id
 _symmetry_equiv_pos_as_xyz
  1  'x, y, z'
loop_
 _atom_site_label
 _atom_site_fract_x
 _atom_site_fract_y
 _atom_site_fract_z
 _atom_site_charge
 Co 0.15651 0.26358 0.37692   1.013952
 Co 0.0808 0.6897 0.82786   1.052578
 Co 0.84349 0.73642 0.62308   1.01395
 Co 0.9192 0.3103 0.17214   1.052575
 Co 0.5 0.5 0.5   0.75255
 H 0.8099 0.9679 0.4331   0.122564
 H 0.5445 0.0519 0.2168   0.124756
 H 0.3646 0.7894 0.3785   0.106689
 H 0.8419 0.5022 0.8993   0.102604
 H 0.4627 0.2696 0.9673   0.126971
 H 0.4368 0.4661 0.7435   0.083423
 H 0.6548 0.3219 0.2996   0.098105
 H 0.0318 0.5934 0.4092   0.095421
 H 0.1901 0.0321 0.5669   0.122562
 H 0.4555 0.9481 0.7832   0.124756
 H 0.6354 0.2106 0.6215   0.106689
 H 0.1581 0.4978 0.1007   0.102604
 H 0.5373 0.7304 0.0327   0.126971
 H 0.5632 0.5339 0.2565   0.083423
 H 0.3452 0.6781 0.7004   0.098105
 H 0.9682 0.4066 0.5908   0.095421
 C 0.6096 0.7807 0.4871   0.685764
 C 0.5859 0.8657 0.417   -0.16551
 C 0.7153 0.9554 0.3958   0.028131
 C 0.7011 0.0231 0.3209   -0.152018
 C 0.5553 0.0077 0.2686   -0.006814
 C 0.4293 0.927 0.2946   -0.067452
 C 0.4479 0.85 0.3667   -0.025776
 C 0.8395 0.1115 0.2927   0.721713
 C 0.7196 0.5941 0.7465   0.714753
 C 0.6531 0.5022 0.812   -0.164542
 C 0.7377 0.4661 0.8871   0.047601
 C 0.673 0.3788 0.9441   -0.135957
 C 0.5109 0.3276 0.93   -0.024727
 C 0.4299 0.3694 0.8579   -0.075193
 C 0.4959 0.4482 0.7961   0.015235
 C 0.7543 0.338 0.0248   0.618579
 C 0.7262 0.3996 0.3435   0.27359
 C 0.9308 0.5469 0.4027   0.331835
 C 0.3904 0.2193 0.5129   0.685762
 C 0.4141 0.1343 0.583   -0.165509
 C 0.2847 0.0446 0.6042   0.028131
 C 0.2989 0.9769 0.6791   -0.152018
 C 0.4447 0.9923 0.7314   -0.006815
 C 0.5707 0.073 0.7054   -0.067451
 C 0.5521 0.15 0.6333   -0.025775
 C 0.1605 0.8885 0.7073   0.721713
 C 0.2804 0.4059 0.2535   0.714753
 C 0.3469 0.4978 0.188   -0.164541
 C 0.2623 0.5339 0.1129   0.047601
 C 0.327 0.6212 0.0559   -0.135955
 C 0.4891 0.6724 0.07   -0.024723
 C 0.5701 0.6306 0.1421   -0.075189
 C 0.5041 0.5518 0.2039   0.015236
 C 0.2457 0.662 0.9752   0.618579
 C 0.2738 0.6004 0.6565   0.27359
 C 0.0692 0.4531 0.5973   0.331835
 N 0.8359 0.5865 0.4768   -0.372988
 N 0.7002 0.4865 0.4361   -0.207068
 N 0.8672 0.4367 0.3208   -0.521445
 N 0.2823 0.918 0.2477   0.634914
 N 0.2613 0.3114 0.8364   0.597451
 N 0.1641 0.4135 0.5232   -0.372989
 N 0.2998 0.5135 0.5639   -0.207068
 N 0.1328 0.5633 0.6792   -0.521445
 N 0.7177 0.082 0.7523   0.634914
 N 0.7387 0.6886 0.1636   0.597451
 O 0.9507 0.1478 0.3627   -0.58267
 O 0.73 0.8302 0.5596   -0.595597
 O 0.6395 0.6114 0.6729   -0.557576
 O 0.8624 0.6547 0.7638   -0.673404
 O 0.5147 0.6767 0.4708   -0.517713
 O 0.8264 0.1427 0.2048   -0.608187
 O 0.8992 0.3748 0.0352   -0.559831
 O 0.6863 0.2797 0.088   -0.533434
 O 0.2703 0.9801 0.1855   -0.368847
 O 0.1745 0.8432 0.269   -0.377986
 O 0.2055 0.2421 0.8925   -0.34835
 O 0.1905 0.3406 0.7703   -0.329818
 O 0.0493 0.8522 0.6373   -0.58267
 O 0.27 0.1698 0.4404   -0.595598
 O 0.3605 0.3886 0.3271   -0.557576
 O 0.1376 0.3453 0.2362   -0.673404
 O 0.4853 0.3233 0.5292   -0.517713
 O 0.1736 0.8573 0.7952   -0.608187
 O 0.1008 0.6252 0.9648   -0.559833
 O 0.3137 0.7203 0.912   -0.533434
 O 0.7297 0.0199 0.8145   -0.368847
 O 0.8255 0.1568 0.731   -0.377987
 O 0.7945 0.7579 0.1075   -0.348351
 O 0.8095 0.6594 0.2297   -0.329818
