{'_ref': 'TBD', '_srcid': 'CAKYAQ_clean', 'submitters': [{'name': 'Dalar Nazarian Jeff Camp and David Sholl', 'email': 'dalar@gatech.edu jcamp6@gatech.edu'}], '_method': 'VASP DFT with PBE;DDEC'}
data_Co5H16C36(N5O12)2
_symmetry_space_group_name_H-M   'P 1'
_cell_length_a   9.20199989
_cell_length_b   11.08799970
_cell_length_c   11.99200000
_cell_angle_alpha   108.57999876
_cell_angle_beta   91.40000062
_cell_angle_gamma   104.70999951
_symmetry_Int_Tables_number   1
_chemical_formula_structural   Co5H16C36(N5O12)2
_chemical_formula_sum   'Co5 H16 C36 N10 O24'
_cell_volume   1114.34913536
_cell_formula_units_Z   1
loop_
 _symmetry_equiv_pos_site_id
 _symmetry_equiv_pos_as_xyz
  1  'x, y, z'
loop_
 _atom_site_label
 _atom_site_fract_x
 _atom_site_fract_y
 _atom_site_fract_z
 _atom_site_charge
 Co 0.15461 0.26731 0.38008   1.025406
 Co 0.0809 0.7004 0.8364   1.046422
 Co 0.84539 0.73269 0.61992   1.025407
 Co 0.9191 0.2996 0.1636   1.046423
 Co 0.5 0.5 0.5   0.938321
 H 0.8083 0.9702 0.4399   0.121131
 H 0.5521 0.0474 0.2134   0.125517
 H 0.3638 0.7956 0.377   0.105865
 H 0.8481 0.495 0.8898   0.113359
 H 0.4695 0.2692 0.963   0.12438
 H 0.4383 0.4712 0.743   0.080681
 H 0.6451 0.3166 0.2972   0.092434
 H 0.0317 0.5845 0.4035   0.09332
 H 0.1917 0.0298 0.5601   0.121129
 H 0.4479 0.9526 0.7866   0.125517
 H 0.6362 0.2044 0.623   0.105866
 H 0.1519 0.505 0.1102   0.113359
 H 0.5305 0.7308 0.037   0.12438
 H 0.5617 0.5288 0.257   0.080681
 H 0.3549 0.6834 0.7028   0.092435
 H 0.9683 0.4155 0.5965   0.09332
 C 0.6152 0.7843 0.4892   0.700961
 C 0.5894 0.8649 0.4172   -0.168658
 C 0.7137 0.9554 0.4006   0.020482
 C 0.6962 0.0244 0.3245   -0.133939
 C 0.5605 0.0076 0.2699   -0.017978
 C 0.4342 0.9316 0.2972   -0.049974
 C 0.4491 0.8547 0.3656   -0.026737
 C 0.8371 0.1105 0.295   0.70021
 C 0.7179 0.5924 0.7441   0.728126
 C 0.6496 0.5034 0.8116   -0.169895
 C 0.7432 0.4651 0.883   0.047014
 C 0.6724 0.3826 0.9412   -0.137436
 C 0.5152 0.3288 0.9261   -0.028464
 C 0.4293 0.3681 0.8533   -0.084344
 C 0.497 0.4507 0.7948   0.021538
 C 0.7597 0.3397 0.0216   0.622944
 C 0.7199 0.3938 0.3385   0.300469
 C 0.9304 0.5385 0.397   0.334061
 C 0.3848 0.2157 0.5108   0.700961
 C 0.4106 0.1351 0.5828   -0.168659
 C 0.2863 0.0446 0.5994   0.020482
 C 0.3038 0.9756 0.6755   -0.13394
 C 0.4395 0.9924 0.7301   -0.017978
 C 0.5658 0.0684 0.7028   -0.049975
 C 0.5509 0.1453 0.6344   -0.026738
 C 0.1629 0.8895 0.705   0.70021
 C 0.2821 0.4076 0.2559   0.728126
 C 0.3504 0.4966 0.1884   -0.169895
 C 0.2568 0.5349 0.117   0.047014
 C 0.3276 0.6174 0.0588   -0.137436
 C 0.4848 0.6712 0.0739   -0.028465
 C 0.5707 0.6319 0.1467   -0.084344
 C 0.503 0.5493 0.2052   0.021538
 C 0.2403 0.6603 0.9784   0.622944
 C 0.2801 0.6062 0.6615   0.300469
 C 0.0696 0.4615 0.603   0.334062
 N 0.8377 0.5782 0.4704   -0.351643
 N 0.7008 0.4835 0.4273   -0.267696
 N 0.8644 0.4239 0.3105   -0.541198
 N 0.2813 0.9175 0.2453   0.622914
 N 0.265 0.3101 0.835   0.638137
 N 0.1623 0.4218 0.5296   -0.351643
 N 0.2992 0.5165 0.5727   -0.267696
 N 0.1356 0.5761 0.6895   -0.541198
 N 0.7187 0.0825 0.7547   0.622914
 N 0.735 0.6899 0.165   0.638137
 O 0.9509 0.1563 0.3748   -0.614033
 O 0.7287 0.8262 0.5623   -0.583925
 O 0.6408 0.6098 0.6689   -0.580313
 O 0.8599 0.6551 0.7607   -0.677031
 O 0.5134 0.6778 0.4701   -0.591307
 O 0.8297 0.1379 0.2062   -0.579173
 O 0.9034 0.384 0.0373   -0.566747
 O 0.6941 0.2723 0.0762   -0.534616
 O 0.275 0.9845 0.1861   -0.364193
 O 0.1751 0.8409 0.2645   -0.360696
 O 0.2102 0.2436 0.891   -0.362525
 O 0.1973 0.3411 0.7701   -0.342006
 O 0.0491 0.8437 0.6252   -0.614033
 O 0.2713 0.1738 0.4377   -0.583925
 O 0.3592 0.3902 0.3311   -0.580313
 O 0.1401 0.3449 0.2393   -0.677031
 O 0.4866 0.3222 0.5299   -0.591307
 O 0.1703 0.8621 0.7938   -0.579173
 O 0.0966 0.616 0.9627   -0.566746
 O 0.3059 0.7277 0.9238   -0.534616
 O 0.725 0.0155 0.8139   -0.364194
 O 0.8249 0.1591 0.7355   -0.3607
 O 0.7898 0.7564 0.109   -0.362527
 O 0.8027 0.6589 0.2299   -0.342008
