{'_ref': 'TBD', '_srcid': 'CAKYAQ_clean', 'submitters': [{'name': 'Dalar Nazarian Jeff Camp and David Sholl', 'email': 'dalar@gatech.edu jcamp6@gatech.edu'}], '_method': 'VASP DFT with PBE;DDEC'}
data_FeHC4O3
_symmetry_space_group_name_H-M   'P 1'
_cell_length_a   6.82089997
_cell_length_b   15.16460011
_cell_length_c   15.16460000
_cell_angle_alpha   117.79320084
_cell_angle_beta   98.62279749
_cell_angle_gamma   98.62280198
_symmetry_Int_Tables_number   1
_chemical_formula_structural   FeHC4O3
_chemical_formula_sum   'Fe6 H6 C24 O18'
_cell_volume   1327.88541089
_cell_formula_units_Z   6
loop_
 _symmetry_equiv_pos_site_id
 _symmetry_equiv_pos_as_xyz
  1  'x, y, z'
loop_
 _atom_site_label
 _atom_site_fract_x
 _atom_site_fract_y
 _atom_site_fract_z
 _atom_site_charge
 Fe 0.8951 0.6865 0.4134   0.998367
 Fe 0.4817 0.5866 0.2731   0.998243
 Fe 0.2086 0.7269 0.3135   0.997527
 Fe 0.1049 0.3135 0.5866   0.998367
 Fe 0.5183 0.4134 0.7269   0.998244
 Fe 0.7914 0.2731 0.6865   0.997528
 H 0.6233 0.0103 0.4526   0.154324
 H 0.1707 0.5474 0.5577   0.154379
 H 0.613 0.4423 0.9897   0.154544
 H 0.3767 0.9897 0.5474   0.154324
 H 0.8293 0.4526 0.4423   0.154379
 H 0.387 0.5577 0.0103   0.154543
 C 0.6585 0.822 0.3847   0.614894
 C 0.8402 0.9125 0.461   -0.200006
 C 0.0463 0.8991 0.4711   0.377979
 C 0.8058 0.000500000000002 0.4639   -0.227679
 C 0.2738 0.6153 0.4373   0.615309
 C 0.3792 0.539 0.4515   -0.200464
 C 0.5752 0.5289 0.428   0.378337
 C 0.3419 0.5361 0.5366   -0.22729
 C 0.8365 0.5627 0.178   0.614352
 C 0.9277 0.5485 0.0875   -0.199227
 C 0.1472 0.572 0.1009   0.377629
 C 0.8053 0.4634 0.9995   -0.228055
 C 0.3415 0.178 0.6153   0.614895
 C 0.1598 0.0875 0.539   -0.200009
 C 0.9537 0.1009 0.5289   0.377992
 C 0.1942 0.9995 0.5361   -0.227665
 C 0.7262 0.3847 0.5627   0.615309
 C 0.6208 0.461 0.5485   -0.200467
 C 0.4248 0.4711 0.572   0.378349
 C 0.6581 0.4639 0.4634   -0.227277
 C 0.1635 0.4373 0.822   0.614352
 C 0.0723 0.4515 0.9125   -0.19923
 C 0.8528 0.428 0.8991   0.377642
 C 0.1947 0.5366 0.000500000000002   -0.228041
 O 0.6699 0.7309 0.3564   -0.557958
 O 0.4763 0.8612 0.3923   -0.580081
 O 0.079 0.8098 0.4314   -0.579446
 O 0.3135 0.6436 0.3745   -0.55787
 O 0.084 0.6077 0.4689   -0.580311
 O 0.6476 0.5686 0.3784   -0.580378
 O 0.939 0.6255 0.2691   -0.557125
 O 0.6151 0.5311 0.1388   -0.580636
 O 0.2692 0.6216 0.1902   -0.579393
 O 0.3301 0.2691 0.6436   -0.557958
 O 0.5237 0.1388 0.6077   -0.580081
 O 0.921 0.1902 0.5686   -0.579447
 O 0.6865 0.3564 0.6255   -0.55787
 O 0.916 0.3923 0.5311   -0.580311
 O 0.3524 0.4314 0.6216   -0.58038
 O 0.061 0.3745 0.7309   -0.557125
 O 0.3849 0.4689 0.8612   -0.580636
 O 0.7308 0.3784 0.8098   -0.579394
