{'_ref': 'TBD', '_srcid': 'CAKYAQ_clean', 'submitters': [{'name': 'Dalar Nazarian Jeff Camp and David Sholl', 'email': 'dalar@gatech.edu jcamp6@gatech.edu'}], '_method': 'VASP DFT with PBE;DDEC'}
data_FeHC4O3
_symmetry_space_group_name_H-M   'P 1'
_cell_length_a   6.91069950
_cell_length_b   15.24510052
_cell_length_c   15.24510000
_cell_angle_alpha   117.75890082
_cell_angle_beta   98.69079852
_cell_angle_gamma   98.69079838
_symmetry_Int_Tables_number   1
_chemical_formula_structural   FeHC4O3
_chemical_formula_sum   'Fe6 H6 C24 O18'
_cell_volume   1359.19758584
_cell_formula_units_Z   6
loop_
 _symmetry_equiv_pos_site_id
 _symmetry_equiv_pos_as_xyz
  1  'x, y, z'
loop_
 _atom_site_label
 _atom_site_fract_x
 _atom_site_fract_y
 _atom_site_fract_z
 _atom_site_charge
 Fe 0.8892 0.6792 0.4123   0.978964
 Fe 0.4769 0.5877 0.2669   0.978934
 Fe 0.21 0.7331 0.3208   0.978524
 Fe 0.1108 0.3208 0.5877   0.978965
 Fe 0.5231 0.4123 0.7331   0.978935
 Fe 0.79 0.2669 0.6792   0.978524
 H 0.6482 0.0307 0.4619   0.137529
 H 0.1863 0.5381 0.5688   0.137227
 H 0.6175 0.4312 0.9693   0.137264
 H 0.3518 0.9693 0.5381   0.137528
 H 0.8137 0.4619 0.4312   0.137227
 H 0.3825 0.5688 0.0307   0.137264
 C 0.6236 0.8251 0.3807   0.785767
 C 0.8413 0.9121 0.4488   -0.245812
 C 0.0355 0.9009 0.4636   0.378731
 C 0.7989 0.0059 0.4738   -0.237183
 C 0.2429 0.6193 0.4444   0.787376
 C 0.3925 0.5512 0.4633   -0.245534
 C 0.5719 0.5364 0.4373   0.3789
 C 0.3251 0.5262 0.5321   -0.236817
 C 0.7985 0.5556 0.1749   0.785578
 C 0.9292 0.5367 0.0879   -0.245253
 C 0.1346 0.5627 0.0991   0.378262
 C 0.793 0.4679 0.9941   -0.236844
 C 0.3764 0.1749 0.6193   0.785767
 C 0.1587 0.0879 0.5512   -0.245814
 C 0.9645 0.0991 0.5364   0.378736
 C 0.2011 0.9941 0.5262   -0.237178
 C 0.7571 0.3807 0.5556   0.787376
 C 0.6075 0.4488 0.5367   -0.245535
 C 0.4281 0.4636 0.5627   0.378904
 C 0.6749 0.4738 0.4679   -0.236813
 C 0.2015 0.4444 0.8251   0.785578
 C 0.0708 0.4633 0.9121   -0.245255
 C 0.8654 0.4373 0.9009   0.378266
 C 0.207 0.5321 0.0059   -0.236839
 O 0.68 0.7477 0.3513   -0.65736
 O 0.4716 0.8389 0.3699   -0.51931
 O 0.0722 0.8125 0.4371   -0.620956
 O 0.3287 0.6487 0.3964   -0.65869
 O 0.1017 0.6301 0.469   -0.519859
 O 0.6351 0.5629 0.3754   -0.621733
 O 0.9323 0.6036 0.2523   -0.657942
 O 0.6327 0.531 0.1611   -0.518922
 O 0.2597 0.6246 0.1875   -0.620851
 O 0.32 0.2523 0.6487   -0.65736
 O 0.5284 0.1611 0.6301   -0.51931
 O 0.9278 0.1875 0.5629   -0.620957
 O 0.6713 0.3513 0.6036   -0.65869
 O 0.8983 0.3699 0.531   -0.519859
 O 0.3649 0.4371 0.6246   -0.621734
 O 0.0677 0.3964 0.7477   -0.657942
 O 0.3673 0.469 0.8389   -0.518922
 O 0.7403 0.3754 0.8125   -0.620851
