{'_ref': 'TBD', '_srcid': 'CAKYAQ_clean', 'submitters': [{'name': 'Dalar Nazarian Jeff Camp and David Sholl', 'email': 'dalar@gatech.edu jcamp6@gatech.edu'}], '_method': 'VASP DFT with PBE;DDEC'}
data_FeHC4O3
_symmetry_space_group_name_H-M   'P 1'
_cell_length_a   6.83759985
_cell_length_b   15.16099056
_cell_length_c   15.16099980
_cell_angle_alpha   117.78144609
_cell_angle_beta   98.64629785
_cell_angle_gamma   98.64609564
_symmetry_Int_Tables_number   1
_chemical_formula_structural   FeHC4O3
_chemical_formula_sum   'Fe6 H6 C24 O18'
_cell_volume   1330.33843413
_cell_formula_units_Z   6
loop_
 _symmetry_equiv_pos_site_id
 _symmetry_equiv_pos_as_xyz
  1  'x, y, z'
loop_
 _atom_site_label
 _atom_site_fract_x
 _atom_site_fract_y
 _atom_site_fract_z
 _atom_site_charge
 Fe 0.4838 0.5859 0.2711   1.012491
 Fe 0.2127 0.7289 0.3148   1.011696
 Fe 0.8979 0.6852 0.4141   1.011838
 Fe 0.5162 0.4141 0.7289   1.012491
 Fe 0.7873 0.2711 0.6852   1.011697
 Fe 0.1021 0.3148 0.5859   1.011838
 H 0.1943 0.5404 0.5599   0.14672
 H 0.6344 0.4401 0.9805   0.146518
 H 0.6539 0.0195 0.4596   0.146687
 H 0.8057 0.4596 0.4401   0.146719
 H 0.3656 0.5599 0.0195   0.146517
 H 0.3461 0.9805 0.5404   0.146686
 C 0.2769 0.618 0.4388   0.603257
 C 0.3783 0.5464 0.4561   -0.196137
 C 0.5725 0.5348 0.432   0.334981
 C 0.3381 0.527 0.531   -0.177971
 C 0.8381 0.5612 0.1792   0.603495
 C 0.9222 0.5439 0.0903   -0.195826
 C 0.1405 0.568 0.1028   0.334633
 C 0.8071 0.469 0.996   -0.177709
 C 0.6589 0.8208 0.382   0.602328
 C 0.8319 0.9097 0.4536   -0.195681
 C 0.0377 0.8972 0.4652   0.334977
 C 0.8111 0.004 0.473   -0.177878
 C 0.7231 0.382 0.5612   0.603259
 C 0.6217 0.4536 0.5439   -0.196145
 C 0.4275 0.4652 0.568   0.335004
 C 0.6619 0.473 0.469   -0.177945
 C 0.1619 0.4388 0.8208   0.603497
 C 0.0778 0.4561 0.9097   -0.195833
 C 0.8595 0.432 0.8972   0.334656
 C 0.1929 0.531 0.004   -0.177684
 C 0.3411 0.1792 0.618   0.602329
 C 0.1681 0.0903 0.5464   -0.195688
 C 0.9623 0.1028 0.5348   0.335
 C 0.1889 0.996 0.527   -0.177852
 O 0.3229 0.6444 0.3728   -0.568701
 O 0.0943 0.6139 0.4765   -0.570138
 O 0.6454 0.5657 0.3747   -0.584053
 O 0.9501 0.6272 0.2716   -0.569136
 O 0.6178 0.5235 0.1374   -0.570357
 O 0.2707 0.6253 0.191   -0.583907
 O 0.6785 0.7284 0.3556   -0.568165
 O 0.4804 0.8626 0.3861   -0.569891
 O 0.0797 0.809 0.4343   -0.58413
 O 0.6771 0.3556 0.6272   -0.568701
 O 0.9057 0.3861 0.5235   -0.570139
 O 0.3546 0.4343 0.6253   -0.584055
 O 0.0499 0.3728 0.7284   -0.569136
 O 0.3822 0.4765 0.8626   -0.570358
 O 0.7293 0.3747 0.809   -0.583909
 O 0.3215 0.2716 0.6444   -0.568165
 O 0.5196 0.1374 0.6139   -0.569891
 O 0.9203 0.191 0.5657   -0.584133
