{'_ref': 'TBD', '_srcid': 'CAKYAQ_clean', 'submitters': [{'name': 'Dalar Nazarian Jeff Camp and David Sholl', 'email': 'dalar@gatech.edu jcamp6@gatech.edu'}], '_method': 'VASP DFT with PBE;DDEC'}
data_Ni4H22C33N5O14
_symmetry_space_group_name_H-M   'P 1'
_cell_length_a   13.09889965
_cell_length_b   18.44440000
_cell_length_c   22.05040000
_cell_angle_alpha   90.00000000
_cell_angle_beta   103.20199871
_cell_angle_gamma   90.00000000
_symmetry_Int_Tables_number   1
_chemical_formula_structural   Ni4H22C33N5O14
_chemical_formula_sum   'Ni16 H88 C132 N20 O56'
_cell_volume   5186.60793237
_cell_formula_units_Z   4
loop_
 _symmetry_equiv_pos_site_id
 _symmetry_equiv_pos_as_xyz
  1  'x, y, z'
loop_
 _atom_site_label
 _atom_site_fract_x
 _atom_site_fract_y
 _atom_site_fract_z
 _atom_site_charge
 Ni 0.71587 0.78274 0.87511   0.896213
 Ni 0.61261 0.14078 0.12878   1.02444
 Ni 0.51467 0.73154 0.78426   0.978032
 Ni 0.98916 0.38942 0.73287   0.960368
 Ni 0.78413 0.28274 0.62489   0.896213
 Ni 0.88739 0.64078 0.37122   1.02444
 Ni 0.98533 0.23154 0.71574   0.978032
 Ni 0.51084 0.88942 0.76713   0.960368
 Ni 0.28413 0.21726 0.12489   0.896213
 Ni 0.38739 0.85922 0.87122   1.02444
 Ni 0.48533 0.26846 0.21574   0.978032
 Ni 0.01084 0.61058 0.26713   0.960368
 Ni 0.21587 0.71726 0.37511   0.896213
 Ni 0.11261 0.35922 0.62878   1.02444
 Ni 0.01467 0.76846 0.28426   0.978032
 Ni 0.48916 0.11058 0.23287   0.960368
 H 0.997 0.5012 0.828   0.094742
 H 0.9066 0.5984 0.8548   0.132312
 H 0.6631 0.5421 0.7147   0.129733
 H 0.7643 0.4494 0.6894   0.074857
 H 0.8114 0.8187 0.3304   0.091713
 H 0.687 0.9097 0.3073   0.132633
 H 0.8528 0.9964 0.1918   0.12187
 H 0.9743 0.9047 0.2188   0.084349
 H 0.5047 0.1264 0.9872   0.090782
 H 0.4987 0.0443 0.9063   0.142037
 H 0.7604 0.9506 0.0093   0.127006
 H 0.7578 0.0348 0.0866   0.078924
 H 0.8862 0.6767 0.9456   0.085273
 H 0.9606 0.6409 0.0469   0.130848
 H 0.7972 0.7969 0.1096   0.130799
 H 0.7086 0.8189 0.0076   0.082241
 H 0.8257 0.7844 0.7681   0.078641
 H 0.99 0.788 0.746   0.146197
 H 0.1038 0.8505 0.9226   0.132494
 H 0.9349 0.8578 0.9365   0.080583
 H 0.636 0.191 0.234   0.44766
 H 0.651 0.81 0.771   0.45029
 H 0.503 0.0012 0.672   0.094742
 H 0.5934 0.0984 0.6452   0.132312
 H 0.8369 0.0421 0.7853   0.129733
 H 0.7357 0.9494 0.8106   0.074857
 H 0.6886 0.3187 0.1696   0.091713
 H 0.813 0.4097 0.1927   0.132633
 H 0.6472 0.4964 0.3082   0.12187
 H 0.5257 0.4047 0.2812   0.084349
 H 0.9953 0.6264 0.5128   0.090782
 H 0.0013 0.5443 0.5937   0.142038
 H 0.7396 0.4506 0.4907   0.127006
 H 0.7422 0.5348 0.4134   0.078924
 H 0.6138 0.1767 0.5544   0.085273
 H 0.5394 0.1409 0.4531   0.130848
 H 0.7028 0.2969 0.3904   0.130799
 H 0.7914 0.3189 0.4924   0.082241
 H 0.6743 0.2844 0.7319   0.078641
 H 0.51 0.288 0.754   0.146198
 H 0.3962 0.3505 0.5774   0.132494
 H 0.5651 0.3578 0.5635   0.080583
 H 0.864 0.691 0.266   0.44766
 H 0.849 0.31 0.729   0.45029
 H 0.003 0.4988 0.172   0.094742
 H 0.0934 0.4016 0.1452   0.132312
 H 0.3369 0.4579 0.2853   0.129734
 H 0.2357 0.5506 0.3106   0.074857
 H 0.1886 0.1813 0.6696   0.091713
 H 0.313 0.0903 0.6927   0.132634
 H 0.1472 0.0036 0.8082   0.121871
 H 0.0257 0.0953 0.7812   0.08435
 H 0.4953 0.8736 0.0128   0.090783
 H 0.5013 0.9557 0.0937   0.142038
 H 0.2396 0.0494 0.9907   0.127006
 H 0.2422 0.9652 0.9134   0.078924
 H 0.1138 0.3233 0.0544   0.085273
 H 0.0394 0.3591 0.9531   0.130847
 H 0.2028 0.2031 0.8904   0.1308
 H 0.2914 0.1811 0.9924   0.082242
 H 0.1743 0.2156 0.2319   0.078641
 H 0.01 0.212 0.254   0.146198
 H 0.8962 0.1495 0.0774   0.132494
 H 0.0651 0.1422 0.0635   0.080583
 H 0.364 0.809 0.766   0.44766
 H 0.349 0.19 0.229   0.45029
 H 0.497 0.9988 0.328   0.094742
 H 0.4066 0.9016 0.3548   0.132312
 H 0.1631 0.9579 0.2147   0.129734
 H 0.2643 0.0506 0.1894   0.074857
 H 0.3114 0.6813 0.8304   0.091713
 H 0.187 0.5903 0.8073   0.132634
 H 0.3528 0.5036 0.6918   0.121871
 H 0.4743 0.5953 0.7188   0.08435
 H 0.0047 0.3736 0.4872   0.090783
 H 0.9987 0.4557 0.4063   0.142038
 H 0.2604 0.5494 0.5093   0.127006
 H 0.2578 0.4652 0.5866   0.078924
 H 0.3862 0.8233 0.4456   0.085273
 H 0.4606 0.8591 0.5469   0.130847
 H 0.2972 0.7031 0.6096   0.1308
 H 0.2086 0.6811 0.5076   0.082242
 H 0.3257 0.7156 0.2681   0.078641
 H 0.49 0.712 0.246   0.146198
 H 0.6038 0.6495 0.4226   0.132494
 H 0.4349 0.6422 0.4365   0.080583
 H 0.136 0.309 0.734   0.44766
 H 0.151 0.69 0.271   0.45029
 C 0.9286 0.5109 0.8038   0.163113
 C 0.875 0.5686 0.82053   -0.154212
 C 0.7743 0.5828 0.78676   -0.010149
 C 0.7331 0.5358 0.73805   -0.15371
 C 0.7934 0.4801 0.7236   0.146737
 C 0.713 0.6461 0.8029   0.64476
 C 0.8199 0.8554 0.30166   0.171728
 C 0.7446 0.9091 0.28783   -0.151032
 C 0.7546 0.9623 0.24488   -0.008555
 C 0.8423 0.9599 0.2203   -0.160718
 C 0.9146 0.9052 0.2365   0.156469
 C 0.6742 0.0218 0.2238   0.664009
 C 0.5555 0.0887 0.99256   0.144113
 C 0.5509 0.0399 0.94384   -0.146078
 C 0.6249 0.9843 0.95153   -0.044761
 C 0.7047 0.9847 0.00437   -0.15761
 C 0.7026 0.0355 0.0502   0.155887
 C 0.6161 0.924 0.90514   0.657082
 C 0.866 0.7006 0.9792   0.15955
 C 0.9142 0.6812 0.0399   -0.158766
 C 0.8162 0.7711 0.0766   -0.152588
 C 0.7647 0.7851 0.0156   0.131422
 C 0.8962 0.7189 0.08971   0.010374
 C 0.9494 0.7054 0.15691   0.658717
 C 0.5176 0.7298 0.92249   0.733504
 C 0.5315 0.6664 0.9679   -0.32431
 C 0.5734 0.5994 0.9449   -0.107756
 C 0.882 0.7995 0.8009   0.139587
 C 0.982 0.7999 0.7866   -0.166255
 C 0.0662 0.8178 0.8328   0.018274
 C 0.047 0.8379 0.8892   -0.173709
 C 0.9444 0.8397 0.8978   0.119864
 C 0.177 0.8122 0.8228   0.630689
 C 0.5714 0.0109 0.6962   0.163113
 C 0.625 0.0686 0.67947   -0.154212
 C 0.7257 0.0828 0.71324   -0.010148
 C 0.7669 0.0358 0.76195   -0.153711
 C 0.7066 0.9801 0.7764   0.146737
 C 0.787 0.1461 0.6971   0.64476
 C 0.6801 0.3554 0.19834   0.171728
 C 0.7554 0.4091 0.21217   -0.151032
 C 0.7454 0.4623 0.25512   -0.008555
 C 0.6577 0.4599 0.2797   -0.160718
 C 0.5854 0.4052 0.2635   0.156469
 C 0.8258 0.5218 0.2762   0.664009
 C 0.9445 0.5887 0.50744   0.144113
 C 0.9491 0.5399 0.55616   -0.146078
 C 0.8751 0.4843 0.54847   -0.044761
 C 0.7953 0.4847 0.49563   -0.15761
 C 0.7974 0.5355 0.4498   0.155887
 C 0.8839 0.424 0.59486   0.657083
 C 0.634 0.2006 0.5208   0.15955
 C 0.5858 0.1812 0.4601   -0.158766
 C 0.6838 0.2711 0.4234   -0.152588
 C 0.7353 0.2851 0.4844   0.131422
 C 0.6038 0.2189 0.41029   0.010375
 C 0.5506 0.2054 0.34309   0.658717
 C 0.9824 0.2298 0.57751   0.733504
 C 0.9685 0.1664 0.5321   -0.32431
 C 0.9266 0.0994 0.5551   -0.107756
 C 0.618 0.2995 0.6991   0.139587
 C 0.518 0.2999 0.7134   -0.166255
 C 0.4338 0.3178 0.6672   0.018274
 C 0.453 0.3379 0.6108   -0.173709
 C 0.5556 0.3397 0.6022   0.119864
 C 0.323 0.3122 0.6772   0.630689
 C 0.0714 0.4891 0.1962   0.163113
 C 0.125 0.4314 0.17947   -0.154212
 C 0.2257 0.4172 0.21324   -0.010148
 C 0.2669 0.4642 0.26195   -0.153711
 C 0.2066 0.5199 0.2764   0.146737
 C 0.287 0.3539 0.1971   0.64476
 C 0.1801 0.1446 0.69834   0.171728
 C 0.2554 0.0909 0.71217   -0.151032
 C 0.2454 0.0377 0.75512   -0.008555
 C 0.1577 0.0401 0.7797   -0.160717
 C 0.0854 0.0948 0.7635   0.15647
 C 0.3258 0.9782 0.7762   0.664009
 C 0.4445 0.9113 0.00744   0.144112
 C 0.4491 0.9601 0.05616   -0.146078
 C 0.3751 0.0157 0.04847   -0.044761
 C 0.2953 0.0153 0.99563   -0.15761
 C 0.2974 0.9645 0.9498   0.155887
 C 0.3839 0.076 0.09486   0.657082
 C 0.134 0.2994 0.0208   0.15955
 C 0.0858 0.3188 0.9601   -0.158765
 C 0.1838 0.2289 0.9234   -0.152588
 C 0.2353 0.2149 0.9844   0.131422
 C 0.1038 0.2811 0.91029   0.010374
 C 0.0506 0.2946 0.84309   0.658717
 C 0.4824 0.2702 0.07751   0.733504
 C 0.4685 0.3336 0.0321   -0.324313
 C 0.4266 0.4006 0.0551   -0.107755
 C 0.118 0.2005 0.1991   0.139587
 C 0.018 0.2001 0.2134   -0.166254
 C 0.9338 0.1822 0.1672   0.018274
 C 0.953 0.1621 0.1108   -0.173709
 C 0.0556 0.1603 0.1022   0.119864
 C 0.823 0.1878 0.1772   0.630689
 C 0.4286 0.9891 0.3038   0.163113
 C 0.375 0.9314 0.32053   -0.154212
 C 0.2743 0.9172 0.28676   -0.010148
 C 0.2331 0.9642 0.23805   -0.153711
 C 0.2934 0.0199 0.2236   0.146738
 C 0.213 0.8539 0.3029   0.64476
 C 0.3199 0.6446 0.80166   0.171728
 C 0.2446 0.5909 0.78783   -0.151032
 C 0.2546 0.5377 0.74488   -0.008555
 C 0.3423 0.5401 0.7203   -0.160717
 C 0.4146 0.5948 0.7365   0.15647
 C 0.1742 0.4782 0.7238   0.664009
 C 0.0555 0.4113 0.49256   0.144112
 C 0.0509 0.4601 0.44384   -0.146078
 C 0.1249 0.5157 0.45153   -0.044761
 C 0.2047 0.5153 0.50437   -0.15761
 C 0.2026 0.4645 0.5502   0.155887
 C 0.1161 0.576 0.40514   0.657083
 C 0.366 0.7994 0.4792   0.15955
 C 0.4142 0.8188 0.5399   -0.158765
 C 0.3162 0.7289 0.5766   -0.152588
 C 0.2647 0.7149 0.5156   0.131422
 C 0.3962 0.7811 0.58971   0.010374
 C 0.4494 0.7946 0.65691   0.658717
 C 0.0176 0.7702 0.42249   0.733504
 C 0.0315 0.8336 0.4679   -0.324313
 C 0.0734 0.9006 0.4449   -0.107755
 C 0.382 0.7005 0.3009   0.139587
 C 0.482 0.7001 0.2866   -0.166255
 C 0.5662 0.6822 0.3328   0.018274
 C 0.547 0.6621 0.3892   -0.173709
 C 0.4444 0.6603 0.3978   0.119864
 C 0.677 0.6878 0.3228   0.630689
 N 0.8904 0.46778 0.75551   -0.323983
 N 0.9039 0.85211 0.27691   -0.322905
 N 0.627 0.08567 0.04635   -0.301706
 N 0.7925 0.7516 0.96677   -0.314315
 N 0.855 0.8176 0.8548   -0.323984
 N 0.6096 0.96778 0.74449   -0.323983
 N 0.5961 0.35211 0.22309   -0.322905
 N 0.873 0.58567 0.45365   -0.301706
 N 0.7075 0.2516 0.53323   -0.314315
 N 0.645 0.3176 0.6452   -0.323984
 N 0.1096 0.53222 0.24449   -0.323983
 N 0.0961 0.14789 0.72309   -0.322905
 N 0.373 0.91433 0.95365   -0.301706
 N 0.2075 0.2484 0.03323   -0.314315
 N 0.145 0.1824 0.1452   -0.323984
 N 0.3904 0.03222 0.25551   -0.323983
 N 0.4039 0.64789 0.77691   -0.322905
 N 0.127 0.41433 0.54635   -0.301706
 N 0.2925 0.7484 0.46677   -0.314315
 N 0.355 0.6824 0.3548   -0.323984
 O 0.5854 0.18647 0.20696   -0.92196
 O 0.6246 0.81177 0.79095   -0.929019
 O 0.6211 0.6542 0.7718   -0.558192
 O 0.7606 0.68525 0.84677   -0.563775
 O 0.6849 0.05442 0.17579   -0.585474
 O 0.6078 0.03304 0.25475   -0.555735
 O 0.9684 0.76145 0.1895   -0.577497
 O 0.9682 0.64119 0.17391   -0.567152
 O 0.5315 0.92014 0.86299   -0.639204
 O 0.692 0.88155 0.91284   -0.556162
 O 0.4552 0.77838 0.92862   -0.542539
 O 0.5725 0.72944 0.88191   -0.602311
 O 0.1887 0.8078 0.7693   -0.58202
 O 0.2483 0.8137 0.8712   -0.592774
 O 0.9146 0.68647 0.29304   -0.92196
 O 0.8754 0.31177 0.70905   -0.929019
 O 0.8789 0.1542 0.7282   -0.558192
 O 0.7394 0.18525 0.65323   -0.563775
 O 0.8151 0.55442 0.32421   -0.585474
 O 0.8922 0.53304 0.24525   -0.555735
 O 0.5316 0.26145 0.3105   -0.577497
 O 0.5318 0.14119 0.32609   -0.567152
 O 0.9685 0.42014 0.63701   -0.639204
 O 0.808 0.38155 0.58716   -0.556162
 O 0.0448 0.27838 0.57138   -0.542539
 O 0.9275 0.22944 0.61809   -0.602311
 O 0.3113 0.3078 0.7307   -0.58202
 O 0.2517 0.3137 0.6288   -0.592774
 O 0.4146 0.81353 0.79304   -0.92196
 O 0.3754 0.18823 0.20905   -0.929019
 O 0.3789 0.3458 0.2282   -0.558192
 O 0.2394 0.31475 0.15323   -0.563775
 O 0.3151 0.94558 0.82421   -0.585474
 O 0.3922 0.96696 0.74525   -0.555735
 O 0.0316 0.23855 0.8105   -0.577497
 O 0.0318 0.35881 0.82609   -0.567152
 O 0.4685 0.07986 0.13701   -0.639204
 O 0.308 0.11845 0.08716   -0.556162
 O 0.5448 0.22162 0.07138   -0.542539
 O 0.4275 0.27056 0.11809   -0.602311
 O 0.8113 0.1922 0.2307   -0.58202
 O 0.7517 0.1863 0.1288   -0.592774
 O 0.0854 0.31353 0.70696   -0.92196
 O 0.1246 0.68823 0.29095   -0.929019
 O 0.1211 0.8458 0.2718   -0.558192
 O 0.2606 0.81475 0.34677   -0.563775
 O 0.1849 0.44558 0.67579   -0.585474
 O 0.1078 0.46696 0.75475   -0.555735
 O 0.4684 0.73855 0.6895   -0.577497
 O 0.4682 0.85881 0.67391   -0.567152
 O 0.0315 0.57986 0.36299   -0.639204
 O 0.192 0.61845 0.41284   -0.556162
 O 0.9552 0.72162 0.42862   -0.542539
 O 0.0725 0.77056 0.38191   -0.602311
 O 0.6887 0.6922 0.2693   -0.58202
 O 0.7483 0.6863 0.3712   -0.592774
