{'_ref': 'TBD', '_srcid': 'CAKYAQ_clean', 'submitters': [{'name': 'Dalar Nazarian Jeff Camp and David Sholl', 'email': 'dalar@gatech.edu jcamp6@gatech.edu'}], '_method': 'VASP DFT with PBE;DDEC'}
data_CuH8C6N8O
_symmetry_space_group_name_H-M   'P 1'
_cell_length_a   7.94400000
_cell_length_b   12.41400000
_cell_length_c   12.41400000
_cell_angle_alpha   90.00000000
_cell_angle_beta   90.00000000
_cell_angle_gamma   90.00000000
_symmetry_Int_Tables_number   1
_chemical_formula_structural   CuH8C6N8O
_chemical_formula_sum   'Cu4 H32 C24 N32 O4'
_cell_volume   1224.22915382
_cell_formula_units_Z   4
loop_
 _symmetry_equiv_pos_site_id
 _symmetry_equiv_pos_as_xyz
  1  'x, y, z'
loop_
 _atom_site_label
 _atom_site_fract_x
 _atom_site_fract_y
 _atom_site_fract_z
 _atom_site_charge
 Cu 0.5878 0.17716 0.48593   0.686212
 Cu 0.0878 0.82284 0.51407   0.686212
 Cu 0.3378 0.51407 0.17716   0.686212
 Cu 0.8378 0.48593 0.82284   0.686212
 H 0.734 0.4007 0.3942   0.136126
 H 0.7025 0.4438 0.2773   0.138356
 H 0.9114 0.316 0.2722   0.044467
 H 0.7549 0.2727 0.2082   0.042366
 H 0.9056 0.1099 0.241   0.063412
 H 0.016 0.136 0.3424   0.040217
 H 0.7511 0.9857 0.3377   0.130737
 H 0.9425 0.9561 0.3452   0.131335
 H 0.234 0.5993 0.6058   0.136126
 H 0.2025 0.5562 0.7227   0.138356
 H 0.4114 0.684 0.7278   0.044467
 H 0.2549 0.7273 0.7918   0.042366
 H 0.4056 0.8901 0.759   0.063413
 H 0.516 0.864 0.6576   0.040217
 H 0.2511 0.0143 0.6623   0.130737
 H 0.4425 0.0439 0.6548   0.131335
 H 0.484 0.6058 0.4007   0.136129
 H 0.4525 0.7227 0.4438   0.138357
 H 0.6614 0.7278 0.316   0.044467
 H 0.5049 0.7918 0.2727   0.042366
 H 0.6556 0.759 0.1099   0.063416
 H 0.766 0.6576 0.136   0.040217
 H 0.5011 0.6623 0.9857   0.130738
 H 0.6925 0.6548 0.9561   0.131336
 H 0.984 0.3942 0.5993   0.136129
 H 0.9525 0.2773 0.5562   0.138357
 H 0.1614 0.2722 0.684   0.044467
 H 0.0049 0.2082 0.7273   0.042366
 H 0.1556 0.241 0.8901   0.063416
 H 0.266 0.3424 0.864   0.040217
 H 0.0011 0.3377 0.0143   0.130738
 H 0.1925 0.3452 0.0439   0.131336
 C 0.5076 0.3532 0.3335   0.350473
 C 0.6912 0.3813 0.3236   -0.31249
 C 0.7957 0.2921 0.2793   0.173724
 C 0.9037 0.1162 0.3189   0.17568
 C 0.8586 0.0087 0.3668   -0.309745
 C 0.847 0.0102 0.4883   0.356075
 C 0.0076 0.6468 0.6665   0.350473
 C 0.1912 0.6187 0.6764   -0.31249
 C 0.2957 0.7079 0.7207   0.173724
 C 0.4037 0.8838 0.6811   0.17568
 C 0.3586 0.9913 0.6332   -0.309745
 C 0.347 0.9898 0.5117   0.356075
 C 0.2576 0.6665 0.3532   0.350474
 C 0.4412 0.6764 0.3813   -0.312491
 C 0.5457 0.7207 0.2921   0.173724
 C 0.6537 0.6811 0.1162   0.175679
 C 0.6086 0.6332 0.0087   -0.309745
 C 0.597 0.5117 0.0102   0.356075
 C 0.7576 0.3335 0.6468   0.350474
 C 0.9412 0.3236 0.6187   -0.312491
 C 0.0457 0.2793 0.7079   0.173724
 C 0.1537 0.3189 0.8838   0.175679
 C 0.1086 0.3668 0.9913   -0.309745
 C 0.097 0.4883 0.9898   0.356075
 N 0.4505 0.2756 0.4001   -0.238702
 N 0.2819 0.2744 0.3956   -0.084781
 N 0.236 0.3535 0.3248   -0.12754
 N 0.3792 0.4037 0.2894   -0.270566
 N 0.7583 0.0783 0.5468   -0.259165
 N 0.7866 0.0567 0.6489   -0.087333
 N 0.8934 0.9779 0.6564   -0.120407
 N 0.9407 0.9488 0.5527   -0.283264
 N 0.9505 0.7244 0.5999   -0.238702
 N 0.7819 0.7256 0.6044   -0.08478
 N 0.736 0.6465 0.6752   -0.12754
 N 0.8792 0.5963 0.7106   -0.270566
 N 0.2583 0.9217 0.4532   -0.259165
 N 0.2866 0.9433 0.3511   -0.087333
 N 0.3934 0.0221 0.3436   -0.120405
 N 0.4407 0.0512 0.4473   -0.283265
 N 0.2005 0.5999 0.2756   -0.238702
 N 0.0319 0.6044 0.2744   -0.08478
 N 0.986 0.6752 0.3535   -0.127538
 N 0.1292 0.7106 0.4037   -0.270566
 N 0.5083 0.4532 0.0783   -0.259165
 N 0.5366 0.3511 0.0567   -0.087332
 N 0.6434 0.3436 0.9779   -0.120405
 N 0.6907 0.4473 0.9488   -0.283264
 N 0.7005 0.4001 0.7244   -0.238702
 N 0.5319 0.3956 0.7256   -0.084779
 N 0.486 0.3248 0.6465   -0.127538
 N 0.6292 0.2894 0.5963   -0.270566
 N 0.0083 0.5468 0.9217   -0.259165
 N 0.0366 0.6489 0.9433   -0.087332
 N 0.1434 0.6564 0.0221   -0.120404
 N 0.1907 0.5527 0.0512   -0.283265
 O 0.7887 0.1999 0.3487   -0.375194
 O 0.2887 0.8001 0.6513   -0.375194
 O 0.5387 0.6513 0.1999   -0.375194
 O 0.0387 0.3487 0.8001   -0.375194
