{'_ref': 'TBD', '_srcid': 'CAKYAQ_clean', 'submitters': [{'name': 'Dalar Nazarian Jeff Camp and David Sholl', 'email': 'dalar@gatech.edu jcamp6@gatech.edu'}], '_method': 'VASP DFT with PBE;DDEC'}
data_CuH8C6N8O
_symmetry_space_group_name_H-M   'P 1'
_cell_length_a   7.90730000
_cell_length_b   12.29960000
_cell_length_c   12.29960000
_cell_angle_alpha   90.00000000
_cell_angle_beta   90.00000000
_cell_angle_gamma   90.00000000
_symmetry_Int_Tables_number   1
_chemical_formula_structural   CuH8C6N8O
_chemical_formula_sum   'Cu4 H32 C24 N32 O4'
_cell_volume   1196.21761043
_cell_formula_units_Z   4
loop_
 _symmetry_equiv_pos_site_id
 _symmetry_equiv_pos_as_xyz
  1  'x, y, z'
loop_
 _atom_site_label
 _atom_site_fract_x
 _atom_site_fract_y
 _atom_site_fract_z
 _atom_site_charge
 Cu 0.34757 0.32355 0.0154   0.692258
 Cu 0.84757 0.67645 0.9846   0.692258
 Cu 0.09757 0.9846 0.32355   0.692258
 Cu 0.59757 0.0154 0.67645   0.692258
 H 0.4602 0.0541 0.2238   0.134146
 H 0.4933 0.0965 0.1056   0.136641
 H 0.673 0.1854 0.2294   0.041436
 H 0.5152 0.2293 0.2934   0.042705
 H 0.6647 0.3903 0.2627   0.066187
 H 0.7789 0.3641 0.1616   0.041159
 H 0.695 0.5467 0.1583   0.127689
 H 0.5048 0.5114 0.1588   0.132327
 H 0.9602 0.9459 0.7762   0.134146
 H 0.9933 0.9035 0.8944   0.136641
 H 0.173 0.8146 0.7706   0.041436
 H 0.0152 0.7707 0.7066   0.042705
 H 0.1647 0.6097 0.7373   0.066187
 H 0.2789 0.6359 0.8384   0.041159
 H 0.195 0.4533 0.8417   0.127689
 H 0.0048 0.4886 0.8412   0.132327
 H 0.2102 0.7762 0.0541   0.134146
 H 0.2433 0.8944 0.0965   0.136643
 H 0.423 0.7706 0.1854   0.041437
 H 0.2652 0.7066 0.2293   0.042706
 H 0.4147 0.7373 0.3903   0.06619
 H 0.5289 0.8384 0.3641   0.041159
 H 0.445 0.8417 0.5467   0.12769
 H 0.2548 0.8412 0.5114   0.132328
 H 0.7102 0.2238 0.9459   0.134146
 H 0.7433 0.1056 0.9035   0.136643
 H 0.923 0.2294 0.8146   0.041437
 H 0.7652 0.2934 0.7707   0.042706
 H 0.9147 0.2627 0.6097   0.06619
 H 0.0289 0.1616 0.6359   0.041159
 H 0.945 0.1583 0.4533   0.12769
 H 0.7548 0.1588 0.4886   0.132328
 C 0.2667 0.1455 0.1656   0.36508
 C 0.4497 0.1168 0.1764   -0.311392
 C 0.5566 0.2092 0.222   0.168446
 C 0.6654 0.3838 0.1841   0.169379
 C 0.6167 0.4914 0.1334   -0.311603
 C 0.6162 0.4905 0.0114   0.356931
 C 0.7667 0.8545 0.8344   0.36508
 C 0.9497 0.8832 0.8236   -0.311392
 C 0.0566 0.7908 0.778   0.168446
 C 0.1654 0.6162 0.8159   0.169379
 C 0.1167 0.5086 0.8666   -0.311603
 C 0.1162 0.5095 0.9886   0.356931
 C 0.0167 0.8344 0.1455   0.365081
 C 0.1997 0.8236 0.1168   -0.311393
 C 0.3066 0.778 0.2092   0.168446
 C 0.4154 0.8159 0.3838   0.169378
 C 0.3667 0.8666 0.4914   -0.311603
 C 0.3662 0.9886 0.4905   0.356931
 C 0.5167 0.1656 0.8545   0.365081
 C 0.6997 0.1764 0.8832   -0.311393
 C 0.8066 0.222 0.7908   0.168446
 C 0.9154 0.1841 0.6162   0.169378
 C 0.8667 0.1334 0.5086   -0.311603
 C 0.8662 0.0114 0.5095   0.356931
 N 0.2106 0.2254 0.1011   -0.263093
 N 0.0387 0.2259 0.1087   -0.076692
 N 0.9939 0.147 0.1729   -0.103186
 N 0.1364 0.0953 0.2114   -0.294915
 N 0.516 0.4218 0.9532   -0.280626
 N 0.5457 0.4435 0.8477   -0.082406
 N 0.6571 0.5216 0.8427   -0.128342
 N 0.7013 0.551 0.9453   -0.257386
 N 0.7106 0.7746 0.8989   -0.263093
 N 0.5387 0.7741 0.8913   -0.076691
 N 0.4939 0.853 0.8271   -0.103186
 N 0.6364 0.9047 0.7886   -0.294915
 N 0.016 0.5782 0.0468   -0.280627
 N 0.0457 0.5565 0.1523   -0.082407
 N 0.1571 0.4784 0.1573   -0.12834
 N 0.2013 0.449 0.0547   -0.257387
 N 0.9606 0.8989 0.2254   -0.263094
 N 0.7887 0.8913 0.2259   -0.076691
 N 0.7439 0.8271 0.147   -0.103184
 N 0.8864 0.7886 0.0953   -0.294916
 N 0.266 0.0468 0.4218   -0.280627
 N 0.2957 0.1523 0.4435   -0.082404
 N 0.4071 0.1573 0.5216   -0.12834
 N 0.4513 0.0547 0.551   -0.257386
 N 0.4606 0.1011 0.7746   -0.263094
 N 0.2887 0.1087 0.7741   -0.076689
 N 0.2439 0.1729 0.853   -0.103184
 N 0.3864 0.2114 0.9047   -0.294916
 N 0.766 0.9532 0.5782   -0.280627
 N 0.7957 0.8477 0.5565   -0.082405
 N 0.9071 0.8427 0.4784   -0.128338
 N 0.9513 0.9453 0.449   -0.257387
 O 0.5491 0.3009 0.1513   -0.364748
 O 0.0491 0.6991 0.8487   -0.364748
 O 0.2991 0.8487 0.3009   -0.364748
 O 0.7991 0.1513 0.6991   -0.364748
