{'_ref': 'TBD', '_srcid': 'CAKYAQ_clean', 'submitters': [{'name': 'Dalar Nazarian Jeff Camp and David Sholl', 'email': 'dalar@gatech.edu jcamp6@gatech.edu'}], '_method': 'VASP DFT with PBE;DDEC'}
data_MnH24(C5N)8
_symmetry_space_group_name_H-M   'P 1'
_cell_length_a   9.34100002
_cell_length_b   19.16990002
_cell_length_c   19.16990000
_cell_angle_alpha   117.41469962
_cell_angle_beta   99.34759965
_cell_angle_gamma   99.34759911
_symmetry_Int_Tables_number   1
_chemical_formula_structural   MnH24(C5N)8
_chemical_formula_sum   'Mn3 H72 C120 N24'
_cell_volume   2894.36062395
_cell_formula_units_Z   3
loop_
 _symmetry_equiv_pos_site_id
 _symmetry_equiv_pos_as_xyz
  1  'x, y, z'
loop_
 _atom_site_label
 _atom_site_fract_x
 _atom_site_fract_y
 _atom_site_fract_z
 _atom_site_charge
 Mn 0.0 0.5 0.0   0.467939
 Mn 0.0 0.0 0.5   0.464172
 Mn 0.5 0.5 0.5   0.463661
 H 0.7464 0.6472 0.2199   0.119945
 H 0.5814 0.5068 0.1428   0.110638
 H 0.4134 0.764 0.1148   0.115792
 H 0.2433 0.804 0.202   0.120486
 H 0.6163 0.5928 0.0154   0.123377
 H 0.8242 0.6688 0.0108   0.051641
 H 0.5964 0.7862 0.9444   0.064495
 H 0.3812 0.7165 0.946   0.126303
 H 0.1615 0.7422 0.3166   0.13852
 H 0.8335 0.1418 0.5685   0.077531
 H 0.1278 0.0911 0.6903   0.072552
 H 0.8502 0.7918 0.1905   0.141017
 H 0.5265 0.7801 0.4273   0.122639
 H 0.4386 0.8572 0.364   0.110182
 H 0.2986 0.8852 0.6492   0.115573
 H 0.0413 0.798 0.602   0.120234
 H 0.6009 0.9846 0.5774   0.121706
 H 0.8134 0.9892 0.658   0.050999
 H 0.652 0.0556 0.8418   0.064889
 H 0.4352 0.054 0.7705   0.124663
 H 0.8449 0.6834 0.4256   0.141945
 H 0.265 0.4315 0.5733   0.077821
 H 0.4375 0.3097 0.4008   0.072268
 H 0.6597 0.8095 0.6013   0.140286
 H 0.0992 0.5727 0.3528   0.122559
 H 0.0746 0.636 0.4932   0.10968
 H 0.6494 0.3508 0.236   0.115109
 H 0.4393 0.398 0.196   0.120163
 H 0.0235 0.4226 0.4072   0.12178
 H 0.1554 0.342 0.3312   0.051362
 H 0.8102 0.1582 0.2138   0.064323
 H 0.6647 0.2295 0.2835   0.125404
 H 0.4193 0.5744 0.2578   0.140409
 H 0.6917 0.4267 0.8582   0.076921
 H 0.0367 0.5992 0.9089   0.071697
 H 0.0584 0.3987 0.2082   0.139878
 H 0.2536 0.3528 0.7801   0.119945
 H 0.4186 0.4932 0.8572   0.110638
 H 0.5866 0.236 0.8852   0.115792
 H 0.7567 0.196 0.798   0.120486
 H 0.3837 0.4072 0.9846   0.123378
 H 0.1758 0.3312 0.9892   0.051641
 H 0.4036 0.2138 0.0556   0.064502
 H 0.6188 0.2835 0.054   0.126301
 H 0.8385 0.2578 0.6834   0.138516
 H 0.1665 0.8582 0.4315   0.077525
 H 0.8722 0.9089 0.3097   0.07255
 H 0.1498 0.2082 0.8095   0.141014
 H 0.4735 0.2199 0.5727   0.122637
 H 0.5614 0.1428 0.636   0.110182
 H 0.7014 0.1148 0.3508   0.115571
 H 0.9587 0.202 0.398   0.120235
 H 0.3991 0.0154 0.4226   0.121706
 H 0.1866 0.0108 0.342   0.050999
 H 0.348 0.9444 0.1582   0.064896
 H 0.5648 0.946 0.2295   0.124662
 H 0.1551 0.3166 0.5744   0.141941
 H 0.735 0.5685 0.4267   0.077815
 H 0.5625 0.6903 0.5992   0.072266
 H 0.3403 0.1905 0.3987   0.140282
 H 0.9008 0.4273 0.6472   0.122558
 H 0.9254 0.364 0.5068   0.10968
 H 0.3506 0.6492 0.764   0.115108
 H 0.5607 0.602 0.804   0.120163
 H 0.9765 0.5774 0.5928   0.121781
 H 0.8446 0.658 0.6688   0.051362
 H 0.1898 0.8418 0.7862   0.06433
 H 0.3353 0.7705 0.7165   0.125402
 H 0.5807 0.4256 0.7422   0.140406
 H 0.3083 0.5733 0.1418   0.076916
 H 0.9633 0.4008 0.0911   0.071695
 H 0.9416 0.6013 0.7918   0.139875
 C 0.1254 0.3933 0.8645   0.173143
 C 0.7583 0.604 0.174   -0.19474
 C 0.6674 0.5268 0.1318   -0.186893
 C 0.73 0.4821 0.067   0.175895
 C 0.6725 0.3993 0.0115   -0.157123
 C 0.7392 0.3549 0.9518   0.164992
 C 0.324 0.7304 0.1097   -0.189761
 C 0.2319 0.7525 0.1581   -0.174478
 C 0.1107 0.6793 0.1275   0.162101
 C 0.0053 0.3241 0.8368   -0.164374
 C 0.4704 0.6461 0.9828   0.171307
 C 0.6078 0.6324 0.000999999999998   -0.249264
 C 0.7321 0.6785 0.9978   0.217709
 C 0.6002 0.7465 0.9592   0.209679
 C 0.471 0.7052 0.9603   -0.238677
 C 0.9971 0.2477 0.7605   0.175353
 C 0.9006 0.2256 0.6869   -0.218337
 C 0.8967 0.1549 0.6181   0.137907
 C 0.0688 0.1253 0.6885   0.166746
 C 0.9168 0.8039 0.2387   -0.205998
 C 0.2609 0.1355 0.5288   0.173198
 C 0.5843 0.826 0.43   -0.199304
 C 0.5356 0.8682 0.395   -0.185795
 C 0.663 0.933 0.4151   0.177638
 C 0.661 0.9885 0.3878   -0.157642
 C 0.7874 0.0482 0.4031   0.165273
 C 0.2143 0.8903 0.6207   -0.18632
 C 0.0738 0.8419 0.5944   -0.178744
 C 0.9832 0.8725 0.5518   0.163488
 C 0.1685 0.1632 0.4873   -0.164891
 C 0.4876 0.0172 0.6633   0.165709
 C 0.6068 0.999 0.6314   -0.242158
 C 0.7343 0.0022 0.6807   0.216454
 C 0.641 0.0408 0.7873   0.209769
 C 0.5107 0.0397 0.7449   -0.236789
 C 0.2366 0.2395 0.4872   0.180152
 C 0.2137 0.3131 0.5387   -0.224845
 C 0.2786 0.3819 0.5368   0.138978
 C 0.3803 0.3115 0.4368   0.164085
 C 0.6781 0.7613 0.5652   -0.207462
 C 0.7321 0.4712 0.6067   0.173616
 C 0.1543 0.57 0.396   -0.199298
 C 0.1406 0.605 0.4732   -0.186605
 C 0.2479 0.5849 0.5179   0.176478
 C 0.2732 0.6122 0.6007   -0.157187
 C 0.3843 0.5969 0.6451   0.164682
 C 0.5936 0.3793 0.2696   -0.184999
 C 0.4794 0.4056 0.2475   -0.178963
 C 0.4314 0.4482 0.3207   0.164901
 C 0.6812 0.5127 0.6759   -0.165797
 C 0.8243 0.3367 0.3539   0.168014
 C 0.9754 0.3686 0.3676   -0.2434
 C 0.0536 0.3193 0.3215   0.21563
 C 0.8537 0.2127 0.2535   0.210226
 C 0.7658 0.2551 0.2948   -0.238098
 C 0.7494 0.5128 0.7523   0.177595
 C 0.675 0.4613 0.7744   -0.223387
 C 0.7418 0.4632 0.8451   0.140569
 C 0.9435 0.5632 0.8747   0.166528
 C 0.1129 0.4348 0.1961   -0.203805
 C 0.8746 0.6067 0.1355   0.173137
 C 0.2417 0.396 0.826   -0.194747
 C 0.3326 0.4732 0.8682   -0.186893
 C 0.27 0.5179 0.933   0.175895
 C 0.3275 0.6007 0.9885   -0.157121
 C 0.2608 0.6451 0.0482   0.16499
 C 0.676 0.2696 0.8903   -0.189763
 C 0.7681 0.2475 0.8419   -0.174477
 C 0.8893 0.3207 0.8725   0.162102
 C 0.9947 0.6759 0.1632   -0.164373
 C 0.5296 0.3539 0.0172   0.171308
 C 0.3922 0.3676 0.999   -0.249264
 C 0.2679 0.3215 0.0022   0.21771
 C 0.3998 0.2535 0.0408   0.209677
 C 0.529 0.2948 0.0397   -0.238676
 C 0.0029 0.7523 0.2395   0.175358
 C 0.0994 0.7744 0.3131   -0.21834
 C 0.1033 0.8451 0.3819   0.137909
 C 0.9312 0.8747 0.3115   0.16674
 C 0.0832 0.1961 0.7613   -0.205997
 C 0.7391 0.8645 0.4712   0.173199
 C 0.4157 0.174 0.57   -0.199302
 C 0.4644 0.1318 0.605   -0.185796
 C 0.337 0.067 0.5849   0.177637
 C 0.339 0.0115 0.6122   -0.157636
 C 0.2126 0.9518 0.5969   0.165276
 C 0.7857 0.1097 0.3793   -0.186316
 C 0.9262 0.1581 0.4056   -0.178746
 C 0.0168 0.1275 0.4482   0.163501
 C 0.8315 0.8368 0.5127   -0.164877
 C 0.5124 0.9828 0.3367   0.165714
 C 0.3932 0.000999999999998 0.3686   -0.242158
 C 0.2657 0.9978 0.3193   0.216454
 C 0.359 0.9592 0.2127   0.209768
 C 0.4893 0.9603 0.2551   -0.236788
 C 0.7634 0.7605 0.5128   0.180153
 C 0.7863 0.6869 0.4613   -0.224848
 C 0.7214 0.6181 0.4632   0.13898
 C 0.6197 0.6885 0.5632   0.164076
 C 0.3219 0.2387 0.4348   -0.207467
 C 0.2679 0.5288 0.3933   0.173614
 C 0.8457 0.43 0.604   -0.1993
 C 0.8594 0.395 0.5268   -0.186606
 C 0.7521 0.4151 0.4821   0.176477
 C 0.7268 0.3878 0.3993   -0.157184
 C 0.6157 0.4031 0.3549   0.164684
 C 0.4064 0.6207 0.7304   -0.184996
 C 0.5206 0.5944 0.7525   -0.178965
 C 0.5686 0.5518 0.6793   0.164912
 C 0.3188 0.4873 0.3241   -0.165786
 C 0.1757 0.6633 0.6461   0.168016
 C 0.0246 0.6314 0.6324   -0.2434
 C 0.9464 0.6807 0.6785   0.215631
 C 0.1463 0.7873 0.7465   0.210225
 C 0.2342 0.7449 0.7052   -0.238098
 C 0.2506 0.4872 0.2477   0.177599
 C 0.325 0.5387 0.2256   -0.223391
 C 0.2582 0.5368 0.1549   0.140571
 C 0.0565 0.4368 0.1253   0.16652
 C 0.8871 0.5652 0.8039   -0.203807
 N 0.14467 0.46894 0.93187   -0.304847
 N 0.87107 0.38614 0.94117   -0.292105
 N 0.7319 0.734 0.9777   -0.448413
 N 0.9792 0.1036 0.6187   -0.224721
 N 0.2128 0.06813 0.53707   -0.304757
 N 0.9299 0.05883 0.44497   -0.291459
 N 0.7542 0.0223 0.7563   -0.447967
 N 0.3605 0.3813 0.4849   -0.222557
 N 0.67573 0.46293 0.53106   -0.302603
 N 0.48493 0.55503 0.61386   -0.292545
 N 0.9979 0.2437 0.266   -0.447148
 N 0.8756 0.5151 0.8964   -0.226232
 N 0.85533 0.53106 0.06813   -0.304847
 N 0.12893 0.61386 0.05883   -0.292105
 N 0.2681 0.266 0.0223   -0.448414
 N 0.0208 0.8964 0.3813   -0.224721
 N 0.7872 0.93187 0.46293   -0.304757
 N 0.0701 0.94117 0.55503   -0.291458
 N 0.2458 0.9777 0.2437   -0.447968
 N 0.6395 0.6187 0.5151   -0.222556
 N 0.32427 0.53707 0.46894   -0.302603
 N 0.51507 0.44497 0.38614   -0.292545
 N 0.0021 0.7563 0.734   -0.447149
 N 0.1244 0.4849 0.1036   -0.226232
