{'_ref': 'TBD', '_srcid': 'CAKYAQ_clean', 'submitters': [{'name': 'Dalar Nazarian Jeff Camp and David Sholl', 'email': 'dalar@gatech.edu jcamp6@gatech.edu'}], '_method': 'VASP DFT with PBE;DDEC'}
data_Cu3Mo3H24C40(N4O3)2
_symmetry_space_group_name_H-M   'P 1'
_cell_length_a   9.58790037
_cell_length_b   21.84440000
_cell_length_c   21.84530000
_cell_angle_alpha   90.00000000
_cell_angle_beta   98.78499790
_cell_angle_gamma   90.00000000
_symmetry_Int_Tables_number   1
_chemical_formula_structural   Cu3Mo3H24C40(N4O3)2
_chemical_formula_sum   'Cu12 Mo12 H96 C160 N32 O24'
_cell_volume   4521.6459865
_cell_formula_units_Z   4
loop_
 _symmetry_equiv_pos_site_id
 _symmetry_equiv_pos_as_xyz
  1  'x, y, z'
loop_
 _atom_site_label
 _atom_site_fract_x
 _atom_site_fract_y
 _atom_site_fract_z
 _atom_site_charge
 Cu 0.94621 0.68985 0.85159   0.499039
 Cu 0.45376 0.67182 0.67162   0.901389
 Cu 0.49684 0.7604 0.25211   0.641546
 Cu 0.55379 0.18985 0.14841   0.499039
 Cu 0.04624 0.17182 0.32838   0.901389
 Cu 0.00316 0.2604 0.74789   0.641546
 Cu 0.05379 0.31015 0.14841   0.499039
 Cu 0.54624 0.32818 0.32838   0.901389
 Cu 0.50316 0.2396 0.74789   0.641546
 Cu 0.44621 0.81015 0.85159   0.499039
 Cu 0.95376 0.82818 0.67162   0.901389
 Cu 0.99684 0.7396 0.25211   0.641546
 Mo 0.88018 0.67308 0.64934   0.653648
 Mo 0.54439 0.66313 0.84041   0.516373
 Mo 0.68828 0.75092 0.73971   1.540874
 Mo 0.61982 0.17308 0.35066   0.653648
 Mo 0.95561 0.16313 0.15959   0.516373
 Mo 0.81172 0.25092 0.26029   1.540874
 Mo 0.11982 0.32692 0.35066   0.653648
 Mo 0.45561 0.33687 0.15959   0.516373
 Mo 0.31172 0.24908 0.26029   1.540874
 Mo 0.38018 0.82692 0.64934   0.653648
 Mo 0.04439 0.83687 0.84041   0.516373
 Mo 0.18828 0.74908 0.73971   1.540874
 H 0.9068 0.6564 0.9811   0.047191
 H 0.2376 0.7002 0.9084   0.034565
 H 0.028 0.6759 0.0793   0.112707
 H 0.3659 0.7232 0.0035   0.123228
 H 0.7154 0.0729 0.1789   0.028382
 H 0.317 0.1088 0.1621   0.038639
 H 0.2625 0.0066 0.1836   0.127155
 H 0.6663 0.9699 0.2016   0.115527
 H 0.5661 0.8291 0.4941   0.126587
 H 0.6801 0.8368 0.5981   0.052581
 H 0.0495 0.815 0.5513   0.059552
 H 0.9528 0.8059 0.445   0.136501
 H 0.7699 0.4215 0.3228   0.063153
 H 0.3531 0.4308 0.3238   0.063955
 H 0.7775 0.5297 0.3082   0.124094
 H 0.3584 0.5357 0.3022   0.116618
 H 0.1715 0.8278 0.0542   0.12029
 H 0.2691 0.9245 0.1036   0.120524
 H 0.5767 0.9825 0.3182   0.084388
 H 0.6713 0.9266 0.4109   0.123349
 H 0.7897 0.6925 0.4564   0.094861
 H 0.7193 0.5956 0.4027   0.120217
 H 0.4506 0.5396 0.1802   0.093075
 H 0.3133 0.595 0.0956   0.121439
 H 0.5932 0.1564 0.0189   0.047191
 H 0.2624 0.2002 0.0916   0.034565
 H 0.472 0.1759 0.9207   0.112707
 H 0.1341 0.2232 0.9965   0.123228
 H 0.7846 0.5729 0.8211   0.028382
 H 0.183 0.6088 0.8379   0.038639
 H 0.2375 0.5066 0.8164   0.127155
 H 0.8337 0.4699 0.7984   0.115527
 H 0.9339 0.3291 0.5059   0.126587
 H 0.8199 0.3368 0.4019   0.052581
 H 0.4505 0.315 0.4487   0.059552
 H 0.5472 0.3059 0.555   0.136501
 H 0.7301 0.9215 0.6772   0.063153
 H 0.1469 0.9308 0.6762   0.063955
 H 0.7225 0.0297 0.6918   0.124093
 H 0.1416 0.0357 0.6978   0.116618
 H 0.3285 0.3278 0.9458   0.12029
 H 0.2309 0.4245 0.8964   0.120523
 H 0.9233 0.4825 0.6818   0.084388
 H 0.8287 0.4266 0.5891   0.123349
 H 0.7103 0.1925 0.5436   0.094861
 H 0.7807 0.0956 0.5973   0.120216
 H 0.0494 0.0396 0.8198   0.093076
 H 0.1867 0.095 0.9044   0.121438
 H 0.0932 0.3436 0.0189   0.047191
 H 0.7624 0.2998 0.0916   0.034565
 H 0.972 0.3241 0.9207   0.112707
 H 0.6341 0.2768 0.9965   0.123228
 H 0.2846 0.9271 0.8211   0.028383
 H 0.683 0.8912 0.8379   0.038639
 H 0.7375 0.9934 0.8164   0.127155
 H 0.3337 0.0301 0.7984   0.115528
 H 0.4339 0.1709 0.5059   0.126587
 H 0.3199 0.1632 0.4019   0.052581
 H 0.9505 0.185 0.4487   0.059552
 H 0.0472 0.1941 0.555   0.136501
 H 0.2301 0.5785 0.6772   0.063153
 H 0.6469 0.5692 0.6762   0.063955
 H 0.2225 0.4703 0.6918   0.124094
 H 0.6416 0.4643 0.6978   0.116618
 H 0.8285 0.1722 0.9458   0.12029
 H 0.7309 0.0755 0.8964   0.120523
 H 0.4233 0.0175 0.6818   0.084388
 H 0.3287 0.0734 0.5891   0.123349
 H 0.2103 0.3075 0.5436   0.094861
 H 0.2807 0.4044 0.5973   0.120217
 H 0.5494 0.4604 0.8198   0.093076
 H 0.6867 0.405 0.9044   0.121439
 H 0.4068 0.8436 0.9811   0.047191
 H 0.7376 0.7998 0.9084   0.034565
 H 0.528 0.8241 0.0793   0.112707
 H 0.8659 0.7768 0.0035   0.123228
 H 0.2154 0.4271 0.1789   0.028383
 H 0.817 0.3912 0.1621   0.038639
 H 0.7625 0.4934 0.1836   0.127155
 H 0.1663 0.5301 0.2016   0.115528
 H 0.0661 0.6709 0.4941   0.126587
 H 0.1801 0.6632 0.5981   0.052581
 H 0.5495 0.685 0.5513   0.059552
 H 0.4528 0.6941 0.445   0.136501
 H 0.2699 0.0785 0.3228   0.063154
 H 0.8531 0.0692 0.3238   0.063955
 H 0.2775 0.9703 0.3082   0.124094
 H 0.8584 0.9643 0.3022   0.116618
 H 0.6715 0.6722 0.0542   0.12029
 H 0.7691 0.5755 0.1036   0.120522
 H 0.0767 0.5175 0.3182   0.084388
 H 0.1713 0.5734 0.4109   0.123348
 H 0.2897 0.8075 0.4564   0.094861
 H 0.2193 0.9044 0.4027   0.120216
 H 0.9506 0.9604 0.1802   0.093076
 H 0.8133 0.905 0.0956   0.121438
 C 0.9985 0.6715 0.9859   0.183696
 C 0.1948 0.6978 0.9438   0.146608
 C 0.0724 0.6832 0.0451   -0.20696
 C 0.2723 0.7107 0.000300000000003   -0.202067
 C 0.2056 0.7046 0.0541   0.159746
 C 0.6227 0.0609 0.1798   0.162441
 C 0.3909 0.081 0.1701   0.141269
 C 0.3553 0.0189 0.1835   -0.210941
 C 0.5919 0.9976 0.194   -0.203314
 C 0.4677 0.9786 0.1965   0.174443
 C 0.6632 0.8244 0.5046   -0.22202
 C 0.7335 0.8294 0.5667   0.174238
 C 0.7512 0.8118 0.4604   0.167493
 C 0.9522 0.8165 0.5394   0.177937
 C 0.8949 0.8105 0.4752   -0.217258
 C 0.6879 0.4448 0.3193   0.183475
 C 0.4367 0.4504 0.3189   0.150919
 C 0.5634 0.5414 0.2999   0.153512
 C 0.6924 0.5095 0.3089   -0.213031
 C 0.4414 0.513 0.3063   -0.191822
 C 0.2937 0.7223 0.1153   -0.134097
 C 0.3048 0.7827 0.1313   0.195045
 C 0.2357 0.832 0.0904   -0.163757
 C 0.2884 0.8851 0.1185   -0.185094
 C 0.3789 0.8692 0.1752   0.227294
 C 0.452 0.9127 0.2161   -0.172799
 C 0.5226 0.8975 0.2755   0.220497
 C 0.5788 0.9401 0.3224   -0.168677
 C 0.6341 0.91 0.3727   -0.180861
 C 0.6242 0.8435 0.3552   0.21635
 C 0.6804 0.7975 0.3944   -0.158664
 C 0.6791 0.7366 0.376   0.214836
 C 0.737 0.688 0.4173   -0.165232
 C 0.6993 0.6349 0.3875   -0.176202
 C 0.621 0.651 0.3269   0.230696
 C 0.5665 0.6097 0.2826   -0.157331
 C 0.4824 0.6242 0.2265   0.235014
 C 0.4336 0.5815 0.1788   -0.17916
 C 0.3601 0.6116 0.1323   -0.174633
 C 0.3667 0.6746 0.1494   0.202012
 C 0.5015 0.1715 0.0141   0.183696
 C 0.3052 0.1978 0.0562   0.146608
 C 0.4276 0.1832 0.9549   -0.20696
 C 0.2277 0.2107 0.9997   -0.202067
 C 0.2944 0.2046 0.9459   0.159746
 C 0.8773 0.5609 0.8202   0.16244
 C 0.1091 0.581 0.8299   0.141269
 C 0.1447 0.5189 0.8165   -0.210941
 C 0.9081 0.4976 0.806   -0.203314
 C 0.0323 0.4786 0.8035   0.174443
 C 0.8368 0.3244 0.4954   -0.22202
 C 0.7665 0.3294 0.4333   0.174237
 C 0.7488 0.3118 0.5396   0.167493
 C 0.5478 0.3165 0.4606   0.177936
 C 0.6051 0.3105 0.5248   -0.217258
 C 0.8121 0.9448 0.6807   0.183474
 C 0.0633 0.9504 0.6811   0.150919
 C 0.9366 0.0414 0.7001   0.153512
 C 0.8076 0.0095 0.6911   -0.213031
 C 0.0586 0.013 0.6937   -0.191822
 C 0.2063 0.2223 0.8847   -0.134097
 C 0.1952 0.2827 0.8687   0.195045
 C 0.2643 0.332 0.9096   -0.163758
 C 0.2116 0.3851 0.8815   -0.185094
 C 0.1211 0.3692 0.8248   0.227294
 C 0.048 0.4127 0.7839   -0.172799
 C 0.9774 0.3975 0.7245   0.220497
 C 0.9212 0.4401 0.6776   -0.168677
 C 0.8659 0.41 0.6273   -0.180861
 C 0.8758 0.3435 0.6448   0.21635
 C 0.8196 0.2975 0.6056   -0.158664
 C 0.8209 0.2366 0.624   0.214836
 C 0.763 0.188 0.5827   -0.165232
 C 0.8007 0.1349 0.6125   -0.176202
 C 0.879 0.151 0.6731   0.230696
 C 0.9335 0.1097 0.7174   -0.157331
 C 0.0176 0.1242 0.7735   0.235014
 C 0.0664 0.0815 0.8212   -0.17916
 C 0.1399 0.1116 0.8677   -0.174633
 C 0.1333 0.1746 0.8506   0.202012
 C 0.0015 0.3285 0.0141   0.183696
 C 0.8052 0.3022 0.0562   0.146608
 C 0.9276 0.3168 0.9549   -0.20696
 C 0.7277 0.2893 0.9997   -0.202067
 C 0.7944 0.2954 0.9459   0.159746
 C 0.3773 0.9391 0.8202   0.162441
 C 0.6091 0.919 0.8299   0.141269
 C 0.6447 0.9811 0.8165   -0.210941
 C 0.4081 0.0024 0.806   -0.203314
 C 0.5323 0.0214 0.8035   0.174443
 C 0.3368 0.1756 0.4954   -0.22202
 C 0.2665 0.1706 0.4333   0.174238
 C 0.2488 0.1882 0.5396   0.167493
 C 0.0478 0.1835 0.4606   0.177937
 C 0.1051 0.1895 0.5248   -0.217258
 C 0.3121 0.5552 0.6807   0.183475
 C 0.5633 0.5496 0.6811   0.150919
 C 0.4366 0.4586 0.7001   0.153512
 C 0.3076 0.4905 0.6911   -0.213031
 C 0.5586 0.487 0.6937   -0.191822
 C 0.7063 0.2777 0.8847   -0.134097
 C 0.6952 0.2173 0.8687   0.195045
 C 0.7643 0.168 0.9096   -0.163757
 C 0.7116 0.1149 0.8815   -0.185094
 C 0.6211 0.1308 0.8248   0.227294
 C 0.548 0.0873 0.7839   -0.172799
 C 0.4774 0.1025 0.7245   0.220497
 C 0.4212 0.0599 0.6776   -0.168677
 C 0.3659 0.09 0.6273   -0.180861
 C 0.3758 0.1565 0.6448   0.21635
 C 0.3196 0.2025 0.6056   -0.158664
 C 0.3209 0.2634 0.624   0.214836
 C 0.263 0.312 0.5827   -0.165232
 C 0.3007 0.3651 0.6125   -0.176202
 C 0.379 0.349 0.6731   0.230696
 C 0.4335 0.3903 0.7174   -0.157331
 C 0.5176 0.3758 0.7735   0.235014
 C 0.5664 0.4185 0.8212   -0.17916
 C 0.6399 0.3884 0.8677   -0.174633
 C 0.6333 0.3254 0.8506   0.202012
 C 0.4985 0.8285 0.9859   0.183695
 C 0.6948 0.8022 0.9438   0.146608
 C 0.5724 0.8168 0.0451   -0.20696
 C 0.7723 0.7893 0.000300000000003   -0.202067
 C 0.7056 0.7954 0.0541   0.159746
 C 0.1227 0.4391 0.1798   0.16244
 C 0.8909 0.419 0.1701   0.141269
 C 0.8553 0.4811 0.1835   -0.210941
 C 0.0919 0.5024 0.194   -0.203314
 C 0.9677 0.5214 0.1965   0.174443
 C 0.1632 0.6756 0.5046   -0.22202
 C 0.2335 0.6706 0.5667   0.174237
 C 0.2512 0.6882 0.4604   0.167493
 C 0.4522 0.6835 0.5394   0.177936
 C 0.3949 0.6895 0.4752   -0.217258
 C 0.1879 0.0552 0.3193   0.183474
 C 0.9367 0.0496 0.3189   0.150919
 C 0.0634 0.9586 0.2999   0.153512
 C 0.1924 0.9905 0.3089   -0.213031
 C 0.9414 0.987 0.3063   -0.191822
 C 0.7937 0.7777 0.1153   -0.134097
 C 0.8048 0.7173 0.1313   0.195045
 C 0.7357 0.668 0.0904   -0.163758
 C 0.7884 0.6149 0.1185   -0.185093
 C 0.8789 0.6308 0.1752   0.227294
 C 0.952 0.5873 0.2161   -0.172799
 C 0.0226 0.6025 0.2755   0.220497
 C 0.0788 0.5599 0.3224   -0.168677
 C 0.1341 0.59 0.3727   -0.180861
 C 0.1242 0.6565 0.3552   0.21635
 C 0.1804 0.7025 0.3944   -0.158664
 C 0.1791 0.7634 0.376   0.214836
 C 0.237 0.812 0.4173   -0.165232
 C 0.1993 0.8651 0.3875   -0.176202
 C 0.121 0.849 0.3269   0.230696
 C 0.0665 0.8903 0.2826   -0.157331
 C 0.9824 0.8758 0.2265   0.235014
 C 0.9336 0.9185 0.1788   -0.17916
 C 0.8601 0.8884 0.1323   -0.174633
 C 0.8667 0.8254 0.1494   0.202012
 N 0.0582 0.6818 0.9384   -0.285659
 N 0.5187 0.1015 0.1681   -0.286285
 N 0.8717 0.8239 0.5813   -0.35802
 N 0.5664 0.4188 0.3236   -0.366593
 N 0.548 0.8384 0.2974   -0.409949
 N 0.6063 0.7134 0.3216   -0.425683
 N 0.4409 0.6813 0.2087   -0.414597
 N 0.3863 0.8071 0.1836   -0.41507
 N 0.4418 0.1818 0.0616   -0.285659
 N 0.9813 0.6015 0.8319   -0.286285
 N 0.6283 0.3239 0.4187   -0.35802
 N 0.9336 0.9188 0.6764   -0.366593
 N 0.952 0.3384 0.7026   -0.409949
 N 0.8937 0.2134 0.6784   -0.425683
 N 0.0591 0.1813 0.7913   -0.414597
 N 0.1137 0.3071 0.8164   -0.41507
 N 0.9418 0.3182 0.0616   -0.285659
 N 0.4813 0.8985 0.8319   -0.286285
 N 0.1283 0.1761 0.4187   -0.35802
 N 0.4336 0.5812 0.6764   -0.366593
 N 0.452 0.1616 0.7026   -0.409949
 N 0.3937 0.2866 0.6784   -0.425683
 N 0.5591 0.3187 0.7913   -0.414597
 N 0.6137 0.1929 0.8164   -0.41507
 N 0.5582 0.8182 0.9384   -0.285659
 N 0.0187 0.3985 0.1681   -0.286285
 N 0.3717 0.6761 0.5813   -0.35802
 N 0.0664 0.0812 0.3236   -0.366593
 N 0.048 0.6616 0.2974   -0.409949
 N 0.1063 0.7866 0.3216   -0.425683
 N 0.9409 0.8187 0.2087   -0.414597
 N 0.8863 0.6929 0.1836   -0.41507
 O 0.6956 0.6879 0.658   -0.641608
 O 0.7548 0.8126 0.7037   -0.705429
 O 0.8365 0.7059 0.7714   -0.710888
 O 0.9379 0.7786 0.8699   -0.587193
 O 0.000100000000003 0.7387 0.6773   -0.725311
 O 0.5536 0.6723 0.7576   -0.702758
 O 0.8044 0.1879 0.342   -0.641608
 O 0.7452 0.3126 0.2963   -0.705429
 O 0.6635 0.2059 0.2286   -0.710888
 O 0.5621 0.2786 0.1301   -0.587193
 O 0.4999 0.2387 0.3227   -0.725311
 O 0.9464 0.1723 0.2424   -0.702759
 O 0.3044 0.3121 0.342   -0.641608
 O 0.2452 0.1874 0.2963   -0.705429
 O 0.1635 0.2941 0.2286   -0.710888
 O 0.0621 0.2214 0.1301   -0.587193
 O 0.9999 0.2613 0.3227   -0.725311
 O 0.4464 0.3277 0.2424   -0.702758
 O 0.1956 0.8121 0.658   -0.641608
 O 0.2548 0.6874 0.7037   -0.705429
 O 0.3365 0.7941 0.7714   -0.710888
 O 0.4379 0.7214 0.8699   -0.587193
 O 0.5001 0.7613 0.6773   -0.725311
 O 0.0536 0.8277 0.7576   -0.702759
