{'_ref': 'TBD', '_srcid': 'CAKYAQ_clean', 'submitters': [{'name': 'Dalar Nazarian Jeff Camp and David Sholl', 'email': 'dalar@gatech.edu jcamp6@gatech.edu'}], '_method': 'VASP DFT with PBE;DDEC'}
data_CdH7C5NO4
_symmetry_space_group_name_H-M   'P 1'
_cell_length_a   7.28600000
_cell_length_b   10.79000000
_cell_length_c   11.61000000
_cell_angle_alpha   90.00000000
_cell_angle_beta   90.00000000
_cell_angle_gamma   90.00000000
_symmetry_Int_Tables_number   1
_chemical_formula_structural   CdH7C5NO4
_chemical_formula_sum   'Cd4 H28 C20 N4 O16'
_cell_volume   912.7310634
_cell_formula_units_Z   4
loop_
 _symmetry_equiv_pos_site_id
 _symmetry_equiv_pos_as_xyz
  1  'x, y, z'
loop_
 _atom_site_label
 _atom_site_fract_x
 _atom_site_fract_y
 _atom_site_fract_z
 _atom_site_charge
 Cd 0.638 0.8173 0.7093   0.999024
 Cd 0.138 0.1827 0.7907   0.999024
 Cd 0.862 0.3173 0.2907   0.999024
 Cd 0.362 0.6827 0.2093   0.999024
 H 0.046 0.2 0.549   0.325879
 H 0.941 0.095 0.625   0.325681
 H 0.097 0.962 0.511   0.098347
 H 0.39 0.005 0.432   0.099829
 H 0.235 0.138 0.403   0.093039
 H 0.388 0.247 0.559   0.118981
 H 0.538 0.125 0.587   0.130026
 H 0.546 0.8 0.951   0.325879
 H 0.441 0.905 0.875   0.325681
 H 0.597 0.038 0.989   0.098347
 H 0.89 0.995 0.068   0.099828
 H 0.735 0.862 0.097   0.093038
 H 0.888 0.753 0.941   0.118981
 H 0.038 0.875 0.913   0.130026
 H 0.454 0.7 0.451   0.325878
 H 0.559 0.595 0.375   0.325681
 H 0.403 0.462 0.489   0.098346
 H 0.11 0.505 0.568   0.099829
 H 0.265 0.638 0.597   0.093039
 H 0.112 0.747 0.441   0.11898
 H 0.962 0.625 0.413   0.130026
 H 0.954 0.3 0.049   0.325878
 H 0.059 0.405 0.125   0.325681
 H 0.903 0.538 0.011   0.098346
 H 0.61 0.495 0.932   0.099828
 H 0.765 0.362 0.903   0.093038
 H 0.612 0.253 0.059   0.11898
 H 0.462 0.375 0.087   0.130026
 C 0.1786 0.0323 0.5568   0.03874
 C 0.2874 0.9633 0.6502   0.650746
 C 0.3133 0.0865 0.4682   -0.160923
 C 0.458 0.1748 0.5191   -0.315377
 C 0.587 0.2287 0.4314   0.707516
 C 0.6786 0.9677 0.9432   0.03874
 C 0.7874 0.0367 0.8498   0.650746
 C 0.8133 0.9135 0.0318   -0.160923
 C 0.958 0.8252 0.9809   -0.315378
 C 0.087 0.7713 0.0686   0.707516
 C 0.3214 0.5323 0.4432   0.03874
 C 0.2126 0.4633 0.3498   0.650746
 C 0.1867 0.5865 0.5318   -0.160924
 C 0.042 0.6748 0.4809   -0.315377
 C 0.913 0.7287 0.5686   0.707516
 C 0.8214 0.4677 0.0568   0.03874
 C 0.7126 0.5367 0.1502   0.650746
 C 0.6867 0.4135 0.9682   -0.160923
 C 0.542 0.3252 0.0191   -0.315377
 C 0.413 0.2713 0.9314   0.707516
 N 0.059 0.1305 0.6067   -0.673989
 N 0.559 0.8695 0.8933   -0.673989
 N 0.441 0.6305 0.3933   -0.673989
 N 0.941 0.3695 0.1067   -0.673989
 O 0.2762 0.996 0.7529   -0.587707
 O 0.3824 0.8753 0.6145   -0.605563
 O 0.7254 0.287 0.4694   -0.629291
 O 0.5652 0.2121 0.325   -0.614954
 O 0.7762 0.004 0.7471   -0.587707
 O 0.8824 0.1247 0.8855   -0.605563
 O 0.2254 0.713 0.0306   -0.629291
 O 0.0652 0.7879 0.175   -0.614954
 O 0.2238 0.496 0.2471   -0.587707
 O 0.1176 0.3753 0.3855   -0.605563
 O 0.7746 0.787 0.5306   -0.629292
 O 0.9348 0.7121 0.675   -0.614955
 O 0.7238 0.504 0.2529   -0.587707
 O 0.6176 0.6247 0.1145   -0.605563
 O 0.2746 0.213 0.9694   -0.629292
 O 0.4348 0.2879 0.825   -0.614955
