{'_ref': 'TBD', '_srcid': 'CAKYAQ_clean', 'submitters': [{'name': 'Dalar Nazarian Jeff Camp and David Sholl', 'email': 'dalar@gatech.edu jcamp6@gatech.edu'}], '_method': 'VASP DFT with PBE;DDEC'}
data_CdH7C5NO4
_symmetry_space_group_name_H-M   'P 1'
_cell_length_a   7.25560000
_cell_length_b   10.76390000
_cell_length_c   11.57470000
_cell_angle_alpha   90.00000000
_cell_angle_beta   90.00000000
_cell_angle_gamma   90.00000000
_symmetry_Int_Tables_number   1
_chemical_formula_structural   CdH7C5NO4
_chemical_formula_sum   'Cd4 H28 C20 N4 O16'
_cell_volume   903.967319557
_cell_formula_units_Z   4
loop_
 _symmetry_equiv_pos_site_id
 _symmetry_equiv_pos_as_xyz
  1  'x, y, z'
loop_
 _atom_site_label
 _atom_site_fract_x
 _atom_site_fract_y
 _atom_site_fract_z
 _atom_site_charge
 Cd 0.3606 0.68364 0.20906   0.992075
 Cd 0.8606 0.31636 0.29094   0.992075
 Cd 0.1394 0.18364 0.79094   0.992075
 Cd 0.6394 0.81636 0.70906   0.992075
 H 0.394 0.477 0.479   0.088466
 H 0.121 0.503 0.568   0.080786
 H 0.244 0.617 0.592   0.08492
 H 0.977 0.635 0.416   0.129506
 H 0.097 0.749 0.441   0.122443
 H 0.539 0.607 0.389   0.32211
 H 0.459 0.689 0.443   0.318319
 H 0.894 0.523 0.021   0.088466
 H 0.621 0.497 0.932   0.080786
 H 0.744 0.383 0.908   0.08492
 H 0.477 0.365 0.084   0.129506
 H 0.597 0.251 0.059   0.122442
 H 0.039 0.393 0.111   0.32211
 H 0.959 0.311 0.057   0.318319
 H 0.106 0.977 0.521   0.088467
 H 0.379 0.003 0.432   0.080786
 H 0.256 0.117 0.408   0.08492
 H 0.523 0.135 0.584   0.129506
 H 0.403 0.249 0.559   0.122443
 H 0.961 0.107 0.611   0.32211
 H 0.041 0.189 0.557   0.318318
 H 0.606 0.023 0.979   0.088467
 H 0.879 0.997 0.068   0.080786
 H 0.756 0.883 0.092   0.08492
 H 0.023 0.865 0.916   0.129506
 H 0.903 0.751 0.941   0.122443
 H 0.461 0.893 0.889   0.32211
 H 0.541 0.811 0.943   0.318318
 C 0.2144 0.4621 0.3501   0.629733
 C 0.3212 0.5327 0.4432   0.057138
 C 0.1858 0.5856 0.5319   -0.10653
 C 0.0464 0.6748 0.4803   -0.320591
 C 0.9128 0.7278 0.5689   0.699473
 C 0.7144 0.5379 0.1499   0.629733
 C 0.8212 0.4673 0.0568   0.057138
 C 0.6858 0.4144 0.9681   -0.10653
 C 0.5464 0.3252 0.0197   -0.320591
 C 0.4128 0.2722 0.9311   0.699473
 C 0.2856 0.9621 0.6499   0.629733
 C 0.1788 0.0327 0.5568   0.057138
 C 0.3142 0.0856 0.4681   -0.10653
 C 0.4536 0.1748 0.5197   -0.320591
 C 0.5872 0.2278 0.4311   0.699473
 C 0.7856 0.0379 0.8501   0.629734
 C 0.6788 0.9673 0.9432   0.057138
 C 0.8142 0.9144 0.0319   -0.10653
 C 0.9536 0.8252 0.9803   -0.320591
 C 0.0872 0.7722 0.0689   0.699473
 N 0.4395 0.63 0.394   -0.66571
 N 0.9395 0.37 0.106   -0.66571
 N 0.0605 0.13 0.606   -0.66571
 N 0.5605 0.87 0.894   -0.66571
 O 0.2222 0.4976 0.2466   -0.585865
 O 0.1192 0.3725 0.3853   -0.601824
 O 0.7756 0.7885 0.5312   -0.62877
 O 0.935 0.7128 0.6749   -0.615677
 O 0.7222 0.5024 0.2534   -0.585865
 O 0.6192 0.6275 0.1147   -0.601824
 O 0.2756 0.2115 0.9688   -0.62877
 O 0.435 0.2872 0.8251   -0.615677
 O 0.2778 0.9976 0.7534   -0.585865
 O 0.3808 0.8725 0.6147   -0.601824
 O 0.7244 0.2885 0.4688   -0.62877
 O 0.565 0.2128 0.3251   -0.615678
 O 0.7778 0.0024 0.7466   -0.585865
 O 0.8808 0.1275 0.8853   -0.601824
 O 0.2244 0.7115 0.0312   -0.62877
 O 0.065 0.7872 0.1749   -0.615678
