{'_ref': 'TBD', '_srcid': 'CAKYAQ_clean', 'submitters': [{'name': 'Dalar Nazarian Jeff Camp and David Sholl', 'email': 'dalar@gatech.edu jcamp6@gatech.edu'}], '_method': 'VASP DFT with PBE;DDEC'}
data_NdH2C8NO6
_symmetry_space_group_name_H-M   'P 1'
_cell_length_a   6.75100009
_cell_length_b   11.91600000
_cell_length_c   13.45700000
_cell_angle_alpha   90.00000000
_cell_angle_beta   100.42700260
_cell_angle_gamma   90.00000000
_symmetry_Int_Tables_number   1
_chemical_formula_structural   NdH2C8NO6
_chemical_formula_sum   'Nd4 H8 C32 N4 O24'
_cell_volume   1064.67037253
_cell_formula_units_Z   4
loop_
 _symmetry_equiv_pos_site_id
 _symmetry_equiv_pos_as_xyz
  1  'x, y, z'
loop_
 _atom_site_label
 _atom_site_fract_x
 _atom_site_fract_y
 _atom_site_fract_z
 _atom_site_charge
 Nd 0.94749 0.83054 0.74493   2.2858
 Nd 0.05251 0.33054 0.75507   2.285783
 Nd 0.05251 0.16946 0.25507   2.285785
 Nd 0.94749 0.66946 0.24493   2.285768
 H 0.211 0.941 0.543   0.116694
 H 0.546 0.808 0.359   0.108216
 H 0.789 0.441 0.957   0.116694
 H 0.454 0.308 0.141   0.108216
 H 0.789 0.059 0.457   0.116695
 H 0.454 0.192 0.641   0.108216
 H 0.211 0.559 0.043   0.116695
 H 0.546 0.692 0.859   0.108216
 C 0.4575 0.8963 0.7191   0.726963
 C 0.4731 0.8795 0.6101   0.114196
 C 0.3172 0.9039 0.5297   -0.02939
 C 0.3451 0.8776 0.4339   -0.07265
 C 0.1818 0.9005 0.3428   0.727816
 C 0.5232 0.8265 0.4188   -0.03796
 C 0.6743 0.8117 0.5019   0.113577
 C 0.8818 0.7664 0.4962   0.74064
 C 0.5425 0.3963 0.7809   0.726963
 C 0.5269 0.3795 0.8899   0.114196
 C 0.6828 0.4039 0.9703   -0.02939
 C 0.6549 0.3776 0.0661   -0.07265
 C 0.8182 0.4005 0.1572   0.727816
 C 0.4768 0.3265 0.0812   -0.03796
 C 0.3257 0.3117 0.9981   0.113577
 C 0.1182 0.2664 0.0038   0.74064
 C 0.5425 0.1037 0.2809   0.726964
 C 0.5269 0.1205 0.3899   0.114197
 C 0.6828 0.0961 0.4703   -0.029389
 C 0.6549 0.1224 0.5661   -0.072649
 C 0.8182 0.0995 0.6572   0.727817
 C 0.4768 0.1735 0.5812   -0.037959
 C 0.3257 0.1883 0.4981   0.113578
 C 0.1182 0.2336 0.5038   0.74064
 C 0.4575 0.6037 0.2191   0.726964
 C 0.4731 0.6205 0.1101   0.114197
 C 0.3172 0.5961 0.0297   -0.029389
 C 0.3451 0.6224 0.9339   -0.072649
 C 0.1818 0.5995 0.8428   0.727817
 C 0.5232 0.6735 0.9188   -0.037959
 C 0.6743 0.6883 0.0019   0.113577
 C 0.8818 0.7336 0.9962   0.74064
 N 0.6501 0.8378 0.5958   -0.504838
 N 0.3499 0.3378 0.9042   -0.504837
 N 0.3499 0.1622 0.4042   -0.504837
 N 0.6501 0.6622 0.0958   -0.504836
 O 0.6225 0.901 0.7811   -0.706614
 O 0.288 0.9065 0.7421   -0.722119
 O 0.1655 0.8321 0.2708   -0.712218
 O 0.0749 0.9866 0.3455   -0.706661
 O 0.9228 0.7431 0.4115   -0.76783
 O 0.0015 0.7566 0.5791   -0.67361
 O 0.3775 0.401 0.7189   -0.706614
 O 0.712 0.4065 0.7579   -0.722118
 O 0.8345 0.3321 0.2292   -0.712219
 O 0.9251 0.4866 0.1545   -0.70666
 O 0.0772 0.2431 0.0885   -0.767831
 O 0.9985 0.2566 0.9209   -0.67361
 O 0.3775 0.099 0.2189   -0.706614
 O 0.712 0.0935 0.2579   -0.722118
 O 0.8345 0.1679 0.7292   -0.712219
 O 0.9251 0.0134 0.6545   -0.70666
 O 0.0772 0.2569 0.5885   -0.767831
 O 0.9985 0.2434 0.4209   -0.67361
 O 0.6225 0.599 0.2811   -0.706613
 O 0.288 0.5935 0.2421   -0.722117
 O 0.1655 0.6679 0.7708   -0.71222
 O 0.0749 0.5134 0.8455   -0.70666
 O 0.9228 0.7569 0.9115   -0.767832
 O 0.0015 0.7434 0.0791   -0.67361
