{'_ref': 'TBD', '_srcid': 'CAKYAQ_clean', 'submitters': [{'name': 'Dalar Nazarian Jeff Camp and David Sholl', 'email': 'dalar@gatech.edu jcamp6@gatech.edu'}], '_method': 'VASP DFT with PBE;DDEC'}
data_Gd2H9C24(NO6)3
_symmetry_space_group_name_H-M   'P 1'
_cell_length_a   13.69080021
_cell_length_b   13.69079981
_cell_length_c   16.31700000
_cell_angle_alpha   67.02190123
_cell_angle_beta   67.02190195
_cell_angle_gamma   75.69340246
_symmetry_Int_Tables_number   1
_chemical_formula_structural   Gd2H9C24(NO6)3
_chemical_formula_sum   'Gd4 H18 C48 N6 O36'
_cell_volume   2576.09850407
_cell_formula_units_Z   2
loop_
 _symmetry_equiv_pos_site_id
 _symmetry_equiv_pos_as_xyz
  1  'x, y, z'
loop_
 _atom_site_label
 _atom_site_fract_x
 _atom_site_fract_y
 _atom_site_fract_z
 _atom_site_charge
 Gd 0.16769 0.45449 0.99786   2.176719
 Gd 0.54551 0.83231 0.50214   2.176719
 Gd 0.83231 0.54551 0.00214   2.176719
 Gd 0.45449 0.16769 0.49786   2.176719
 H 0.0819 0.3455 0.5644   0.12818
 H 0.0824 0.1278 0.1511   0.1289
 H 0.2252 0.3384 0.7432   0.124384
 H 0.9118 0.454 0.7855   0.115177
 H 0.6545 0.9181 0.9356   0.12818
 H 0.8722 0.9176 0.3489   0.1289
 H 0.6616 0.7748 0.7568   0.124384
 H 0.546 0.0882 0.7145   0.115177
 H 0.9181 0.6545 0.4356   0.12818
 H 0.9176 0.8722 0.8489   0.1289
 H 0.7748 0.6616 0.2568   0.124384
 H 0.0882 0.546 0.2145   0.115177
 H 0.3455 0.0819 0.0644   0.12818
 H 0.1278 0.0824 0.6511   0.1289
 H 0.3384 0.2252 0.2432   0.124384
 H 0.454 0.9118 0.2855   0.115177
 H 0.7678 0.2322 0.25   0.108918
 H 0.2322 0.7678 0.75   0.108918
 C 0.92762 0.19686 0.18939   -0.161237
 C 0.07903 0.35825 0.61855   0.002027
 C 0.95114 0.30816 0.12228   0.812742
 C 0.0638 0.42832 0.85883   0.814104
 C 0.01119 0.11433 0.19035   -0.009582
 C 0.1638 0.35536 0.72447   0.025223
 C 0.06868 0.40204 0.77577   -0.179669
 C 0.16905 0.33349 0.6461   -0.128729
 C 0.27012 0.28154 0.59076   0.67086
 C 0.97745 0.42425 0.75021   -0.009599
 C 0.98526 0.4018 0.67195   -0.016857
 C 0.80314 0.07238 0.31061   -0.161237
 C 0.64175 0.92097 0.88145   0.002027
 C 0.69184 0.04886 0.37772   0.812742
 C 0.57168 0.9362 0.64117   0.814105
 C 0.88567 0.98881 0.30965   -0.009582
 C 0.64464 0.8362 0.77553   0.025223
 C 0.59796 0.93132 0.72423   -0.179669
 C 0.66651 0.83095 0.8539   -0.128729
 C 0.71846 0.72988 0.90924   0.67086
 C 0.57575 0.02255 0.74979   -0.009599
 C 0.5982 0.01474 0.82805   -0.016857
 C 0.07238 0.80314 0.81061   -0.161237
 C 0.92097 0.64175 0.38145   0.002027
 C 0.04886 0.69184 0.87772   0.812742
 C 0.9362 0.57168 0.14117   0.814104
 C 0.98881 0.88567 0.80965   -0.009582
 C 0.8362 0.64464 0.27553   0.025223
 C 0.93132 0.59796 0.22423   -0.179669
 C 0.83095 0.66651 0.3539   -0.128729
 C 0.72988 0.71846 0.40924   0.67086
 C 0.02255 0.57575 0.24979   -0.009599
 C 0.01474 0.5982 0.32805   -0.016857
 C 0.19686 0.92762 0.68939   -0.161237
 C 0.35825 0.07903 0.11855   0.002027
 C 0.30816 0.95114 0.62228   0.812742
 C 0.42832 0.0638 0.35883   0.814104
 C 0.11433 0.01119 0.69035   -0.009582
 C 0.35536 0.1638 0.22447   0.025223
 C 0.40204 0.06868 0.27577   -0.179669
 C 0.33349 0.16905 0.1461   -0.12873
 C 0.28154 0.27012 0.09076   0.67086
 C 0.42425 0.97745 0.25021   -0.009599
 C 0.4018 0.98526 0.17195   -0.016857
 C 0.82436 0.17564 0.25   0.031213
 C 0.98776 0.01224 0.25   -0.039708
 C 0.17564 0.82436 0.75   0.031213
 C 0.01224 0.98776 0.75   -0.039708
 N 0.88924 0.42354 0.64454   0.601966
 N 0.57646 0.11076 0.85546   0.601966
 N 0.11076 0.57646 0.35546   0.601966
 N 0.42354 0.88924 0.14454   0.601966
 N 0.07533 0.92467 0.25   0.599325
 N 0.92467 0.07533 0.75   0.599325
 O 0.87291 0.37549 0.10891   -0.782641
 O 0.04817 0.32403 0.08513   -0.697972
 O 0.14851 0.40833 0.87855   -0.693496
 O 0.97533 0.46925 0.90255   -0.804837
 O 0.27344 0.27362 0.51537   -0.646083
 O 0.34816 0.24574 0.62219   -0.713143
 O 0.16774 0.94744 0.20974   -0.36417
 O 0.90142 0.42216 0.56637   -0.371583
 O 0.80224 0.44234 0.70093   -0.370556
 O 0.62451 0.12709 0.39109   -0.782641
 O 0.67597 0.95183 0.41487   -0.697972
 O 0.59167 0.85149 0.62145   -0.693496
 O 0.53075 0.02467 0.59745   -0.804837
 O 0.72638 0.72656 0.98463   -0.646083
 O 0.75426 0.65184 0.87781   -0.713143
 O 0.05256 0.83226 0.29026   -0.364171
 O 0.57784 0.09858 0.93363   -0.371582
 O 0.55766 0.19776 0.79907   -0.370556
 O 0.12709 0.62451 0.89109   -0.782641
 O 0.95183 0.67597 0.91487   -0.697972
 O 0.85149 0.59167 0.12145   -0.693496
 O 0.02467 0.53075 0.09745   -0.804837
 O 0.72656 0.72638 0.48463   -0.646083
 O 0.65184 0.75426 0.37781   -0.713143
 O 0.83226 0.05256 0.79026   -0.364171
 O 0.09858 0.57784 0.43363   -0.371583
 O 0.19776 0.55766 0.29907   -0.370557
 O 0.37549 0.87291 0.60891   -0.782641
 O 0.32403 0.04817 0.58513   -0.697972
 O 0.40833 0.14851 0.37855   -0.693496
 O 0.46925 0.97533 0.40255   -0.804837
 O 0.27362 0.27344 0.01537   -0.646083
 O 0.24574 0.34816 0.12219   -0.713143
 O 0.94744 0.16774 0.70974   -0.364171
 O 0.42216 0.90142 0.06637   -0.371583
 O 0.44234 0.80224 0.20093   -0.370556
