{'_ref': 'TBD', '_srcid': 'CAKYAQ_clean', 'submitters': [{'name': 'Dalar Nazarian Jeff Camp and David Sholl', 'email': 'dalar@gatech.edu jcamp6@gatech.edu'}], '_method': 'VASP DFT with PBE;DDEC'}
data_AgH5(C2N)2
_symmetry_space_group_name_H-M   'P 1'
_cell_length_a   10.43070000
_cell_length_b   12.78670000
_cell_length_c   19.62280000
_cell_angle_alpha   90.00000000
_cell_angle_beta   90.00000000
_cell_angle_gamma   90.00000000
_symmetry_Int_Tables_number   1
_chemical_formula_structural   AgH5(C2N)2
_chemical_formula_sum   'Ag16 H80 C64 N32'
_cell_volume   2617.17587361
_cell_formula_units_Z   16
loop_
 _symmetry_equiv_pos_site_id
 _symmetry_equiv_pos_as_xyz
  1  'x, y, z'
loop_
 _atom_site_label
 _atom_site_fract_x
 _atom_site_fract_y
 _atom_site_fract_z
 _atom_site_charge
 Ag 0.14245 0.67302 0.46479   0.30558
 Ag 0.85755 0.67302 0.03521   0.30558
 Ag 0.64245 0.82698 0.03521   0.30558
 Ag 0.35755 0.82698 0.46479   0.30558
 Ag 0.25 0.25 0.33366   0.312897
 Ag 0.75 0.25 0.16634   0.312897
 Ag 0.0 0.82958 0.75   0.306722
 Ag 0.5 0.67042 0.75   0.306722
 Ag 0.85755 0.32698 0.53521   0.30558
 Ag 0.14245 0.32698 0.96479   0.30558
 Ag 0.35755 0.17302 0.96479   0.30558
 Ag 0.64245 0.17302 0.53521   0.30558
 Ag 0.75 0.75 0.66634   0.312896
 Ag 0.25 0.75 0.83366   0.312896
 Ag 0.0 0.17042 0.25   0.306721
 Ag 0.5 0.32958 0.25   0.306721
 H 0.2172 0.6478 0.3002   0.100315
 H 0.2496 0.4763 0.2449   0.101657
 H 0.1913 0.3342 0.4613   0.133566
 H 0.2527 0.4347 0.4972   0.132481
 H 0.1009 0.4275 0.4866   0.1095
 H 0.9885 0.9786 0.6126   0.104233
 H 0.0411 0.9158 0.4969   0.101045
 H 0.103 0.6453 0.6867   0.127552
 H 0.0609 0.5908 0.6168   0.143334
 H 0.2054 0.6301 0.6268   0.136963
 H 0.7828 0.6478 0.1998   0.100315
 H 0.7504 0.4763 0.2551   0.101657
 H 0.8087 0.3342 0.0387   0.133566
 H 0.7473 0.4347 0.0028   0.132481
 H 0.8991 0.4275 0.0134   0.1095
 H 0.0115 0.9786 0.8874   0.104233
 H 0.9589 0.9158 0.0031   0.101045
 H 0.897 0.6453 0.8133   0.127552
 H 0.9391 0.5908 0.8832   0.143334
 H 0.7946 0.6301 0.8732   0.136963
 H 0.7172 0.8522 0.1998   0.100312
 H 0.7496 0.0237 0.2551   0.101657
 H 0.6913 0.1658 0.0387   0.133566
 H 0.7527 0.0653 0.0028   0.132481
 H 0.6009 0.0725 0.0134   0.1095
 H 0.4885 0.5214 0.8874   0.104233
 H 0.5411 0.5842 0.0031   0.101045
 H 0.603 0.8547 0.8133   0.127552
 H 0.5609 0.9092 0.8832   0.143334
 H 0.7054 0.8699 0.8732   0.136963
 H 0.2828 0.8522 0.3002   0.100311
 H 0.2504 0.0237 0.2449   0.101657
 H 0.3087 0.1658 0.4613   0.133566
 H 0.2473 0.0653 0.4972   0.132481
 H 0.3991 0.0725 0.4866   0.1095
 H 0.5115 0.5214 0.6126   0.104233
 H 0.4589 0.5842 0.4969   0.101045
 H 0.397 0.8547 0.6867   0.127552
 H 0.4391 0.9092 0.6168   0.143334
 H 0.2946 0.8699 0.6268   0.136963
 H 0.7828 0.3522 0.6998   0.100315
 H 0.7504 0.5237 0.7551   0.101657
 H 0.8087 0.6658 0.5387   0.133566
 H 0.7473 0.5653 0.5028   0.132481
 H 0.8991 0.5725 0.5134   0.1095
 H 0.0115 0.0214 0.3874   0.104233
 H 0.9589 0.0842 0.5031   0.101045
 H 0.897 0.3547 0.3133   0.127552
 H 0.9391 0.4092 0.3832   0.143334
 H 0.7946 0.3699 0.3732   0.136963
 H 0.2172 0.3522 0.8002   0.100315
 H 0.2496 0.5237 0.7449   0.101657
 H 0.1913 0.6658 0.9613   0.133566
 H 0.2527 0.5653 0.9972   0.132481
 H 0.1009 0.5725 0.9866   0.1095
 H 0.9885 0.0214 0.1126   0.104233
 H 0.0411 0.0842 0.9969   0.101045
 H 0.103 0.3547 0.1867   0.127552
 H 0.0609 0.4092 0.1168   0.143334
 H 0.2054 0.3699 0.1268   0.136963
 H 0.2828 0.1478 0.8002   0.100312
 H 0.2504 0.9763 0.7449   0.101657
 H 0.3087 0.8342 0.9613   0.133566
 H 0.2473 0.9347 0.9972   0.132481
 H 0.3991 0.9275 0.9866   0.1095
 H 0.5115 0.4786 0.1126   0.104233
 H 0.4589 0.4158 0.9969   0.101045
 H 0.397 0.1453 0.1867   0.127552
 H 0.4391 0.0908 0.1168   0.143334
 H 0.2946 0.1301 0.1268   0.136963
 H 0.7172 0.1478 0.6998   0.100311
 H 0.7496 0.9763 0.7551   0.101657
 H 0.6913 0.8342 0.5387   0.133566
 H 0.7527 0.9347 0.5028   0.132481
 H 0.6009 0.9275 0.5134   0.1095
 H 0.4885 0.4786 0.3874   0.104233
 H 0.5411 0.4158 0.5031   0.101045
 H 0.603 0.1453 0.3133   0.127552
 H 0.5609 0.0908 0.3832   0.143334
 H 0.7054 0.1301 0.3732   0.136963
 C 0.1977 0.4618 0.39925   0.388102
 C 0.2146 0.5817 0.32227   -0.045806
 C 0.2326 0.4874 0.29186   -0.053991
 C 0.1845 0.4101 0.46685   -0.430077
 C 0.0797 0.74923 0.60866   0.40457
 C 0.0183 0.9106 0.60121   -0.032904
 C 0.0468 0.8759 0.53768   -0.052942
 C 0.1153 0.6449 0.63716   -0.442904
 C 0.8023 0.4618 0.10075   0.388102
 C 0.7854 0.5817 0.17773   -0.045806
 C 0.7674 0.4874 0.20814   -0.053991
 C 0.8155 0.4101 0.03315   -0.430077
 C 0.9203 0.74923 0.89134   0.40457
 C 0.9817 0.9106 0.89879   -0.032904
 C 0.9532 0.8759 0.96232   -0.052942
 C 0.8847 0.6449 0.86284   -0.442904
 C 0.6977 0.0382 0.10075   0.388102
 C 0.7146 0.9183 0.17773   -0.045804
 C 0.7326 0.0126 0.20814   -0.053991
 C 0.6845 0.0899 0.03315   -0.430078
 C 0.5797 0.75077 0.89134   0.40457
 C 0.5183 0.5894 0.89879   -0.032904
 C 0.5468 0.6241 0.96232   -0.052942
 C 0.6153 0.8551 0.86284   -0.442904
 C 0.3023 0.0382 0.39925   0.388102
 C 0.2854 0.9183 0.32227   -0.045804
 C 0.2674 0.0126 0.29186   -0.053991
 C 0.3155 0.0899 0.46685   -0.430078
 C 0.4203 0.75077 0.60866   0.40457
 C 0.4817 0.5894 0.60121   -0.032904
 C 0.4532 0.6241 0.53768   -0.052942
 C 0.3847 0.8551 0.63716   -0.442904
 C 0.8023 0.5382 0.60075   0.388102
 C 0.7854 0.4183 0.67773   -0.045806
 C 0.7674 0.5126 0.70814   -0.053991
 C 0.8155 0.5899 0.53315   -0.430077
 C 0.9203 0.25077 0.39134   0.40457
 C 0.9817 0.0894 0.39879   -0.032904
 C 0.9532 0.1241 0.46232   -0.052942
 C 0.8847 0.3551 0.36284   -0.442904
 C 0.1977 0.5382 0.89925   0.388102
 C 0.2146 0.4183 0.82227   -0.045806
 C 0.2326 0.5126 0.79186   -0.053991
 C 0.1845 0.5899 0.96685   -0.430077
 C 0.0797 0.25077 0.10866   0.40457
 C 0.0183 0.0894 0.10121   -0.032904
 C 0.0468 0.1241 0.03768   -0.052942
 C 0.1153 0.3551 0.13716   -0.442904
 C 0.3023 0.9618 0.89925   0.388102
 C 0.2854 0.0817 0.82227   -0.045804
 C 0.2674 0.9874 0.79186   -0.053992
 C 0.3155 0.9101 0.96685   -0.430078
 C 0.4203 0.24923 0.10866   0.40457
 C 0.4817 0.4106 0.10121   -0.032904
 C 0.4532 0.3759 0.03768   -0.052942
 C 0.3847 0.1449 0.13716   -0.442904
 C 0.6977 0.9618 0.60075   0.388102
 C 0.7146 0.0817 0.67773   -0.045804
 C 0.7326 0.9874 0.70814   -0.053992
 C 0.6845 0.9101 0.53315   -0.430078
 C 0.5797 0.24923 0.39134   0.40457
 C 0.5183 0.4106 0.39879   -0.032904
 C 0.5468 0.3759 0.46232   -0.052942
 C 0.6153 0.1449 0.36284   -0.442904
 N 0.2219 0.4108 0.34073   -0.371325
 N 0.192 0.56543 0.39046   -0.388165
 N 0.0856 0.7732 0.54228   -0.383773
 N 0.0399 0.82979 0.64661   -0.396819
 N 0.7781 0.4108 0.15927   -0.371325
 N 0.808 0.56543 0.10954   -0.388165
 N 0.9144 0.7732 0.95772   -0.383773
 N 0.9601 0.82979 0.85339   -0.396819
 N 0.7219 0.0892 0.15927   -0.371324
 N 0.692 0.93457 0.10954   -0.388166
 N 0.5856 0.7268 0.95772   -0.383773
 N 0.5399 0.67021 0.85339   -0.396819
 N 0.2781 0.0892 0.34073   -0.371324
 N 0.308 0.93457 0.39046   -0.388166
 N 0.4144 0.7268 0.54228   -0.383773
 N 0.4601 0.67021 0.64661   -0.396819
 N 0.7781 0.5892 0.65927   -0.371324
 N 0.808 0.43457 0.60954   -0.388165
 N 0.9144 0.2268 0.45772   -0.383773
 N 0.9601 0.17021 0.35339   -0.396819
 N 0.2219 0.5892 0.84073   -0.371324
 N 0.192 0.43457 0.89046   -0.388165
 N 0.0856 0.2268 0.04228   -0.383773
 N 0.0399 0.17021 0.14661   -0.396819
 N 0.2781 0.9108 0.84073   -0.371324
 N 0.308 0.06543 0.89046   -0.388166
 N 0.4144 0.2732 0.04228   -0.383773
 N 0.4601 0.32979 0.14661   -0.396819
 N 0.7219 0.9108 0.65927   -0.371324
 N 0.692 0.06543 0.60954   -0.388166
 N 0.5856 0.2732 0.45772   -0.383773
 N 0.5399 0.32979 0.35339   -0.396819
