{'_ref': 'TBD', '_srcid': 'CAKYAQ_clean', 'submitters': [{'name': 'Dalar Nazarian Jeff Camp and David Sholl', 'email': 'dalar@gatech.edu jcamp6@gatech.edu'}], '_method': 'VASP DFT with PBE;DDEC'}
data_NiH3C5N2ClO2
_symmetry_space_group_name_H-M   'P 1'
_cell_length_a   7.86510000
_cell_length_b   10.54500000
_cell_length_c   11.20000000
_cell_angle_alpha   90.00000000
_cell_angle_beta   90.00000000
_cell_angle_gamma   90.00000000
_symmetry_Int_Tables_number   1
_chemical_formula_structural   NiH3C5N2ClO2
_chemical_formula_sum   'Ni4 H12 C20 N8 Cl4 O8'
_cell_volume   928.8997704
_cell_formula_units_Z   4
loop_
 _symmetry_equiv_pos_site_id
 _symmetry_equiv_pos_as_xyz
  1  'x, y, z'
loop_
 _atom_site_label
 _atom_site_fract_x
 _atom_site_fract_y
 _atom_site_fract_z
 _atom_site_charge
 Ni 0.74308 0.21545 0.32108   0.765703
 Ni 0.24308 0.78455 0.67892   0.765703
 Ni 0.74308 0.71545 0.17892   0.765703
 Ni 0.24308 0.28455 0.82108   0.765703
 H 0.9639 0.0377 0.1444   0.089719
 H 0.9959 0.4281 0.9821   0.106403
 H 0.1255 0.0723 0.9795   0.102786
 H 0.4639 0.9623 0.8556   0.089719
 H 0.4959 0.5719 0.0179   0.106403
 H 0.6255 0.9277 0.0205   0.102786
 H 0.9639 0.5377 0.3556   0.08972
 H 0.9959 0.9281 0.5179   0.106403
 H 0.1255 0.5723 0.5205   0.102786
 H 0.4639 0.4623 0.6444   0.08972
 H 0.4959 0.0719 0.4821   0.106403
 H 0.6255 0.4277 0.4795   0.102786
 C 0.7886 0.4289 0.173   0.619584
 C 0.9692 0.119 0.1124   0.122635
 C 0.8909 0.3258 0.1122   0.040912
 C 0.9915 0.347 0.0146   0.136986
 C 0.0677 0.1402 0.0135   0.120126
 C 0.2886 0.5711 0.827   0.619584
 C 0.4692 0.881 0.8876   0.122636
 C 0.3909 0.6742 0.8878   0.040912
 C 0.4915 0.653 0.9854   0.136986
 C 0.5677 0.8598 0.9865   0.120129
 C 0.7886 0.9289 0.327   0.619584
 C 0.9692 0.619 0.3876   0.122636
 C 0.8909 0.8258 0.3878   0.040912
 C 0.9915 0.847 0.4854   0.136987
 C 0.0677 0.6402 0.4865   0.120126
 C 0.2886 0.0711 0.673   0.619584
 C 0.4692 0.381 0.6124   0.122636
 C 0.3909 0.1742 0.6122   0.040912
 C 0.4915 0.153 0.5146   0.136987
 C 0.5677 0.3598 0.5135   0.120129
 N 0.882 0.2107 0.1632   -0.243418
 N 0.0837 0.2546 0.9644   -0.244531
 N 0.382 0.7893 0.8368   -0.243418
 N 0.5837 0.7454 0.0356   -0.244532
 N 0.882 0.7107 0.3368   -0.243418
 N 0.0837 0.7546 0.5356   -0.244531
 N 0.382 0.2893 0.6632   -0.243418
 N 0.5837 0.2454 0.4644   -0.244532
 Cl 0.9921 0.28146 0.43893   -0.539646
 Cl 0.4921 0.71854 0.56107   -0.539646
 Cl 0.9921 0.78146 0.06107   -0.539646
 Cl 0.4921 0.21854 0.93893   -0.539646
 O 0.7142 0.4004 0.2674   -0.540323
 O 0.7927 0.5353 0.1242   -0.53694
 O 0.2142 0.5996 0.7326   -0.540322
 O 0.2927 0.4647 0.8758   -0.53694
 O 0.7142 0.9004 0.2326   -0.540322
 O 0.7927 0.0353 0.3758   -0.53694
 O 0.2142 0.0996 0.7674   -0.540322
 O 0.2927 0.9647 0.6242   -0.53694
