{'_ref': 'TBD', '_srcid': 'CAKYAQ_clean', 'submitters': [{'name': 'Dalar Nazarian Jeff Camp and David Sholl', 'email': 'dalar@gatech.edu jcamp6@gatech.edu'}], '_method': 'VASP DFT with PBE;DDEC'}
data_MoPH4C4O3
_symmetry_space_group_name_H-M   'P 1'
_cell_length_a   9.00230001
_cell_length_b   10.61140032
_cell_length_c   11.69406726
_cell_angle_alpha   116.98168268
_cell_angle_beta   109.22605785
_cell_angle_gamma   89.99999944
_symmetry_Int_Tables_number   1
_chemical_formula_structural   MoPH4C4O3
_chemical_formula_sum   'Mo4 P4 H16 C16 O12'
_cell_volume   925.046751337
_cell_formula_units_Z   4
loop_
 _symmetry_equiv_pos_site_id
 _symmetry_equiv_pos_as_xyz
  1  'x, y, z'
loop_
 _atom_site_label
 _atom_site_fract_x
 _atom_site_fract_y
 _atom_site_fract_z
 _atom_site_charge
 Mo 0.76367 0.11659 0.53004   0.959007
 Mo 0.73633 0.58655 0.46996   0.958856
 Mo 0.23633 0.88341 0.46996   0.959002
 Mo 0.26367 0.41345 0.53004   0.958851
 P 0.53892 0.28591 0.38148   1.489502
 P 0.96108 0.90443 0.61852   1.489122
 P 0.46108 0.71409 0.61852   1.489502
 P 0.03892 0.09557 0.38148   1.489123
 H 0.3554 0.0757 0.2506   0.175871
 H 0.2976 0.1896 0.199   0.172684
 H 0.4501 0.8814 0.1128   0.095679
 H 0.5366 0.7626 0.9302   0.118941
 H 0.1446 0.8251 0.7494   0.176298
 H 0.2024 0.9906 0.801   0.173234
 H 0.0499 0.7686 0.8872   0.095646
 H 0.9634 0.8324 0.0698   0.119408
 H 0.6446 0.9243 0.7494   0.175871
 H 0.7024 0.8104 0.801   0.172685
 H 0.5499 0.1186 0.8872   0.095679
 H 0.4634 0.2374 0.0698   0.118942
 H 0.8554 0.1749 0.2506   0.176298
 H 0.7976 0.0094 0.199   0.173235
 H 0.9501 0.2314 0.1128   0.095646
 H 0.0366 0.1676 0.9302   0.119409
 C 0.3912 0.14726 0.22852   -0.604659
 C 0.447 0.0706 0.1092   0.169857
 C 0.4701 0.93017 0.06694   -0.149124
 C 0.522 0.85946 0.95852   -0.135169
 C 0.1088 0.91874 0.77148   -0.605881
 C 0.053 0.9614 0.8908   0.169951
 C 0.0299 0.86323 0.93306   -0.149345
 C 0.978 0.90094 0.04148   -0.135447
 C 0.6088 0.85274 0.77148   -0.60466
 C 0.553 0.9294 0.8908   0.169863
 C 0.5299 0.06983 0.93306   -0.149126
 C 0.478 0.14054 0.04148   -0.135163
 C 0.8912 0.08126 0.22852   -0.605882
 C 0.947 0.0386 0.1092   0.169956
 C 0.9701 0.13677 0.06694   -0.149347
 C 0.022 0.09906 0.95852   -0.135441
 O 0.68839 0.22292 0.42424   -0.80099
 O 0.47346 0.34891 0.4952   -0.73508
 O 0.58672 0.39707 0.3436   -0.756231
 O 0.81161 0.79868 0.57576   -0.800767
 O 0.02654 0.85371 0.5048   -0.735138
 O 0.91328 0.05347 0.6564   -0.756232
 O 0.31161 0.77708 0.57576   -0.800989
 O 0.52654 0.65109 0.5048   -0.73508
 O 0.41328 0.60293 0.6564   -0.756231
 O 0.18839 0.20132 0.42424   -0.800767
 O 0.97346 0.14629 0.4952   -0.735139
 O 0.08672 0.94653 0.3436   -0.756232
