{'_ref': 'TBD', '_srcid': 'CAKYAQ_clean', 'submitters': [{'name': 'Dalar Nazarian Jeff Camp and David Sholl', 'email': 'dalar@gatech.edu jcamp6@gatech.edu'}], '_method': 'VASP DFT with PBE;DDEC'}
data_Cu3H14C13N6O5
_symmetry_space_group_name_H-M   'P 1'
_cell_length_a   16.75849968
_cell_length_b   16.75850002
_cell_length_c   16.75850000
_cell_angle_alpha   105.19199913
_cell_angle_beta   105.19199945
_cell_angle_gamma   105.19200155
_symmetry_Int_Tables_number   1
_chemical_formula_structural   Cu3H14C13N6O5
_chemical_formula_sum   'Cu18 H84 C78 N36 O30'
_cell_volume   4097.67316579
_cell_formula_units_Z   6
loop_
 _symmetry_equiv_pos_site_id
 _symmetry_equiv_pos_as_xyz
  1  'x, y, z'
loop_
 _atom_site_label
 _atom_site_fract_x
 _atom_site_fract_y
 _atom_site_fract_z
 _atom_site_charge
 Cu 0.43289 0.84748 0.60885   0.732898
 Cu 0.36806 0.76421 0.38783   0.739366
 Cu 0.28478 0.90829 0.48468   0.781609
 Cu 0.60885 0.43289 0.84748   0.732898
 Cu 0.38783 0.36806 0.76421   0.739366
 Cu 0.48468 0.28478 0.90829   0.781609
 Cu 0.84748 0.60885 0.43289   0.732898
 Cu 0.76421 0.38783 0.36806   0.739366
 Cu 0.90829 0.48468 0.28478   0.781609
 Cu 0.56711 0.15252 0.39115   0.732898
 Cu 0.63194 0.23579 0.61217   0.739365
 Cu 0.71522 0.09171 0.51532   0.781608
 Cu 0.39115 0.56711 0.15252   0.732898
 Cu 0.61217 0.63194 0.23579   0.739366
 Cu 0.51532 0.71522 0.09171   0.781608
 Cu 0.15252 0.39115 0.56711   0.732898
 Cu 0.23579 0.61217 0.63194   0.739366
 Cu 0.09171 0.51532 0.71522   0.781608
 H 0.5765 0.7579 0.6435   0.095316
 H 0.5908 0.6461 0.5211   0.124532
 H 0.4823 0.6379 0.3834   0.074851
 H 0.2625 0.7394 0.1873   0.091141
 H 0.1707 0.8342 0.157   0.153984
 H 0.1697 0.9173 0.3038   0.09983
 H 0.2473 0.0235 0.6459   0.104164
 H 0.3307 0.0384 0.7999   0.123087
 H 0.4289 0.9547 0.7941   0.115808
 H 0.4134 0.6606 0.771   0.105109
 H 0.3854 0.7343 0.8216   0.118854
 H 0.5544 0.7458 0.8379   0.112171
 H 0.5288 0.8237 0.8855   0.106161
 H 0.4238 0.9029 0.4958   0.432606
 H 0.6435 0.5765 0.7579   0.095316
 H 0.5211 0.5908 0.6461   0.124533
 H 0.3834 0.4823 0.6379   0.074851
 H 0.1873 0.2625 0.7394   0.091141
 H 0.157 0.1707 0.8342   0.153984
 H 0.3038 0.1697 0.9173   0.09983
 H 0.6459 0.2473 0.0235   0.104163
 H 0.7999 0.3307 0.0384   0.123087
 H 0.7941 0.4289 0.9547   0.115808
 H 0.771 0.4134 0.6606   0.105109
 H 0.8216 0.3854 0.7343   0.118854
 H 0.8379 0.5544 0.7458   0.112171
 H 0.8855 0.5288 0.8237   0.106161
 H 0.4958 0.4238 0.9029   0.432606
 H 0.7579 0.6435 0.5765   0.095317
 H 0.6461 0.5211 0.5908   0.124534
 H 0.6379 0.3834 0.4823   0.074851
 H 0.7394 0.1873 0.2625   0.091141
 H 0.8342 0.157 0.1707   0.153984
 H 0.9173 0.3038 0.1697   0.09983
 H 0.0235 0.6459 0.2473   0.104163
 H 0.0384 0.7999 0.3307   0.123088
 H 0.9547 0.7941 0.4289   0.115808
 H 0.6606 0.771 0.4134   0.105109
 H 0.7343 0.8216 0.3854   0.118854
 H 0.7458 0.8379 0.5544   0.112171
 H 0.8237 0.8855 0.5288   0.106161
 H 0.9029 0.4958 0.4238   0.432606
 H 0.4235 0.2421 0.3565   0.095316
 H 0.4092 0.3539 0.4789   0.124531
 H 0.5177 0.3621 0.6166   0.074851
 H 0.7375 0.2606 0.8127   0.09114
 H 0.8293 0.1658 0.843   0.153992
 H 0.8303 0.0827 0.6962   0.099831
 H 0.7527 0.9765 0.3541   0.104164
 H 0.6693 0.9616 0.2001   0.123086
 H 0.5711 0.0453 0.2059   0.115808
 H 0.5866 0.3394 0.229   0.105109
 H 0.6146 0.2657 0.1784   0.118855
 H 0.4456 0.2542 0.1621   0.112173
 H 0.4712 0.1763 0.1145   0.10616
 H 0.5762 0.0971 0.5042   0.432607
 H 0.3565 0.4235 0.2421   0.095317
 H 0.4789 0.4092 0.3539   0.124533
 H 0.6166 0.5177 0.3621   0.074851
 H 0.8127 0.7375 0.2606   0.09114
 H 0.843 0.8293 0.1658   0.153992
 H 0.6962 0.8303 0.0827   0.099832
 H 0.3541 0.7527 0.9765   0.104163
 H 0.2001 0.6693 0.9616   0.123086
 H 0.2059 0.5711 0.0453   0.115808
 H 0.229 0.5866 0.3394   0.105109
 H 0.1784 0.6146 0.2657   0.118855
 H 0.1621 0.4456 0.2542   0.112173
 H 0.1145 0.4712 0.1763   0.106159
 H 0.5042 0.5762 0.0971   0.432607
 H 0.2421 0.3565 0.4235   0.095317
 H 0.3539 0.4789 0.4092   0.124533
 H 0.3621 0.6166 0.5177   0.074851
 H 0.2606 0.8127 0.7375   0.09114
 H 0.1658 0.843 0.8293   0.153992
 H 0.0827 0.6962 0.8303   0.099832
 H 0.9765 0.3541 0.7527   0.104163
 H 0.9616 0.2001 0.6693   0.123087
 H 0.0453 0.2059 0.5711   0.115807
 H 0.3394 0.229 0.5866   0.105109
 H 0.2657 0.1784 0.6146   0.118855
 H 0.2542 0.1621 0.4456   0.112173
 H 0.1763 0.1145 0.4712   0.106159
 H 0.0971 0.5042 0.5762   0.432607
 C 0.5437 0.7401 0.5837   0.062962
 C 0.5528 0.6776 0.5159   -0.260835
 C 0.4931 0.6736 0.4407   0.093399
 C 0.2523 0.7805 0.229   0.08276
 C 0.1998 0.8322 0.2115   -0.301419
 C 0.2014 0.8797 0.295   0.08241
 C 0.2894 0.9984 0.6622   0.082972
 C 0.3368 0.0063 0.7488   -0.291197
 C 0.3913 0.9612 0.7463   0.104912
 C 0.412 0.755 0.7152   0.683526
 C 0.428 0.7241 0.7943   -0.294146
 C 0.5113 0.7598 0.8625   -0.249207
 C 0.5136 0.7267 0.9368   0.716149
 C 0.5837 0.5437 0.7401   0.062962
 C 0.5159 0.5528 0.6776   -0.260835
 C 0.4407 0.4931 0.6736   0.093399
 C 0.229 0.2523 0.7805   0.08276
 C 0.2115 0.1998 0.8322   -0.301419
 C 0.295 0.2014 0.8797   0.08241
 C 0.6622 0.2894 0.9984   0.082972
 C 0.7488 0.3368 0.0063   -0.291197
 C 0.7463 0.3913 0.9612   0.104912
 C 0.7152 0.412 0.755   0.683526
 C 0.7943 0.428 0.7241   -0.294146
 C 0.8625 0.5113 0.7598   -0.249206
 C 0.9368 0.5136 0.7267   0.716149
 C 0.7401 0.5837 0.5437   0.062962
 C 0.6776 0.5159 0.5528   -0.260835
 C 0.6736 0.4407 0.4931   0.0934
 C 0.7805 0.229 0.2523   0.08276
 C 0.8322 0.2115 0.1998   -0.301419
 C 0.8797 0.295 0.2014   0.08241
 C 0.9984 0.6622 0.2894   0.082972
 C 0.0063 0.7488 0.3368   -0.291198
 C 0.9612 0.7463 0.3913   0.104913
 C 0.755 0.7152 0.412   0.683529
 C 0.7241 0.7943 0.428   -0.294148
 C 0.7598 0.8625 0.5113   -0.249206
 C 0.7267 0.9368 0.5136   0.716149
 C 0.4563 0.2599 0.4163   0.062962
 C 0.4472 0.3224 0.4841   -0.260835
 C 0.5069 0.3264 0.5593   0.093401
 C 0.7477 0.2195 0.771   0.082761
 C 0.8002 0.1678 0.7885   -0.301422
 C 0.7986 0.1203 0.705   0.08241
 C 0.7106 0.0016 0.3378   0.082972
 C 0.6632 0.9937 0.2512   -0.291197
 C 0.6087 0.0388 0.2537   0.104912
 C 0.588 0.245 0.2848   0.683526
 C 0.572 0.2759 0.2057   -0.294147
 C 0.4887 0.2402 0.1375   -0.249206
 C 0.4864 0.2733 0.0632   0.71615
 C 0.4163 0.4563 0.2599   0.062962
 C 0.4841 0.4472 0.3224   -0.260835
 C 0.5593 0.5069 0.3264   0.093401
 C 0.771 0.7477 0.2195   0.082762
 C 0.7885 0.8002 0.1678   -0.301422
 C 0.705 0.7986 0.1203   0.08241
 C 0.3378 0.7106 0.0016   0.082972
 C 0.2512 0.6632 0.9937   -0.291197
 C 0.2537 0.6087 0.0388   0.104912
 C 0.2848 0.588 0.245   0.683526
 C 0.2057 0.572 0.2759   -0.294147
 C 0.1375 0.4887 0.2402   -0.249206
 C 0.0632 0.4864 0.2733   0.716149
 C 0.2599 0.4163 0.4563   0.062962
 C 0.3224 0.4841 0.4472   -0.260835
 C 0.3264 0.5593 0.5069   0.093401
 C 0.2195 0.771 0.7477   0.082762
 C 0.1678 0.7885 0.8002   -0.301423
 C 0.1203 0.705 0.7986   0.08241
 C 0.0016 0.3378 0.7106   0.082972
 C 0.9937 0.2512 0.6632   -0.291197
 C 0.0388 0.2537 0.6087   0.104913
 C 0.245 0.2848 0.588   0.68353
 C 0.2759 0.2057 0.572   -0.294148
 C 0.2402 0.1375 0.4887   -0.249206
 C 0.2733 0.0632 0.4864   0.716149
 N 0.4831 0.77 0.5514   -0.196814
 N 0.4525 0.7306 0.4642   -0.27435
 N 0.2847 0.8025 0.318   -0.275335
 N 0.2552 0.8642 0.3623   -0.245458
 N 0.3168 0.9477 0.6087   -0.246779
 N 0.3813 0.9282 0.6636   -0.267025
 N 0.5514 0.4831 0.77   -0.196814
 N 0.4642 0.4525 0.7306   -0.27435
 N 0.318 0.2847 0.8025   -0.275335
 N 0.3623 0.2552 0.8642   -0.245458
 N 0.6087 0.3168 0.9477   -0.24678
 N 0.6636 0.3813 0.9282   -0.267025
 N 0.77 0.5514 0.4831   -0.196814
 N 0.7306 0.4642 0.4525   -0.27435
 N 0.8025 0.318 0.2847   -0.275335
 N 0.8642 0.3623 0.2552   -0.245458
 N 0.9477 0.6087 0.3168   -0.246779
 N 0.9282 0.6636 0.3813   -0.267025
 N 0.5169 0.23 0.4486   -0.196814
 N 0.5475 0.2694 0.5358   -0.27435
 N 0.7153 0.1975 0.682   -0.275335
 N 0.7448 0.1358 0.6377   -0.245458
 N 0.6832 0.0523 0.3913   -0.246779
 N 0.6187 0.0718 0.3364   -0.267025
 N 0.4486 0.5169 0.23   -0.196814
 N 0.5358 0.5475 0.2694   -0.274351
 N 0.682 0.7153 0.1975   -0.275335
 N 0.6377 0.7448 0.1358   -0.245458
 N 0.3913 0.6832 0.0523   -0.246779
 N 0.3364 0.6187 0.0718   -0.267025
 N 0.23 0.4486 0.5169   -0.196814
 N 0.2694 0.5358 0.5475   -0.274351
 N 0.1975 0.682 0.7153   -0.275335
 N 0.1358 0.6377 0.7448   -0.245458
 N 0.0523 0.3913 0.6832   -0.246779
 N 0.0718 0.3364 0.6187   -0.267025
 O 0.4724 0.8215 0.7185   -0.525083
 O 0.3395 0.7189 0.6537   -0.578363
 O 0.5235 0.7812 0.0104   -0.59634
 O 0.5104 0.6521 0.9264   -0.630092
 O 0.3833 0.8618 0.4931   -0.788139
 O 0.7185 0.4724 0.8215   -0.525083
 O 0.6537 0.3395 0.7189   -0.578363
 O 0.0104 0.5235 0.7812   -0.59634
 O 0.9264 0.5104 0.6521   -0.630092
 O 0.4931 0.3833 0.8618   -0.78814
 O 0.8215 0.7185 0.4724   -0.525085
 O 0.7189 0.6537 0.3395   -0.578364
 O 0.7812 0.0104 0.5235   -0.59634
 O 0.6521 0.9264 0.5104   -0.630092
 O 0.8618 0.4931 0.3833   -0.788139
 O 0.5276 0.1785 0.2815   -0.525083
 O 0.6605 0.2811 0.3463   -0.578363
 O 0.4765 0.2188 0.9896   -0.59634
 O 0.4896 0.3479 0.0736   -0.630093
 O 0.6167 0.1382 0.5069   -0.78814
 O 0.2815 0.5276 0.1785   -0.525083
 O 0.3463 0.6605 0.2811   -0.578363
 O 0.9896 0.4765 0.2188   -0.59634
 O 0.0736 0.4896 0.3479   -0.630092
 O 0.5069 0.6167 0.1382   -0.78814
 O 0.1785 0.2815 0.5276   -0.525085
 O 0.2811 0.3463 0.6605   -0.578364
 O 0.2188 0.9896 0.4765   -0.59634
 O 0.3479 0.0736 0.4896   -0.630092
 O 0.1382 0.5069 0.6167   -0.78814
