{'_ref': 'TBD', '_srcid': 'CAKYAQ_clean', 'submitters': [{'name': 'Dalar Nazarian Jeff Camp and David Sholl', 'email': 'dalar@gatech.edu jcamp6@gatech.edu'}], '_method': 'VASP DFT with PBE;DDEC'}
data_Mg3H48C78(NO6)2
_symmetry_space_group_name_H-M   'P 1'
_cell_length_a   8.43189977
_cell_length_b   12.82510000
_cell_length_c   20.92400000
_cell_angle_alpha   73.46200023
_cell_angle_beta   84.69199870
_cell_angle_gamma   78.30699776
_symmetry_Int_Tables_number   1
_chemical_formula_structural   Mg3H48C78(NO6)2
_chemical_formula_sum   'Mg3 H48 C78 N2 O12'
_cell_volume   2122.63823684
_cell_formula_units_Z   1
loop_
 _symmetry_equiv_pos_site_id
 _symmetry_equiv_pos_as_xyz
  1  'x, y, z'
loop_
 _atom_site_label
 _atom_site_fract_x
 _atom_site_fract_y
 _atom_site_fract_z
 _atom_site_charge
 Mg 0.43397 0.82994 0.000529999999998   1.591881
 Mg 0.56603 0.17006 0.99947   1.591878
 Mg 0.0 0.0 0.0   1.668791
 H 0.5843 0.047 0.1877   0.085918
 H 0.3549 0.7463 0.3051   0.109215
 H 0.3511 0.8015 0.1907   0.091434
 H 0.16 0.706 0.742   0.097598
 H 0.9308 0.5287 0.7501   0.102298
 H 0.607 0.9841 0.3008   0.106738
 H 0.0154 0.7928 0.629   0.104129
 H 0.6507 0.8033 0.7677   0.109298
 H 0.134 0.1602 0.8537   0.093964
 H 0.4885 0.7482 0.705   0.116601
 H 0.4486 0.4148 0.7714   0.107608
 H 0.3083 0.7257 0.8244   0.106797
 H 0.9516 0.969 0.8586   0.101414
 H 0.6217 0.5214 0.705   0.112999
 H 0.0997 0.5551 0.6381   0.098268
 H 0.3007 0.2658 0.7811   0.083542
 H 0.2709 0.6657 0.5729   0.119749
 H 0.5743 0.5773 0.5049   0.118996
 H 0.7985 0.9462 0.7789   0.090849
 H 0.7667 0.4246 0.8258   0.107074
 H 0.5285 0.887 0.5233   0.117051
 H 0.8556 0.7338 0.5668   0.126544
 H 0.4961 0.9578 0.4097   0.098917
 H 0.5338 0.6487 0.3928   0.090698
 H 0.4157 0.953 0.8123   0.085918
 H 0.6451 0.2537 0.6949   0.109215
 H 0.6489 0.1985 0.8093   0.091434
 H 0.84 0.294 0.258   0.097598
 H 0.0692 0.4713 0.2499   0.102298
 H 0.393 0.0159 0.6992   0.106738
 H 0.9846 0.2072 0.371   0.10413
 H 0.3493 0.1967 0.2323   0.109298
 H 0.866 0.8398 0.1463   0.093964
 H 0.5115 0.2518 0.295   0.116601
 H 0.5514 0.5852 0.2286   0.107608
 H 0.6917 0.2743 0.1756   0.106797
 H 0.0484 0.031 0.1414   0.101414
 H 0.3783 0.4786 0.295   0.112999
 H 0.9003 0.4449 0.3619   0.098269
 H 0.6993 0.7342 0.2189   0.083542
 H 0.7291 0.3343 0.4271   0.119749
 H 0.4257 0.4227 0.4951   0.118996
 H 0.2015 0.0538 0.2211   0.090849
 H 0.2333 0.5754 0.1742   0.107074
 H 0.4715 0.113 0.4767   0.11705
 H 0.1444 0.2662 0.4332   0.126545
 H 0.5039 0.0422 0.5903   0.098916
 H 0.4662 0.3513 0.6072   0.090697
 C 0.5425 0.9845 0.2112   -0.02203
 C 0.4679 0.9299 0.1765   -0.151486
 C 0.4063 0.8041 0.2813   -0.146552
 C 0.4005 0.839 0.2129   -0.017111
 C 0.8356 0.2138 0.9036   0.773598
 C 0.4893 0.8549 0.3157   0.055864
 C 0.1167 0.7564 0.7662   -0.151243
 C 0.9606 0.8212 0.7527   0.05876
 C 0.2506 0.4752 0.7137   0.005625
 C 0.9722 0.4555 0.772   -0.15249
 C 0.9349 0.2821 0.8503   -0.198246
 C 0.2342 0.8463 0.9107   0.732914
 C 0.8543 0.7988 0.7074   0.006169
 C 0.4653 0.9668 0.102   0.820416
 C 0.1402 0.8439 0.853   -0.183909
 C 0.4632 0.6094 0.6333   0.158488
 C 0.5549 0.9476 0.2789   -0.139939
 C 0.9122 0.781 0.6451   -0.091437
 C 0.6927 0.7876 0.7281   -0.077283
 C 0.1368 0.4091 0.7584   0.059633
 C 0.095 0.2348 0.8342   -0.017459
 C 0.5951 0.7539 0.6909   -0.183491
 C 0.4118 0.4658 0.7318   -0.083094
 C 0.2053 0.7681 0.8158   -0.014016
 C 0.9901 0.9143 0.8369   -0.018152
 C 0.5532 0.7249 0.5266   0.151615
 C 0.5159 0.5305 0.6923   -0.180607
 C 0.2027 0.5498 0.6527   -0.081551
 C 0.6592 0.7284 0.6314   0.152106
 C 0.1947 0.2978 0.7899   -0.129124
 C 0.3062 0.6162 0.6131   -0.191113
 C 0.5566 0.6535 0.4861   -0.180917
 C 0.8999 0.9017 0.7884   -0.130698
 C 0.8732 0.3932 0.8173   -0.016406
 C 0.5104 0.811 0.3886   0.006771
 C 0.5302 0.8392 0.497   -0.187998
 C 0.816 0.7458 0.6076   -0.186463
 C 0.51 0.8817 0.4288   -0.085424
 C 0.5338 0.6965 0.4189   -0.081327
 C 0.4575 0.0155 0.7888   -0.02203
 C 0.5321 0.0701 0.8235   -0.151486
 C 0.5937 0.1959 0.7187   -0.146551
 C 0.5995 0.161 0.7871   -0.017111
 C 0.1644 0.7862 0.0964   0.773598
 C 0.5107 0.1451 0.6843   0.055864
 C 0.8833 0.2436 0.2338   -0.151243
 C 0.0394 0.1788 0.2473   0.05876
 C 0.7494 0.5248 0.2863   0.005625
 C 0.0278 0.5445 0.228   -0.15249
 C 0.0651 0.7179 0.1497   -0.198246
 C 0.7658 0.1537 0.0893   0.732913
 C 0.1457 0.2012 0.2926   0.006168
 C 0.5347 0.0332 0.898   0.820416
 C 0.8598 0.1561 0.147   -0.183909
 C 0.5368 0.3906 0.3667   0.158488
 C 0.4451 0.0524 0.7211   -0.139938
 C 0.0878 0.219 0.3549   -0.091437
 C 0.3073 0.2124 0.2719   -0.077283
 C 0.8632 0.5909 0.2416   0.059633
 C 0.905 0.7652 0.1658   -0.017459
 C 0.4049 0.2461 0.3091   -0.183491
 C 0.5882 0.5342 0.2682   -0.083094
 C 0.7947 0.2319 0.1842   -0.014016
 C 0.0099 0.0857 0.1631   -0.018152
 C 0.4468 0.2751 0.4734   0.151615
 C 0.4841 0.4695 0.3077   -0.180607
 C 0.7973 0.4502 0.3473   -0.081551
 C 0.3408 0.2716 0.3686   0.152106
 C 0.8053 0.7022 0.2101   -0.129123
 C 0.6938 0.3838 0.3869   -0.191113
 C 0.4434 0.3465 0.5139   -0.180917
 C 0.1001 0.0983 0.2116   -0.130697
 C 0.1268 0.6068 0.1827   -0.016407
 C 0.4896 0.189 0.6114   0.006771
 C 0.4698 0.1608 0.503   -0.187998
 C 0.184 0.2542 0.3924   -0.186463
 C 0.49 0.1183 0.5712   -0.085423
 C 0.4662 0.3035 0.5811   -0.081327
 N 0.5663 0.6823 0.59646   -0.142775
 N 0.4337 0.3177 0.40354   -0.142775
 O 0.3594 0.7713 0.92675   -0.67652
 O 0.1891 0.9221 0.9412   -0.853637
 O 0.7069 0.2622 0.92687   -0.701934
 O 0.8908 0.1089 0.92081   -0.843238
 O 0.4418 0.07 0.0745   -0.780525
 O 0.4853 0.8916 0.07234   -0.807735
 O 0.6406 0.2287 0.07325   -0.676519
 O 0.8109 0.0779 0.0588   -0.853636
 O 0.2931 0.7378 0.07313   -0.701934
 O 0.1092 0.8911 0.07919   -0.843238
 O 0.5582 0.93 0.9255   -0.780525
 O 0.5147 0.1084 0.92766   -0.807734
