{'_ref': 'TBD', '_srcid': 'CAKYAQ_clean', 'submitters': [{'name': 'Dalar Nazarian Jeff Camp and David Sholl', 'email': 'dalar@gatech.edu jcamp6@gatech.edu'}], '_method': 'VASP DFT with PBE;DDEC'}
data_Pr2H12(C4O5)3
_symmetry_space_group_name_H-M   'P 1'
_cell_length_a   9.40030000
_cell_length_b   9.40030034
_cell_length_c   17.35000000
_cell_angle_alpha   90.00000000
_cell_angle_beta   90.00000000
_cell_angle_gamma   119.99999879
_symmetry_Int_Tables_number   1
_chemical_formula_structural   Pr2H12(C4O5)3
_chemical_formula_sum   'Pr4 H24 C24 O30'
_cell_volume   1327.74159129
_cell_formula_units_Z   2
loop_
 _symmetry_equiv_pos_site_id
 _symmetry_equiv_pos_as_xyz
  1  'x, y, z'
loop_
 _atom_site_label
 _atom_site_fract_x
 _atom_site_fract_y
 _atom_site_fract_z
 _atom_site_charge
 Pr 0.33333 0.66666 0.75   2.225932
 Pr 0.66667 0.33334 0.25   2.225935
 Pr 0.0 0.0 0.0   2.123872
 Pr 0.0 0.0 0.5   2.123883
 H 0.5015 0.6718 0.9741   0.095533
 H 0.5754 0.5955 0.9172   0.117015
 H 0.1703 0.4985 0.9741   0.095536
 H 0.0201 0.4246 0.9172   0.117016
 H 0.3282 0.8297 0.9741   0.095536
 H 0.4045 0.9799 0.9172   0.117016
 H 0.5015 0.6718 0.5259   0.095533
 H 0.5754 0.5955 0.5828   0.117015
 H 0.1703 0.4985 0.5259   0.095536
 H 0.0201 0.4246 0.5828   0.117016
 H 0.3282 0.8297 0.5259   0.095536
 H 0.4045 0.9799 0.5828   0.117015
 H 0.8297 0.3282 0.0259   0.095533
 H 0.9799 0.4045 0.0828   0.117016
 H 0.6718 0.5015 0.0259   0.095537
 H 0.5955 0.5754 0.0828   0.117016
 H 0.4985 0.1703 0.0259   0.095536
 H 0.4246 0.0201 0.0828   0.117016
 H 0.8297 0.3282 0.4741   0.095533
 H 0.9799 0.4045 0.4172   0.117016
 H 0.6718 0.5015 0.4741   0.095537
 H 0.5955 0.5754 0.4172   0.117015
 H 0.4985 0.1703 0.4741   0.095536
 H 0.4246 0.0201 0.4172   0.117016
 C 0.6516 0.8341 0.8939   0.771776
 C 0.6 0.6929 0.9466   -0.088115
 C 0.1825 0.3484 0.8939   0.771784
 C 0.0929 0.4 0.9466   -0.08812
 C 0.1659 0.8175 0.8939   0.771766
 C 0.3071 0.9071 0.9466   -0.088117
 C 0.6516 0.8341 0.6061   0.771776
 C 0.6 0.6929 0.5534   -0.088115
 C 0.1825 0.3484 0.6061   0.771784
 C 0.0929 0.4 0.5534   -0.08812
 C 0.1659 0.8175 0.6061   0.771766
 C 0.3071 0.9071 0.5534   -0.088117
 C 0.8175 0.1659 0.1061   0.771776
 C 0.9071 0.3071 0.0534   -0.088114
 C 0.8341 0.6516 0.1061   0.771784
 C 0.6929 0.6 0.0534   -0.088121
 C 0.3484 0.1825 0.1061   0.771766
 C 0.4 0.0929 0.0534   -0.088116
 C 0.8175 0.1659 0.3939   0.771776
 C 0.9071 0.3071 0.4466   -0.088114
 C 0.8341 0.6516 0.3939   0.771785
 C 0.6929 0.6 0.4466   -0.08812
 C 0.3484 0.1825 0.3939   0.771766
 C 0.4 0.0929 0.4466   -0.088116
 O 0.7892 0.9614 0.9035   -0.668032
 O 0.5527 0.8231 0.8428   -0.775684
 O 0.1722 0.2108 0.9035   -0.668034
 O 0.2704 0.4473 0.8428   -0.775702
 O 0.0386 0.8278 0.9035   -0.668017
 O 0.1769 0.7296 0.8428   -0.775678
 O 0.7892 0.9614 0.5965   -0.668033
 O 0.5527 0.8231 0.6572   -0.775684
 O 0.1722 0.2108 0.5965   -0.668035
 O 0.2704 0.4473 0.6572   -0.775702
 O 0.0386 0.8278 0.5965   -0.668017
 O 0.1769 0.7296 0.6572   -0.775678
 O 0.8278 0.0386 0.0965   -0.668032
 O 0.7296 0.1769 0.1572   -0.775685
 O 0.9614 0.7892 0.0965   -0.668034
 O 0.8231 0.5527 0.1572   -0.775702
 O 0.2108 0.1722 0.0965   -0.668017
 O 0.4473 0.2704 0.1572   -0.775678
 O 0.8278 0.0386 0.4035   -0.668033
 O 0.7296 0.1769 0.3428   -0.775685
 O 0.9614 0.7892 0.4035   -0.668035
 O 0.8231 0.5527 0.3428   -0.775702
 O 0.2108 0.1722 0.4035   -0.668017
 O 0.4473 0.2704 0.3428   -0.775678
 O 0.7285 0.7285 0.0   -0.354924
 O 0.0 0.2715 0.0   -0.354927
 O 0.2715 0.0 0.0   -0.354918
 O 0.7285 0.7285 0.5   -0.354925
 O 0.0 0.2715 0.5   -0.354928
 O 0.2715 0.0 0.5   -0.354919
