{'_ref': 'TBD', '_srcid': 'CAKYAQ_clean', 'submitters': [{'name': 'Dalar Nazarian Jeff Camp and David Sholl', 'email': 'dalar@gatech.edu jcamp6@gatech.edu'}], '_method': 'VASP DFT with PBE;DDEC'}
data_AgH4C6NO2
_symmetry_space_group_name_H-M   'P 1'
_cell_length_a   3.65190035
_cell_length_b   12.15120000
_cell_length_c   15.07000000
_cell_angle_alpha   90.00000000
_cell_angle_beta   90.98199463
_cell_angle_gamma   90.00000000
_symmetry_Int_Tables_number   1
_chemical_formula_structural   AgH4C6NO2
_chemical_formula_sum   'Ag4 H16 C24 N4 O8'
_cell_volume   668.632605349
_cell_formula_units_Z   4
loop_
 _symmetry_equiv_pos_site_id
 _symmetry_equiv_pos_as_xyz
  1  'x, y, z'
loop_
 _atom_site_label
 _atom_site_fract_x
 _atom_site_fract_y
 _atom_site_fract_z
 _atom_site_charge
 Ag 0.3956 0.42607 0.92452   0.506745
 Ag 0.6044 0.92607 0.57548   0.506745
 Ag 0.6044 0.57393 0.07548   0.506745
 Ag 0.3956 0.07393 0.42452   0.506745
 H 0.0702 0.5936 0.7445   0.109521
 H 0.305 0.6927 0.6292   0.089076
 H 0.4102 0.9544 0.7782   0.073172
 H 0.1731 0.864 0.8984   0.131637
 H 0.9298 0.0936 0.7555   0.109523
 H 0.695 0.1927 0.8708   0.089073
 H 0.5898 0.4544 0.7218   0.073174
 H 0.8269 0.364 0.6016   0.131635
 H 0.9298 0.4064 0.2555   0.109521
 H 0.695 0.3073 0.3708   0.089074
 H 0.5898 0.0456 0.2218   0.073173
 H 0.8269 0.136 0.1016   0.13163
 H 0.0702 0.9064 0.2445   0.109523
 H 0.305 0.8073 0.1292   0.089072
 H 0.4102 0.5456 0.2782   0.073174
 H 0.1731 0.636 0.3984   0.131628
 C 0.931 0.6591 0.9114   0.607752
 C 0.095 0.7176 0.8354   0.005615
 C 0.139 0.6683 0.7532   -0.14169
 C 0.28 0.7276 0.6852   0.140416
 C 0.34 0.8795 0.7719   0.136493
 C 0.199 0.8265 0.8436   -0.149849
 C 0.069 0.1591 0.5886   0.607752
 C 0.905 0.2176 0.6646   0.005615
 C 0.861 0.1683 0.7468   -0.14169
 C 0.72 0.2276 0.8148   0.140417
 C 0.66 0.3795 0.7281   0.136493
 C 0.801 0.3265 0.6564   -0.149849
 C 0.069 0.3409 0.0886   0.607752
 C 0.905 0.2824 0.1646   0.005614
 C 0.861 0.3317 0.2468   -0.14169
 C 0.72 0.2724 0.3148   0.140416
 C 0.66 0.1205 0.2281   0.136492
 C 0.801 0.1735 0.1564   -0.149847
 C 0.931 0.8409 0.4114   0.607752
 C 0.095 0.7824 0.3354   0.005614
 C 0.139 0.8317 0.2532   -0.14169
 C 0.28 0.7724 0.1852   0.140417
 C 0.34 0.6205 0.2719   0.136492
 C 0.199 0.6735 0.3436   -0.149846
 N 0.383 0.8307 0.6931   -0.318851
 N 0.617 0.3307 0.8069   -0.318851
 N 0.617 0.1693 0.3069   -0.318851
 N 0.383 0.6693 0.1931   -0.318851
 O 0.884 0.5538 0.8985   -0.646363
 O 0.831 0.7111 0.9774   -0.54367
 O 0.116 0.0538 0.6015   -0.646363
 O 0.169 0.2111 0.5226   -0.54367
 O 0.116 0.4462 0.1015   -0.646363
 O 0.169 0.2889 0.0226   -0.54367
 O 0.884 0.9462 0.3985   -0.646363
 O 0.831 0.7889 0.4774   -0.54367
