{'_ref': 'TBD', '_srcid': 'CAKYAQ_clean', 'submitters': [{'name': 'Dalar Nazarian Jeff Camp and David Sholl', 'email': 'dalar@gatech.edu jcamp6@gatech.edu'}], '_method': 'VASP DFT with PBE;DDEC'}
data_CoH8C12(NO2)2
_symmetry_space_group_name_H-M   'P 1'
_cell_length_a   6.30700000
_cell_length_b   10.49189976
_cell_length_c   12.61100000
_cell_angle_alpha   90.00000000
_cell_angle_beta   90.00000000
_cell_angle_gamma   91.22700081
_symmetry_Int_Tables_number   1
_chemical_formula_structural   CoH8C12(NO2)2
_chemical_formula_sum   'Co2 H16 C24 N4 O8'
_cell_volume   834.308936716
_cell_formula_units_Z   2
loop_
 _symmetry_equiv_pos_site_id
 _symmetry_equiv_pos_as_xyz
  1  'x, y, z'
loop_
 _atom_site_label
 _atom_site_fract_x
 _atom_site_fract_y
 _atom_site_fract_z
 _atom_site_charge
 Co 0.372 0.25995 0.24626   0.858303
 Co 0.872 0.75995 0.75374   0.858303
 H 0.7645 0.9868 0.6298   0.078177
 H 0.8866 0.1136 0.4913   0.12718
 H 0.4248 0.9166 0.4924   0.128703
 H 0.2911 0.8002 0.6335   0.084482
 H 0.9468 0.3195 0.1506   0.082298
 H 0.8034 0.4409 0.0218   0.12803
 H 0.3533 0.6416 0.0133   0.127124
 H 0.4778 0.5151 0.1436   0.076938
 H 0.2645 0.4868 0.3702   0.078177
 H 0.3866 0.6136 0.5087   0.127179
 H 0.9248 0.4166 0.5076   0.128703
 H 0.7911 0.3002 0.3665   0.084481
 H 0.4468 0.8195 0.8494   0.082297
 H 0.3034 0.9409 0.9782   0.12803
 H 0.8533 0.1416 0.9867   0.127123
 H 0.9778 0.0151 0.8564   0.076938
 C 0.2073 0.8622 0.6039   0.168233
 C 0.9767 0.6347 0.912   0.606652
 C 0.8989 0.9735 0.6021   0.129722
 C 0.9711 0.0499 0.5186   -0.131878
 C 0.1724 0.0292 0.4767   -0.01522
 C 0.2911 0.9336 0.5193   -0.153995
 C 0.2576 0.1095 0.3852   0.601158
 C 0.0307 0.3842 0.1209   0.166134
 C 0.9413 0.4574 0.0448   -0.153667
 C 0.0637 0.5592 0.0016   -0.016638
 C 0.267 0.5762 0.0401   -0.1301
 C 0.3425 0.4985 0.1169   0.140095
 C 0.7073 0.3622 0.3961   0.168236
 C 0.4767 0.1347 0.088   0.606653
 C 0.3989 0.4735 0.3979   0.129726
 C 0.4711 0.5499 0.4814   -0.131876
 C 0.6724 0.5292 0.5233   -0.015213
 C 0.7911 0.4336 0.4807   -0.153995
 C 0.7576 0.6095 0.6148   0.601158
 C 0.5307 0.8842 0.8791   0.166137
 C 0.4413 0.9574 0.9552   -0.153667
 C 0.5637 0.0592 0.9984   -0.016634
 C 0.767 0.0762 0.9599   -0.130098
 C 0.8425 0.9985 0.8831   0.140097
 N 0.0177 0.881 0.6438   -0.348656
 N 0.2292 0.3976 0.1563   -0.356098
 N 0.5177 0.381 0.3562   -0.348656
 N 0.7292 0.8976 0.8437   -0.356098
 O 0.4408 0.0987 0.3568   -0.530244
 O 0.1342 0.1952 0.3476   -0.562457
 O 0.7886 0.6233 0.8847   -0.544154
 O 0.1002 0.7155 0.8655   -0.560134
 O 0.9408 0.5987 0.6432   -0.530244
 O 0.6342 0.6952 0.6524   -0.562458
 O 0.2886 0.1233 0.1153   -0.544154
 O 0.6002 0.2155 0.1345   -0.560135
