{'_ref': 'TBD', '_srcid': 'CAKYAQ_clean', 'submitters': [{'name': 'Dalar Nazarian Jeff Camp and David Sholl', 'email': 'dalar@gatech.edu jcamp6@gatech.edu'}], '_method': 'VASP DFT with PBE;DDEC'}
data_Na2U2H6C18O25
_symmetry_space_group_name_H-M   'P 1'
_cell_length_a   7.96740000
_cell_length_b   17.75500000
_cell_length_c   21.29600000
_cell_angle_alpha   90.00000000
_cell_angle_beta   90.00000000
_cell_angle_gamma   90.00000000
_symmetry_Int_Tables_number   1
_chemical_formula_structural   Na2U2H6C18O25
_chemical_formula_sum   'Na8 U8 H24 C72 O100'
_cell_volume   3012.55743835
_cell_formula_units_Z   4
loop_
 _symmetry_equiv_pos_site_id
 _symmetry_equiv_pos_as_xyz
  1  'x, y, z'
loop_
 _atom_site_label
 _atom_site_fract_x
 _atom_site_fract_y
 _atom_site_fract_z
 _atom_site_charge
 Na 0.8869 0.0 0.5   0.854279
 Na 0.1131 0.0 0.0   0.854279
 Na 0.3869 0.5 0.5   0.854279
 Na 0.6131 0.5 0.0   0.854279
 Na 0.5 0.6145 0.75   0.744459
 Na 0.5 0.3855 0.25   0.744459
 Na 0.0 0.1145 0.75   0.744459
 Na 0.0 0.8855 0.25   0.744459
 U 0.03057 0.428378 0.618092   2.601676
 U 0.96943 0.571622 0.118092   2.601676
 U 0.96943 0.428378 0.881908   2.601676
 U 0.03057 0.571622 0.381908   2.601676
 U 0.53057 0.928378 0.618092   2.601676
 U 0.46943 0.071622 0.118092   2.601676
 U 0.46943 0.928378 0.881908   2.601676
 U 0.53057 0.071622 0.381908   2.601676
 H 0.1504 0.8318 0.5411   0.146676
 H 0.8496 0.1682 0.0411   0.146676
 H 0.8496 0.8318 0.9589   0.146676
 H 0.1504 0.1682 0.4589   0.146676
 H 0.6504 0.3318 0.5411   0.146676
 H 0.3496 0.6682 0.0411   0.146676
 H 0.3496 0.3318 0.9589   0.146676
 H 0.6504 0.6682 0.4589   0.146676
 H 0.2829 0.6993 0.5476   0.134123
 H 0.7171 0.3007 0.0476   0.134123
 H 0.7171 0.6993 0.9524   0.134123
 H 0.2829 0.3007 0.4524   0.134123
 H 0.7829 0.1993 0.5476   0.134123
 H 0.2171 0.8007 0.0476   0.134123
 H 0.2171 0.1993 0.9524   0.134123
 H 0.7829 0.8007 0.4524   0.134123
 H 0.6288 0.2215 0.7177   0.13051
 H 0.3712 0.7785 0.2177   0.13051
 H 0.3712 0.2215 0.7823   0.130509
 H 0.6288 0.7785 0.2823   0.130509
 H 0.1288 0.7215 0.7177   0.13051
 H 0.8712 0.2785 0.2177   0.13051
 H 0.8712 0.7215 0.7823   0.130509
 H 0.1288 0.2785 0.2823   0.130509
 C 0.8007 0.8304 0.5869   0.610591
 C 0.1993 0.1696 0.0869   0.610591
 C 0.1993 0.8304 0.9131   0.610591
 C 0.8007 0.1696 0.4131   0.610591
 C 0.3007 0.3304 0.5869   0.610591
 C 0.6993 0.6696 0.0869   0.610591
 C 0.6993 0.3304 0.9131   0.610591
 C 0.3007 0.6696 0.4131   0.610591
 C 0.9424 0.7781 0.5749   0.05663
 C 0.0576 0.2219 0.0749   0.05663
 C 0.0576 0.7781 0.9251   0.05663
 C 0.9424 0.2219 0.4251   0.05663
 C 0.4424 0.2781 0.5749   0.05663
 C 0.5576 0.7219 0.0749   0.05663
 C 0.5576 0.2781 0.9251   0.05663
 C 0.4424 0.7219 0.4251   0.05663
 C 0.6189 0.3367 0.7229   0.125769
 C 0.3811 0.6633 0.2229   0.125769
 C 0.3811 0.3367 0.7771   0.125768
 C 0.6189 0.6633 0.2771   0.125768
 C 0.1189 0.8367 0.7229   0.125769
 C 0.8811 0.1633 0.2229   0.125769
 C 0.8811 0.8367 0.7771   0.125768
 C 0.1189 0.1633 0.2771   0.125768
 C 0.0577 0.6665 0.5773   0.088592
 C 0.9423 0.3335 0.0773   0.088592
 C 0.9423 0.6665 0.9227   0.088592
 C 0.0577 0.3335 0.4227   0.088592
 C 0.5577 0.1665 0.5773   0.088592
 C 0.4423 0.8335 0.0773   0.088592
 C 0.4423 0.1665 0.9227   0.088592
 C 0.5577 0.8335 0.4227   0.088592
 C 0.0511 0.5859 0.5884   0.627772
 C 0.9489 0.4141 0.0884   0.627772
 C 0.9489 0.5859 0.9116   0.627772
 C 0.0511 0.4141 0.4116   0.627772
 C 0.5511 0.0859 0.5884   0.627772
 C 0.4489 0.9141 0.0884   0.627772
 C 0.4489 0.0859 0.9116   0.627772
 C 0.5511 0.9141 0.4116   0.627772
 C 0.0994 0.7875 0.5544   -0.118918
 C 0.9006 0.2125 0.0544   -0.118918
 C 0.9006 0.7875 0.9456   -0.118918
 C 0.0994 0.2125 0.4456   -0.118918
 C 0.5994 0.2875 0.5544   -0.118918
 C 0.4006 0.7125 0.0544   -0.118918
 C 0.4006 0.2875 0.9456   -0.118918
 C 0.5994 0.7125 0.4456   -0.118918
 C 0.173 0.7121 0.5577   -0.120784
 C 0.827 0.2879 0.0577   -0.120784
 C 0.827 0.7121 0.9423   -0.120784
 C 0.173 0.2879 0.4423   -0.120784
 C 0.673 0.2121 0.5577   -0.120784
 C 0.327 0.7879 0.0577   -0.120784
 C 0.327 0.2121 0.9423   -0.120784
 C 0.673 0.7879 0.4423   -0.120784
 C 0.7522 0.3712 0.6868   0.571747
 C 0.2478 0.6288 0.1868   0.571747
 C 0.2478 0.3712 0.8132   0.571747
 C 0.7522 0.6288 0.3132   0.571747
 C 0.2522 0.8712 0.6868   0.571747
 C 0.7478 0.1288 0.1868   0.571747
 C 0.7478 0.8712 0.8132   0.571747
 C 0.2522 0.1288 0.3132   0.571747
 C 0.5725 0.2639 0.7324   -0.111464
 C 0.4275 0.7361 0.2324   -0.111464
 C 0.4275 0.2639 0.7676   -0.111457
 C 0.5725 0.7361 0.2676   -0.111457
 C 0.0725 0.7639 0.7324   -0.111464
 C 0.9275 0.2361 0.2324   -0.111464
 C 0.9275 0.7639 0.7676   -0.111457
 C 0.0725 0.2361 0.2676   -0.111457
 O 0.6705 0.8064 0.6117   -0.559226
 O 0.3295 0.1936 0.1117   -0.559226
 O 0.3295 0.8064 0.8883   -0.559226
 O 0.6705 0.1936 0.3883   -0.559226
 O 0.1705 0.3064 0.6117   -0.559226
 O 0.8295 0.6936 0.1117   -0.559226
 O 0.8295 0.3064 0.8883   -0.559226
 O 0.1705 0.6936 0.3883   -0.559226
 O 0.8114 0.8997 0.5704   -0.698164
 O 0.1886 0.1003 0.0704   -0.698164
 O 0.1886 0.8997 0.9296   -0.698164
 O 0.8114 0.1003 0.4296   -0.698164
 O 0.3114 0.3997 0.5704   -0.698164
 O 0.6886 0.6003 0.0704   -0.698164
 O 0.6886 0.3997 0.9296   -0.698164
 O 0.3114 0.6003 0.4296   -0.698164
 O 0.9216 0.5578 0.6161   -0.59855
 O 0.0784 0.4422 0.1161   -0.59855
 O 0.0784 0.5578 0.8839   -0.59855
 O 0.9216 0.4422 0.3839   -0.59855
 O 0.4216 0.0578 0.6161   -0.59855
 O 0.5784 0.9422 0.1161   -0.59855
 O 0.5784 0.0578 0.8839   -0.59855
 O 0.4216 0.9422 0.3839   -0.59855
 O 0.7518 0.4388 0.6714   -0.554248
 O 0.2482 0.5612 0.1714   -0.554248
 O 0.2482 0.4388 0.8286   -0.554248
 O 0.7518 0.5612 0.3286   -0.554248
 O 0.2518 0.9388 0.6714   -0.554248
 O 0.7482 0.0612 0.1714   -0.554248
 O 0.7482 0.9388 0.8286   -0.554248
 O 0.2518 0.0612 0.3286   -0.554248
 O 0.1722 0.5445 0.5747   -0.675505
 O 0.8278 0.4555 0.0747   -0.675505
 O 0.8278 0.5445 0.9253   -0.675505
 O 0.1722 0.4555 0.4253   -0.675505
 O 0.6722 0.0445 0.5747   -0.675505
 O 0.3278 0.9555 0.0747   -0.675505
 O 0.3278 0.0445 0.9253   -0.675505
 O 0.6722 0.9555 0.4253   -0.675505
 O 0.8715 0.3277 0.6691   -0.596503
 O 0.1285 0.6723 0.1691   -0.596503
 O 0.1285 0.3277 0.8309   -0.596503
 O 0.8715 0.6723 0.3309   -0.596503
 O 0.3715 0.8277 0.6691   -0.596503
 O 0.6285 0.1723 0.1691   -0.596503
 O 0.6285 0.8277 0.8309   -0.596503
 O 0.3715 0.1723 0.3309   -0.596503
 O 0.9103 0.7051 0.5899   -0.105266
 O 0.0897 0.2949 0.0899   -0.105266
 O 0.0897 0.7051 0.9101   -0.105266
 O 0.9103 0.2949 0.4101   -0.105266
 O 0.4103 0.2051 0.5899   -0.105266
 O 0.5897 0.7949 0.0899   -0.105266
 O 0.5897 0.2051 0.9101   -0.105266
 O 0.4103 0.7949 0.4101   -0.105266
 O 0.5 0.3838 0.75   -0.118697
 O 0.5 0.6162 0.25   -0.118697
 O 0.0 0.8838 0.75   -0.118697
 O 0.0 0.1162 0.25   -0.118697
 O 0.1346 0.4463 0.6897   -0.68674
 O 0.8654 0.5537 0.1897   -0.68674
 O 0.8654 0.4463 0.8103   -0.68674
 O 0.1346 0.5537 0.3103   -0.68674
 O 0.6346 0.9463 0.6897   -0.68674
 O 0.3654 0.0537 0.1897   -0.68674
 O 0.3654 0.9463 0.8103   -0.68674
 O 0.6346 0.0537 0.3103   -0.68674
 O 0.928 0.4104 0.5462   -0.722469
 O 0.072 0.5896 0.0462   -0.722469
 O 0.072 0.4104 0.9538   -0.722469
 O 0.928 0.5896 0.4538   -0.722469
 O 0.428 0.9104 0.5462   -0.722469
 O 0.572 0.0896 0.0462   -0.722469
 O 0.572 0.9104 0.9538   -0.722469
 O 0.428 0.0896 0.4538   -0.722469
 O 0.0831 0.9404 0.4385   -0.063311
 O 0.9169 0.0596 0.9385   -0.063311
 O 0.9169 0.9404 0.0615   -0.063311
 O 0.0831 0.0596 0.5615   -0.063311
 O 0.5831 0.4404 0.4385   -0.063311
 O 0.4169 0.5596 0.9385   -0.063311
 O 0.4169 0.4404 0.0615   -0.063311
 O 0.5831 0.5596 0.5615   -0.063311
 O 0.445 0.6752 0.8337   -0.116063
 O 0.555 0.3248 0.3337   -0.116063
 O 0.555 0.6752 0.6663   -0.116063
 O 0.445 0.3248 0.1663   -0.116063
 O 0.945 0.1752 0.8337   -0.116063
 O 0.055 0.8248 0.3337   -0.116063
 O 0.055 0.1752 0.6663   -0.116063
 O 0.945 0.8248 0.1663   -0.116063
 O 0.262 0.5724 0.731   -0.1069
 O 0.738 0.4276 0.231   -0.1069
 O 0.738 0.5724 0.769   -0.1069
 O 0.262 0.4276 0.269   -0.1069
 O 0.762 0.0724 0.731   -0.1069
 O 0.238 0.9276 0.231   -0.1069
 O 0.238 0.0724 0.769   -0.1069
 O 0.762 0.9276 0.269   -0.1069
