{'_ref': 'TBD', '_srcid': 'CAKYAQ_clean', 'submitters': [{'name': 'Dalar Nazarian Jeff Camp and David Sholl', 'email': 'dalar@gatech.edu jcamp6@gatech.edu'}], '_method': 'VASP DFT with PBE;DDEC'}
data_MnH6(C3O)4
_symmetry_space_group_name_H-M   'P 1'
_cell_length_a   11.87310000
_cell_length_b   13.23340054
_cell_length_c   18.47430000
_cell_angle_alpha   90.00000000
_cell_angle_beta   90.00000000
_cell_angle_gamma   109.51100141
_symmetry_Int_Tables_number   1
_chemical_formula_structural   MnH6(C3O)4
_chemical_formula_sum   'Mn6 H36 C72 O24'
_cell_volume   2736.02831791
_cell_formula_units_Z   6
loop_
 _symmetry_equiv_pos_site_id
 _symmetry_equiv_pos_as_xyz
  1  'x, y, z'
loop_
 _atom_site_label
 _atom_site_fract_x
 _atom_site_fract_y
 _atom_site_fract_z
 _atom_site_charge
 Mn 0.15165 0.78744 0.97968   1.116943
 Mn 0.34835 0.71256 0.47968   1.116943
 Mn 0.84835 0.21256 0.02032   1.116943
 Mn 0.65165 0.28744 0.52032   1.116943
 Mn 0.0 0.5 0.0   1.198456
 Mn 0.5 0.0 0.5   1.198456
 H 0.0695 0.133 0.8559   0.103834
 H 0.2474 0.448 0.8583   0.08781
 H 0.3802 0.4279 0.7749   0.105555
 H 0.4457 0.3106 0.6918   0.098966
 H 0.2768 0.9946 0.6945   0.106873
 H 0.1467 0.0132 0.7796   0.10668
 H 0.5938 0.5848 0.8755   0.092001
 H 0.4504 0.6644 0.87   0.10904
 H 0.3053 0.523 0.0555   0.108568
 H 0.4305 0.367 0.3559   0.103834
 H 0.2526 0.052 0.3583   0.08781
 H 0.1198 0.0721 0.2749   0.105555
 H 0.0543 0.1894 0.1918   0.098966
 H 0.2232 0.5054 0.1945   0.106873
 H 0.3533 0.4868 0.2796   0.10668
 H 0.9062 0.9152 0.3755   0.092001
 H 0.0496 0.8356 0.37   0.10904
 H 0.1947 0.977 0.5555   0.108568
 H 0.9305 0.867 0.1441   0.103834
 H 0.7526 0.552 0.1417   0.087809
 H 0.6198 0.5721 0.2251   0.105555
 H 0.5543 0.6894 0.3082   0.098966
 H 0.7232 0.0054 0.3055   0.106873
 H 0.8533 0.9868 0.2204   0.106681
 H 0.4062 0.4152 0.1245   0.092
 H 0.5496 0.3356 0.13   0.10904
 H 0.6947 0.477 0.9445   0.108568
 H 0.5695 0.633 0.6441   0.103834
 H 0.7474 0.948 0.6417   0.087809
 H 0.8802 0.9279 0.7251   0.105555
 H 0.9457 0.8106 0.8082   0.098966
 H 0.7768 0.4946 0.8055   0.106873
 H 0.6467 0.5132 0.7204   0.106681
 H 0.0938 0.0848 0.6245   0.092
 H 0.9504 0.1644 0.63   0.10904
 H 0.8053 0.023 0.4445   0.108568
 C 0.1321 0.1917 0.83927   -0.082305
 C 0.1442 0.2916 0.86438   -0.14485
 C 0.2386 0.3802 0.84025   -0.027511
 C 0.3178 0.3682 0.79056   -0.140271
 C 0.3846 0.2514 0.70933   -0.074254
 C 0.3728 0.1527 0.68313   -0.146929
 C 0.2832 0.0626 0.71104   -0.039645
 C 0.2057 0.0737 0.76189   -0.146176
 C 0.2135 0.176 0.78821   0.040281
 C 0.3062 0.2664 0.76264   0.044511
 C 0.0572 0.3086 0.91844   0.746715
 C 0.4547 0.1424 0.62308   0.732437
 C 0.5382 0.5739 0.91268   -0.117646
 C 0.4517 0.6201 0.9089   -0.052814
 C 0.3637 0.6017 0.96336   -0.125351
 C 0.3649 0.5369 0.02053   -0.064321
 C 0.4559 0.4905 0.02732   0.038324
 C 0.2765 0.6616 0.96118   0.68543
 C 0.3679 0.3083 0.33927   -0.082305
 C 0.3558 0.2084 0.36438   -0.14485
 C 0.2614 0.1198 0.34025   -0.027511
 C 0.1822 0.1318 0.29056   -0.140271
 C 0.1154 0.2486 0.20933   -0.074254
 C 0.1272 0.3473 0.18313   -0.146929
 C 0.2168 0.4374 0.21104   -0.039645
 C 0.2943 0.4263 0.26189   -0.146176
 C 0.2865 0.324 0.28821   0.040281
 C 0.1938 0.2336 0.26264   0.044511
 C 0.4428 0.1914 0.41844   0.746715
 C 0.0453 0.3576 0.12308   0.732437
 C 0.9618 0.9261 0.41268   -0.117646
 C 0.0483 0.8799 0.4089   -0.052814
 C 0.1363 0.8983 0.46336   -0.125351
 C 0.1351 0.9631 0.52053   -0.064321
 C 0.0441 0.0095 0.52732   0.038324
 C 0.2235 0.8384 0.46118   0.68543
 C 0.8679 0.8083 0.16073   -0.082305
 C 0.8558 0.7084 0.13562   -0.14485
 C 0.7614 0.6198 0.15975   -0.02751
 C 0.6822 0.6318 0.20944   -0.140271
 C 0.6154 0.7486 0.29067   -0.074253
 C 0.6272 0.8473 0.31687   -0.146929
 C 0.7168 0.9374 0.28896   -0.039645
 C 0.7943 0.9263 0.23811   -0.146176
 C 0.7865 0.824 0.21179   0.040282
 C 0.6938 0.7336 0.23736   0.044512
 C 0.9428 0.6914 0.08156   0.746716
 C 0.5453 0.8576 0.37692   0.732437
 C 0.4618 0.4261 0.08732   -0.117643
 C 0.5483 0.3799 0.0911   -0.052814
 C 0.6363 0.3983 0.03664   -0.125351
 C 0.6351 0.4631 0.97947   -0.064321
 C 0.5441 0.5095 0.97268   0.038329
 C 0.7235 0.3384 0.03882   0.68543
 C 0.6321 0.6917 0.66073   -0.082305
 C 0.6442 0.7916 0.63562   -0.14485
 C 0.7386 0.8802 0.65975   -0.02751
 C 0.8178 0.8682 0.70944   -0.140271
 C 0.8846 0.7514 0.79067   -0.074253
 C 0.8728 0.6527 0.81687   -0.146929
 C 0.7832 0.5626 0.78896   -0.039645
 C 0.7057 0.5737 0.73811   -0.146176
 C 0.7135 0.676 0.71179   0.040282
 C 0.8062 0.7664 0.73736   0.044512
 C 0.5572 0.8086 0.58156   0.746715
 C 0.9547 0.6424 0.87692   0.732436
 C 0.0382 0.0739 0.58732   -0.117643
 C 0.9517 0.1201 0.5911   -0.052814
 C 0.8637 0.1017 0.53664   -0.125351
 C 0.8649 0.0369 0.47947   -0.064321
 C 0.9559 0.9905 0.47268   0.038329
 C 0.7765 0.1616 0.53882   0.68543
 O 0.07017 0.40203 0.93552   -0.607328
 O 0.97789 0.22671 0.94122   -0.662842
 O 0.43749 0.05191 0.59772   -0.602734
 O 0.53265 0.22675 0.60455   -0.651328
 O 0.18233 0.62877 0.99903   -0.650924
 O 0.30281 0.74639 0.92602   -0.585971
 O 0.42983 0.09797 0.43552   -0.607328
 O 0.52211 0.27329 0.44122   -0.662842
 O 0.06251 0.44809 0.09772   -0.602734
 O 0.96735 0.27325 0.10455   -0.651328
 O 0.31767 0.87123 0.49903   -0.650924
 O 0.19719 0.75361 0.42602   -0.585971
 O 0.92983 0.59797 0.06448   -0.607328
 O 0.02211 0.77329 0.05878   -0.662842
 O 0.56251 0.94809 0.40228   -0.602734
 O 0.46735 0.77325 0.39545   -0.651328
 O 0.81767 0.37123 0.000970000000002   -0.650924
 O 0.69719 0.25361 0.07398   -0.585971
 O 0.57017 0.90203 0.56448   -0.607328
 O 0.47789 0.72671 0.55878   -0.662842
 O 0.93749 0.55191 0.90228   -0.602734
 O 0.03265 0.72675 0.89545   -0.651328
 O 0.68233 0.12877 0.50097   -0.650924
 O 0.80281 0.24639 0.57398   -0.585971
