{'_ref': 'TBD', '_srcid': 'CAKYAQ_clean', 'submitters': [{'name': 'Dalar Nazarian Jeff Camp and David Sholl', 'email': 'dalar@gatech.edu jcamp6@gatech.edu'}], '_method': 'VASP DFT with PBE;DDEC'}
data_Co2H3C9ClO6
_symmetry_space_group_name_H-M   'P 1'
_cell_length_a   14.65180000
_cell_length_b   14.65180000
_cell_length_c   14.65180000
_cell_angle_alpha   90.00000000
_cell_angle_beta   90.00000000
_cell_angle_gamma   90.00000000
_symmetry_Int_Tables_number   1
_chemical_formula_structural   Co2H3C9ClO6
_chemical_formula_sum   'Co8 H12 C36 Cl4 O24'
_cell_volume   3145.3787289
_cell_formula_units_Z   4
loop_
 _symmetry_equiv_pos_site_id
 _symmetry_equiv_pos_as_xyz
  1  'x, y, z'
loop_
 _atom_site_label
 _atom_site_fract_x
 _atom_site_fract_y
 _atom_site_fract_z
 _atom_site_charge
 Co 0.95576 0.54424 0.45576   1.04704
 Co 0.81633 0.68367 0.31633   0.93712
 Co 0.54424 0.45576 0.95576   1.04704
 Co 0.68367 0.31633 0.81633   0.93712
 Co 0.04424 0.04424 0.04424   1.04704
 Co 0.18367 0.18367 0.18367   0.93712
 Co 0.45576 0.95576 0.54424   1.047041
 Co 0.31633 0.81633 0.68367   0.93712
 H 0.7522 0.4699 0.1632   0.099495
 H 0.7478 0.5301 0.6632   0.099495
 H 0.2478 0.9699 0.3368   0.099495
 H 0.2522 0.0301 0.8368   0.099495
 H 0.1632 0.7522 0.4699   0.099495
 H 0.6632 0.7478 0.5301   0.099495
 H 0.3368 0.2478 0.9699   0.099495
 H 0.8368 0.2522 0.0301   0.099495
 H 0.4699 0.1632 0.7522   0.099494
 H 0.5301 0.6632 0.7478   0.099494
 H 0.9699 0.3368 0.2478   0.099494
 H 0.0301 0.8368 0.2522   0.099494
 C 0.8692 0.486 0.2927   0.700089
 C 0.7941 0.4227 0.1561   0.037018
 C 0.8633 0.4151 0.2164   -0.168766
 C 0.6308 0.514 0.7927   0.700089
 C 0.7059 0.5773 0.6561   0.037018
 C 0.6367 0.5849 0.7164   -0.168766
 C 0.1308 0.986 0.2073   0.700089
 C 0.2059 0.9227 0.3439   0.037018
 C 0.1367 0.9151 0.2836   -0.168766
 C 0.3692 0.014 0.7073   0.700089
 C 0.2941 0.0773 0.8439   0.037018
 C 0.3633 0.0849 0.7836   -0.168766
 C 0.2927 0.8692 0.486   0.700087
 C 0.1561 0.7941 0.4227   0.037016
 C 0.2164 0.8633 0.4151   -0.168751
 C 0.7927 0.6308 0.514   0.700087
 C 0.6561 0.7059 0.5773   0.037016
 C 0.7164 0.6367 0.5849   -0.168751
 C 0.2073 0.1308 0.986   0.700087
 C 0.3439 0.2059 0.9227   0.037016
 C 0.2836 0.1367 0.9151   -0.168751
 C 0.7073 0.3692 0.014   0.700087
 C 0.8439 0.2941 0.0773   0.037016
 C 0.7836 0.3633 0.0849   -0.168751
 C 0.486 0.2927 0.8692   0.700087
 C 0.4227 0.1561 0.7941   0.037029
 C 0.4151 0.2164 0.8633   -0.168753
 C 0.514 0.7927 0.6308   0.700087
 C 0.5773 0.6561 0.7059   0.037029
 C 0.5849 0.7164 0.6367   -0.168753
 C 0.986 0.2073 0.1308   0.700087
 C 0.9227 0.3439 0.2059   0.037029
 C 0.9151 0.2836 0.1367   -0.168753
 C 0.014 0.7073 0.3692   0.700087
 C 0.0773 0.8439 0.2941   0.037029
 C 0.0849 0.7836 0.3633   -0.168753
 Cl 0.0379 0.4621 0.5379   -0.448965
 Cl 0.4621 0.5379 0.0379   -0.448965
 Cl 0.9621 0.9621 0.9621   -0.448965
 Cl 0.5379 0.0379 0.4621   -0.448965
 O 0.8195 0.5525 0.2903   -0.599377
 O 0.937 0.4688 0.3489   -0.580201
 O 0.6805 0.4475 0.7903   -0.599377
 O 0.563 0.5312 0.8489   -0.580201
 O 0.1805 0.0525 0.2097   -0.599377
 O 0.063 0.9688 0.1511   -0.580201
 O 0.3195 0.9475 0.7097   -0.599377
 O 0.437 0.0312 0.6511   -0.580201
 O 0.2903 0.8195 0.5525   -0.599377
 O 0.3489 0.937 0.4688   -0.580201
 O 0.7903 0.6805 0.4475   -0.599377
 O 0.8489 0.563 0.5312   -0.580201
 O 0.2097 0.1805 0.0525   -0.599377
 O 0.1511 0.063 0.9688   -0.580201
 O 0.7097 0.3195 0.9475   -0.599377
 O 0.6511 0.437 0.0312   -0.580201
 O 0.5525 0.2903 0.8195   -0.599377
 O 0.4688 0.3489 0.937   -0.580201
 O 0.4475 0.7903 0.6805   -0.599377
 O 0.5312 0.8489 0.563   -0.580201
 O 0.0525 0.2097 0.1805   -0.599377
 O 0.9688 0.1511 0.063   -0.580201
 O 0.9475 0.7097 0.3195   -0.599377
 O 0.0312 0.6511 0.437   -0.580201
