{'_ref': 'TBD', '_srcid': 'CAKYAQ_clean', 'submitters': [{'name': 'Dalar Nazarian Jeff Camp and David Sholl', 'email': 'dalar@gatech.edu jcamp6@gatech.edu'}], '_method': 'VASP DFT with PBE;DDEC'}
data_Dy2H7C18S3O13
_symmetry_space_group_name_H-M   'P 1'
_cell_length_a   12.79339982
_cell_length_b   14.68220030
_cell_length_c   19.07710000
_cell_angle_alpha   107.11500134
_cell_angle_beta   105.53600141
_cell_angle_gamma   93.51799864
_symmetry_Int_Tables_number   1
_chemical_formula_structural   Dy2H7C18S3O13
_chemical_formula_sum   'Dy8 H28 C72 S12 O52'
_cell_volume   3261.07448353
_cell_formula_units_Z   4
loop_
 _symmetry_equiv_pos_site_id
 _symmetry_equiv_pos_as_xyz
  1  'x, y, z'
loop_
 _atom_site_label
 _atom_site_fract_x
 _atom_site_fract_y
 _atom_site_fract_z
 _atom_site_charge
 Dy 0.40287 0.62 0.77988   2.291071
 Dy 0.15723 0.88148 0.28002   2.291961
 Dy 0.34805 0.12421 0.23681   2.294416
 Dy 0.10991 0.38548 0.73609   2.292546
 Dy 0.59713 0.38 0.22012   2.29107
 Dy 0.84277 0.11852 0.71998   2.291961
 Dy 0.65195 0.87579 0.76319   2.294415
 Dy 0.89009 0.61452 0.26391   2.292546
 H 0.9399 0.3899 0.8038   0.39592
 H 0.3672 0.5336 0.57   0.110418
 H 0.3953 0.459 0.4445   0.122314
 H 0.1216 0.5416 0.0716   0.129859
 H 0.1501 0.471 0.9466   0.110651
 H 0.5347 0.119 0.1873   0.396413
 H 0.0684 0.6497 0.4803   0.120061
 H 0.9771 0.8567 0.0689   0.127934
 H 0.1952 0.6473 0.6013   0.129875
 H 0.6065 0.0362 0.32   0.110765
 H 0.8582 0.8515 0.9458   0.115991
 H 0.7704 0.9584 0.3218   0.120917
 H 0.8977 0.967 0.1973   0.114557
 H 0.731 0.0399 0.1865   0.126687
 H 0.0601 0.6101 0.1962   0.395919
 H 0.6328 0.4664 0.43   0.110418
 H 0.6047 0.541 0.5555   0.122314
 H 0.8784 0.4584 0.9284   0.129859
 H 0.8499 0.529 0.0534   0.110651
 H 0.4653 0.881 0.8127   0.396413
 H 0.9316 0.3503 0.5197   0.120062
 H 0.0229 0.1433 0.9311   0.127934
 H 0.8048 0.3527 0.3987   0.129875
 H 0.3935 0.9638 0.68   0.110765
 H 0.1418 0.1485 0.0542   0.115991
 H 0.2296 0.0416 0.6782   0.120917
 H 0.1023 0.033 0.8027   0.114557
 H 0.269 0.9601 0.8135   0.126687
 C 0.2337 0.5987 0.9577   -0.17266
 C 0.3386 0.4704 0.539   -0.05695
 C 0.356 0.4268 0.467   -0.070483
 C 0.4023 0.9241 0.2951   0.805038
 C 0.1573 0.576 0.0486   -0.068723
 C 0.2733 0.5809 0.8893   0.810153
 C 0.1754 0.5349 0.9771   -0.036177
 C 0.1979 0.6719 0.0805   -0.153401
 C 0.1886 0.7414 0.151   0.672729
 C 0.2749 0.4085 0.5576   -0.211213
 C 0.8635 0.7624 0.078   -0.223194
 C 0.9093 0.748 0.1522   0.842181
 C 0.7427 0.7588 0.9543   -0.214066
 C 0.14 0.6822 0.5005   -0.039975
 C 0.3156 0.2646 0.3638   0.680362
 C 0.0977 0.0776 0.2157   0.824843
 C 0.3114 0.7351 0.5872   -0.225245
 C 0.2355 0.4288 0.6256   0.829445
 C 0.7547 0.7577 0.2879   0.681683
 C 0.6458 0.7431 0.8858   0.870115
 C 0.1843 0.7346 0.4663   -0.219529
 C 0.3089 0.3329 0.4344   -0.14035
 C 0.1361 0.7482 0.3908   0.882295
 C 0.6793 0.8275 0.2965   -0.141804
 C 0.983 0.0948 0.2091   -0.21909
 C 0.739 0.2387 0.2048   0.679098
 C 0.8164 0.1684 0.2009   -0.16278
 C 0.4092 0.7498 0.6538   0.840852
 C 0.9079 0.8195 0.0459   -0.04941
 C 0.2128 0.681 0.5706   -0.05368
 C 0.5164 0.9062 0.2984   -0.167006
 C 0.6069 0.9706 0.3119   -0.0342
 C 0.8395 0.8168 0.9755   -0.032877
 C 0.7009 0.9254 0.3121   -0.078988
 C 0.8948 0.0309 0.1997   -0.060248
 C 0.7993 0.0733 0.1941   -0.059023
 C 0.7663 0.4013 0.0423   -0.17266
 C 0.6614 0.5296 0.461   -0.05695
 C 0.644 0.5732 0.533   -0.070483
 C 0.5977 0.0759 0.7049   0.805038
 C 0.8427 0.424 0.9514   -0.068722
 C 0.7267 0.4191 0.1107   0.810153
 C 0.8246 0.4651 0.0229   -0.036177
 C 0.8021 0.3281 0.9195   -0.153402
 C 0.8114 0.2586 0.849   0.672729
 C 0.7251 0.5915 0.4424   -0.211213
 C 0.1365 0.2376 0.922   -0.223194
 C 0.0907 0.252 0.8478   0.842181
 C 0.2573 0.2412 0.0457   -0.214066
 C 0.86 0.3178 0.4995   -0.039975
 C 0.6844 0.7354 0.6362   0.680362
 C 0.9023 0.9224 0.7843   0.824843
 C 0.6886 0.2649 0.4128   -0.225245
 C 0.7645 0.5712 0.3744   0.829445
 C 0.2453 0.2423 0.7121   0.681683
 C 0.3542 0.2569 0.1142   0.870115
 C 0.8157 0.2654 0.5337   -0.219528
 C 0.6911 0.6671 0.5656   -0.14035
 C 0.8639 0.2518 0.6092   0.882295
 C 0.3207 0.1725 0.7035   -0.141804
 C 0.017 0.9052 0.7909   -0.21909
 C 0.261 0.7613 0.7952   0.679098
 C 0.1836 0.8316 0.7991   -0.16278
 C 0.5908 0.2502 0.3462   0.840852
 C 0.0921 0.1805 0.9541   -0.04941
 C 0.7872 0.319 0.4294   -0.05368
 C 0.4836 0.0938 0.7016   -0.167006
 C 0.3931 0.0294 0.6881   -0.0342
 C 0.1605 0.1832 0.0245   -0.032877
 C 0.2991 0.0746 0.6879   -0.078988
 C 0.1052 0.9691 0.8003   -0.060248
 C 0.2007 0.9267 0.8059   -0.059022
 S 0.26345 0.71106 0.02477   0.182949
 S 0.73515 0.70541 0.0207   0.208996
 S 0.23839 0.29747 0.48914   0.174902
 S 0.31584 0.78861 0.51969   0.190348
 S 0.54544 0.79169 0.28579   0.179759
 S 0.95067 0.20692 0.21474   0.196981
 S 0.73655 0.28894 0.97523   0.18295
 S 0.26485 0.29459 0.9793   0.208996
 S 0.76161 0.70253 0.51086   0.174903
 S 0.68416 0.21139 0.48031   0.190348
 S 0.45456 0.20831 0.71421   0.179759
 S 0.04933 0.79308 0.78526   0.196982
 O 0.2252 0.5101 0.8317   -0.801924
 O 0.372 0.9969 0.2793   -0.807613
 O 0.9734 0.437 0.8002   -0.745458
 O 0.343 0.8642 0.3074   -0.69425
 O 0.3526 0.6378 0.8929   -0.696401
 O 0.1833 0.8111 0.3742   -0.793928
 O 0.1595 0.1372 0.2039   -0.701855
 O 0.2863 0.499 0.6833   -0.860011
 O 0.5639 0.6874 0.8772   -0.77709
 O 0.0487 0.6931 0.3491   -0.795031
 O 0.4838 0.817 0.6677   -0.699772
 O 0.153 0.3745 0.6211   -0.702455
 O 0.4877 0.0726 0.1775   -0.742089
 O 0.7752 0.3268 0.2394   -0.670269
 O 0.8655 0.6776 0.1632   -0.698613
 O 0.2962 0.1751 0.3537   -0.681092
 O 0.1278 0.0063 0.234   -0.861848
 O 0.6538 0.7904 0.8418   -0.80071
 O 0.1683 0.7113 0.2025   -0.619249
 O 0.9899 0.8077 0.1996   -0.831686
 O 0.3427 0.2925 0.3142   -0.632738
 O 0.1974 0.83 0.1586   -0.666267
 O 0.714 0.6688 0.255   -0.687908
 O 0.4102 0.6947 0.6925   -0.832824
 O 0.6366 0.211 0.1739   -0.617437
 O 0.8559 0.7834 0.311   -0.645499
 O 0.7748 0.4899 0.1683   -0.801924
 O 0.628 0.0031 0.7207   -0.807612
 O 0.0266 0.563 0.1998   -0.745457
 O 0.657 0.1358 0.6926   -0.69425
 O 0.6474 0.3622 0.1071   -0.696401
 O 0.8167 0.1889 0.6258   -0.793928
 O 0.8405 0.8628 0.7961   -0.701855
 O 0.7137 0.501 0.3167   -0.860011
 O 0.4361 0.3126 0.1228   -0.77709
 O 0.9513 0.3069 0.6509   -0.795031
 O 0.5162 0.183 0.3323   -0.699772
 O 0.847 0.6255 0.3789   -0.702455
 O 0.5123 0.9274 0.8225   -0.742089
 O 0.2248 0.6732 0.7606   -0.67027
 O 0.1345 0.3224 0.8368   -0.698613
 O 0.7038 0.8249 0.6463   -0.681092
 O 0.8722 0.9937 0.766   -0.861848
 O 0.3462 0.2096 0.1582   -0.80071
 O 0.8317 0.2887 0.7975   -0.619249
 O 0.0101 0.1923 0.8004   -0.831686
 O 0.6573 0.7075 0.6858   -0.632738
 O 0.8026 0.17 0.8414   -0.666267
 O 0.286 0.3312 0.745   -0.687908
 O 0.5898 0.3053 0.3075   -0.832824
 O 0.3634 0.789 0.8261   -0.617437
 O 0.1441 0.2166 0.689   -0.645499
