{'_ref': 'TBD', '_srcid': 'CAKYAQ_clean', 'submitters': [{'name': 'Dalar Nazarian Jeff Camp and David Sholl', 'email': 'dalar@gatech.edu jcamp6@gatech.edu'}], '_method': 'VASP DFT with PBE;DDEC'}
data_Nd2H6C18(SO4)3
_symmetry_space_group_name_H-M   'P 1'
_cell_length_a   10.06339996
_cell_length_b   13.02839967
_cell_length_c   14.92270000
_cell_angle_alpha   79.66219993
_cell_angle_beta   70.29460203
_cell_angle_gamma   67.28109989
_symmetry_Int_Tables_number   1
_chemical_formula_structural   Nd2H6C18(SO4)3
_chemical_formula_sum   'Nd4 H12 C36 S6 O24'
_cell_volume   1696.29242139
_cell_formula_units_Z   2
loop_
 _symmetry_equiv_pos_site_id
 _symmetry_equiv_pos_as_xyz
  1  'x, y, z'
loop_
 _atom_site_label
 _atom_site_fract_x
 _atom_site_fract_y
 _atom_site_fract_z
 _atom_site_charge
 Nd 0.09183 0.2952 0.608   2.248047
 Nd 0.35484 0.0302 0.3464   2.252177
 Nd 0.50497 0.7952 0.108   2.247062
 Nd 0.76856 0.5302 0.8464   2.252107
 H 0.8241 0.6181 0.1993   0.101319
 H 0.000900000000001 0.4603 0.2733   0.122615
 H 0.4709 0.317 0.5774   0.1212
 H 0.7206 0.313 0.578   0.121196
 H 0.116 0.853 0.6908   0.113651
 H 0.0284 0.7014 0.7588   0.109082
 H 0.8585 0.1181 0.6993   0.101573
 H 0.7655 0.9603 0.7733   0.121371
 H 0.1347 0.817 0.0774   0.119802
 H 0.8884 0.813 0.078   0.12343
 H 0.8402 0.353 0.1908   0.112892
 H 0.0114 0.2014 0.2588   0.108527
 C 0.114 0.6365 0.6233   -0.254997
 C 0.4595 0.1646 0.4848   0.869723
 C 0.9584 0.4552 0.466   0.66251
 C 0.6184 0.8003 0.3101   0.796234
 C 0.1988 0.7909 0.5595   -0.196042
 C 0.8908 0.5275 0.4009   -0.157854
 C 0.0867 0.5266 0.642   0.808539
 C 0.9765 0.1598 0.4908   0.832436
 C 0.8227 0.6142 0.2624   -0.084587
 C 0.2508 0.8758 0.4886   0.735112
 C 0.9228 0.5195 0.3069   -0.050133
 C 0.8279 0.1929 0.4853   -0.206698
 C 0.5799 0.1939 0.4823   -0.216017
 C 0.563 0.2701 0.5419   -0.060117
 C 0.7105 0.2672 0.5418   -0.058289
 C 0.1281 0.7961 0.6557   -0.063963
 C 0.0781 0.7108 0.695   -0.064674
 C 0.731 0.6927 0.3223   -0.172337
 C 0.1262 0.1365 0.1233   -0.254947
 C 0.3911 0.6646 0.9848   0.871824
 C 0.6204 0.9552 0.966   0.666668
 C 0.7712 0.3003 0.8101   0.796921
 C 0.9508 0.2909 0.0595   -0.195908
 C 0.6808 0.0275 0.9009   -0.162962
 C 0.2447 0.0266 0.142   0.810232
 C 0.8729 0.6598 0.9908   0.827591
 C 0.8007 0.1142 0.7624   -0.085628
 C 0.8848 0.3758 0.9886   0.738481
 C 0.7508 0.0195 0.8069   -0.046635
 C 0.9939 0.6929 0.9853   -0.202019
 C 0.2439 0.6939 0.9823   -0.221272
 C 0.125 0.7701 0.0419   -0.055315
 C 0.9805 0.7672 0.0418   -0.064027
 C 0.9201 0.2961 0.1557   -0.06619
 C 0.0161 0.2108 0.195   -0.06109
 C 0.754 0.1927 0.8223   -0.169733
 S 0.7529 0.6503 0.4375   0.147798
 S 0.2017 0.6733 0.5173   0.209095
 S 0.7669 0.1217 0.4285   0.213816
 S 0.6593 0.1503 0.9375   0.14766
 S 0.1077 0.1733 0.0173   0.209187
 S 0.1829 0.6217 0.9285   0.214273
 O 0.2766 0.8619 0.4033   -0.721085
 O 0.8951 0.4536 0.5582   -0.68659
 O 0.5709 0.8693 0.3733   -0.655151
 O 0.1735 0.4534 0.585   -0.703462
 O 0.5716 0.8145 0.2415   -0.843256
 O 0.9876 0.5068 0.714   -0.839241
 O 0.0988 0.3755 0.4349   -0.656249
 O 0.3407 0.2173 0.5155   -0.707594
 O 0.2687 0.948 0.5146   -0.669164
 O 0.486 0.0981 0.4125   -0.876488
 O 0.0187 0.2002 0.5264   -0.680193
 O 0.0853 0.1096 0.4022   -0.839599
 O 0.9582 0.3619 0.9033   -0.722492
 O 0.5931 0.9536 0.0582   -0.688457
 O 0.6865 0.3693 0.8733   -0.655283
 O 0.2881 0.9534 0.085   -0.702707
 O 0.8724 0.3145 0.7415   -0.845244
 O 0.2916 0.0068 0.214   -0.842107
 O 0.5908 0.8755 0.9349   -0.656797
 O 0.4265 0.7173 0.0155   -0.70658
 O 0.7687 0.448 0.0146   -0.671241
 O 0.5034 0.5981 0.9125   -0.876983
 O 0.7547 0.7002 0.0264   -0.677561
 O 0.9029 0.6096 0.9022   -0.83919
