{'_ref': 'TBD', '_srcid': 'CAKYAQ_clean', 'submitters': [{'name': 'Dalar Nazarian Jeff Camp and David Sholl', 'email': 'dalar@gatech.edu jcamp6@gatech.edu'}], '_method': 'VASP DFT with PBE;DDEC'}
data_NdCuH8C14(NO4)2
_symmetry_space_group_name_H-M   'P 1'
_cell_length_a   9.27610000
_cell_length_b   11.55054188
_cell_length_c   17.26710000
_cell_angle_alpha   104.82707656
_cell_angle_beta   90.00000000
_cell_angle_gamma   113.67433725
_symmetry_Int_Tables_number   1
_chemical_formula_structural   NdCuH8C14(NO4)2
_chemical_formula_sum   'Nd4 Cu4 H32 C56 N8 O32'
_cell_volume   1626.88166726
_cell_formula_units_Z   4
loop_
 _symmetry_equiv_pos_site_id
 _symmetry_equiv_pos_as_xyz
  1  'x, y, z'
loop_
 _atom_site_label
 _atom_site_fract_x
 _atom_site_fract_y
 _atom_site_fract_z
 _atom_site_charge
 Nd 0.6976 0.02706 0.07306   2.278973
 Nd 0.67054 0.97294 0.42694   2.279011
 Nd 0.3024 0.97294 0.92694   2.278973
 Nd 0.32946 0.02706 0.57306   2.279011
 Cu 0.76567 0.67156 0.86548   0.387126
 Cu 0.09411 0.32844 0.63452   0.387114
 Cu 0.23433 0.32844 0.13452   0.387126
 Cu 0.90589 0.67156 0.36548   0.387114
 H 0.3653 0.8032 0.2207   0.130647
 H 0.2058 0.7026 0.3074   0.079551
 H 0.8617 0.7728 0.2344   0.084874
 H 0.0075 0.8684 0.1426   0.130951
 H 0.4639 0.2814 0.9454   0.112914
 H 0.5184 0.437 0.8769   0.085535
 H 0.9273 0.6478 0.0037   0.089757
 H 0.8853 0.4954 0.0744   0.122904
 H 0.5621 0.1968 0.2793   0.131035
 H 0.5032 0.2974 0.1926   0.079237
 H 0.0889 0.2272 0.2656   0.085017
 H 0.1391 0.1316 0.3574   0.130522
 H 0.1825 0.7186 0.5546   0.112309
 H 0.0814 0.563 0.6231   0.085077
 H 0.2795 0.3522 0.4963   0.089731
 H 0.3899 0.5046 0.4256   0.122025
 H 0.6347 0.1968 0.7793   0.130647
 H 0.7942 0.2974 0.6926   0.079551
 H 0.1383 0.2272 0.7656   0.084877
 H 0.9925 0.1316 0.8574   0.130951
 H 0.5361 0.7186 0.0546   0.112914
 H 0.4816 0.563 0.1231   0.085539
 H 0.0727 0.3522 0.9963   0.089757
 H 0.1147 0.5046 0.9256   0.122904
 H 0.4379 0.8032 0.7207   0.131035
 H 0.4968 0.7026 0.8074   0.079237
 H 0.9111 0.7728 0.7344   0.08502
 H 0.8609 0.8684 0.6426   0.130522
 H 0.8175 0.2814 0.4454   0.112309
 H 0.9186 0.437 0.3769   0.08508
 H 0.7205 0.6478 0.5037   0.089731
 H 0.6101 0.4954 0.5744   0.122025
 C 0.30876 0.91932 0.1171   0.73621
 C 0.20476 0.85012 0.17312   -0.049598
 C 0.2629 0.7984 0.2226   -0.113216
 C 0.1668 0.7392 0.275   0.140168
 C 0.9647 0.7794 0.2318   0.144994
 C 0.0518 0.8378 0.1768   -0.141685
 C 0.64951 0.25562 0.05039   0.685668
 C 0.67242 0.36664 0.0142   -0.039439
 C 0.5616 0.3538 0.957   -0.095535
 C 0.5948 0.4482 0.9164   0.120694
 C 0.834 0.5712 0.9903   0.145018
 C 0.8096 0.48 0.0332   -0.138624
 C 0.05229 0.07198 0.02352   0.549945
 C 0.7814 0.0748 0.26788   0.553094
 C 0.38944 0.08068 0.3829   0.737406
 C 0.35464 0.14988 0.32688   -0.049478
 C 0.4645 0.2016 0.2774   -0.113695
 C 0.4276 0.2608 0.225   0.140935
 C 0.1853 0.2206 0.2682   0.144725
 C 0.214 0.1622 0.3232   -0.141488
 C 0.39389 0.74438 0.44961   0.68743
 C 0.30578 0.63336 0.4858   -0.040961
 C 0.2078 0.6462 0.543   -0.094773
 C 0.1466 0.5518 0.5836   0.121442
 C 0.2628 0.4288 0.5097   0.144587
 C 0.3296 0.52 0.4668   -0.136627
 C 0.98031 0.92802 0.47648   0.55093
 C 0.7066 0.9252 0.23212   0.554759
 C 0.69124 0.08068 0.8829   0.736209
 C 0.79524 0.14988 0.82688   -0.049598
 C 0.7371 0.2016 0.7774   -0.113215
 C 0.8332 0.2608 0.725   0.140168
 C 0.0353 0.2206 0.7682   0.144993
 C 0.9482 0.1622 0.8232   -0.141685
 C 0.35049 0.74438 0.94961   0.685668
 C 0.32758 0.63336 0.9858   -0.039439
 C 0.4384 0.6462 0.043   -0.095536
 C 0.4052 0.5518 0.0836   0.120692
 C 0.166 0.4288 0.0097   0.145018
 C 0.1904 0.52 0.9668   -0.138624
 C 0.94771 0.92802 0.97648   0.549943
 C 0.2186 0.9252 0.73212   0.553094
 C 0.61056 0.91932 0.6171   0.737406
 C 0.64536 0.85012 0.67312   -0.049478
 C 0.5355 0.7984 0.7226   -0.113694
 C 0.5724 0.7392 0.775   0.140934
 C 0.8147 0.7794 0.7318   0.144724
 C 0.786 0.8378 0.6768   -0.141488
 C 0.60611 0.25562 0.55039   0.68743
 C 0.69422 0.36664 0.5142   -0.040961
 C 0.7922 0.3538 0.457   -0.094774
 C 0.8534 0.4482 0.4164   0.121441
 C 0.7372 0.5712 0.4903   0.144588
 C 0.6704 0.48 0.5332   -0.136627
 C 0.01969 0.07198 0.52352   0.550929
 C 0.2934 0.0748 0.76788   0.55476
 N 0.02072 0.73224 0.2812   -0.287193
 N 0.7313 0.5548 0.9312   -0.278357
 N 0.28848 0.26776 0.2188   -0.287772
 N 0.1765 0.4452 0.5688   -0.278439
 N 0.97928 0.26776 0.7188   -0.287193
 N 0.2687 0.4452 0.0688   -0.278357
 N 0.71152 0.73224 0.7812   -0.287772
 N 0.8235 0.5548 0.4312   -0.278439
 O 0.45509 0.96458 0.13556   -0.725048
 O 0.23867 0.92274 0.0564   -0.71024
 O 0.75778 0.26796 0.09886   -0.636106
 O 0.52535 0.1499 0.02688   -0.804945
 O 0.99245 0.1291 0.07684   -0.631813
 O 0.18892 0.12264 0.00418   -0.624825
 O 0.79758 0.14256 0.2194   -0.648935
 O 0.82338 0.11676 0.3423   -0.653454
 O 0.49051 0.03542 0.36444   -0.72584
 O 0.31593 0.07726 0.4436   -0.710283
 O 0.48982 0.73204 0.40114   -0.63683
 O 0.37545 0.8501 0.47312   -0.805671
 O 0.86335 0.8709 0.42316   -0.632379
 O 0.06628 0.87736 0.49582   -0.625387
 O 0.65502 0.85744 0.2806   -0.649434
 O 0.70662 0.88324 0.1577   -0.654246
 O 0.54491 0.03542 0.86444   -0.725048
 O 0.76133 0.07726 0.9436   -0.71024
 O 0.24222 0.73204 0.90114   -0.636106
 O 0.47465 0.8501 0.97312   -0.804946
 O 0.00755 0.8709 0.92316   -0.631813
 O 0.81108 0.87736 0.99582   -0.624824
 O 0.20242 0.85744 0.7806   -0.648935
 O 0.17662 0.88324 0.6577   -0.653454
 O 0.50949 0.96458 0.63556   -0.72584
 O 0.68407 0.92274 0.5564   -0.710283
 O 0.51018 0.26796 0.59886   -0.63683
 O 0.62455 0.1499 0.52688   -0.805671
 O 0.13665 0.1291 0.57684   -0.632379
 O 0.93372 0.12264 0.50418   -0.625386
 O 0.34498 0.14256 0.7194   -0.649434
 O 0.29338 0.11676 0.8423   -0.654246
