{'_ref': 'TBD', '_srcid': 'CAKYAQ_clean', 'submitters': [{'name': 'Dalar Nazarian Jeff Camp and David Sholl', 'email': 'dalar@gatech.edu jcamp6@gatech.edu'}], '_method': 'VASP DFT with PBE;DDEC'}
data_Cu2H15C21N3O8
_symmetry_space_group_name_H-M   'P 1'
_cell_length_a   14.66899989
_cell_length_b   16.66390000
_cell_length_c   16.66389986
_cell_angle_alpha   60.67239795
_cell_angle_beta   63.88710100
_cell_angle_gamma   63.88700158
_symmetry_Int_Tables_number   1
_chemical_formula_structural   Cu2H15C21N3O8
_chemical_formula_sum   'Cu8 H60 C84 N12 O32'
_cell_volume   3054.80279022
_cell_formula_units_Z   4
loop_
 _symmetry_equiv_pos_site_id
 _symmetry_equiv_pos_as_xyz
  1  'x, y, z'
loop_
 _atom_site_label
 _atom_site_fract_x
 _atom_site_fract_y
 _atom_site_fract_z
 _atom_site_charge
 Cu 0.4272 0.95242 0.04758   0.830846
 Cu 0.5728 0.04758 0.95242   0.830853
 Cu 0.0728 0.45242 0.54758   0.83085
 Cu 0.9272 0.54758 0.45242   0.830857
 Cu 0.25 0.944 0.556   0.838095
 Cu 0.25 0.556 0.944   0.837342
 Cu 0.75 0.056 0.444   0.838095
 Cu 0.75 0.444 0.056   0.837342
 H 0.5735 0.1773 0.4425   0.35754
 H 0.618 0.1921 0.4951   0.34904
 H 0.5966 0.1032 0.6636   0.128465
 H 0.4564 0.0852 0.5176   0.12639
 H 0.3715 0.9676 0.807   0.109435
 H 0.8067 0.4425 0.1773   0.357752
 H 0.6948 0.4951 0.1921   0.348885
 H 0.6366 0.6636 0.1032   0.128193
 H 0.9408 0.5176 0.0852   0.126196
 H 0.8539 0.807 0.9676   0.109772
 H 0.9265 0.0575 0.3227   0.35753
 H 0.882 0.0049 0.3079   0.349041
 H 0.9034 0.8364 0.3968   0.128467
 H 0.0436 0.9824 0.4148   0.126392
 H 0.1285 0.693 0.5324   0.109439
 H 0.6933 0.3227 0.0575   0.357731
 H 0.8052 0.3079 0.0049   0.348888
 H 0.8634 0.3968 0.8364   0.128194
 H 0.5592 0.4148 0.9824   0.126195
 H 0.6461 0.5324 0.693   0.10977
 H 0.4265 0.8227 0.5575   0.357539
 H 0.382 0.8079 0.5049   0.34904
 H 0.4034 0.8968 0.3364   0.128464
 H 0.5436 0.9148 0.4824   0.12639
 H 0.6285 0.0324 0.193   0.109435
 H 0.1933 0.5575 0.8227   0.357751
 H 0.3052 0.5049 0.8079   0.348885
 H 0.3634 0.3364 0.8968   0.128193
 H 0.0592 0.4824 0.9148   0.126195
 H 0.1461 0.193 0.0324   0.109771
 H 0.0735 0.9425 0.6773   0.357529
 H 0.118 0.9951 0.6921   0.349041
 H 0.0966 0.1636 0.6032   0.128467
 H 0.9564 0.0176 0.5852   0.126391
 H 0.8715 0.307 0.4676   0.109438
 H 0.3067 0.6773 0.9425   0.35773
 H 0.1948 0.6921 0.9951   0.348888
 H 0.1366 0.6032 0.1636   0.128194
 H 0.4408 0.5852 0.0176   0.126194
 H 0.3539 0.4676 0.307   0.109769
 H 0.2198 0.9566 0.0434   0.080862
 H 0.0952 0.8752 0.1248   0.131491
 H 0.1189 0.737 0.263   0.087693
 H 0.259 0.689 0.311   0.128593
 H 0.3811 0.777 0.223   0.069099
 H 0.7802 0.0434 0.9566   0.080864
 H 0.9048 0.1248 0.8752   0.131497
 H 0.8811 0.263 0.737   0.087693
 H 0.741 0.311 0.689   0.128593
 H 0.6189 0.223 0.777   0.069099
 H 0.2802 0.4566 0.5434   0.080865
 H 0.4048 0.3752 0.6248   0.131489
 H 0.3811 0.237 0.763   0.08769
 H 0.241 0.189 0.811   0.128596
 H 0.1189 0.277 0.723   0.069098
 H 0.7198 0.5434 0.4566   0.080866
 H 0.5952 0.6248 0.3752   0.131494
 H 0.6189 0.763 0.237   0.08769
 H 0.759 0.811 0.189   0.128596
 H 0.8811 0.723 0.277   0.069098
 C 0.3259 0.9838 0.6616   0.679509
 C 0.4869 0.0319 0.7501   -0.098391
 C 0.5481 0.0817 0.6633   -0.159573
 C 0.5389 0.1 0.577   0.218947
 C 0.465 0.0706 0.5758   -0.138541
 C 0.4034 0.0195 0.6615   -0.106508
 C 0.4136 0.000700000000002 0.7495   -0.035625
 C 0.4947 0.0152 0.8442   0.660957
 C 0.0287 0.6616 0.9838   0.679111
 C 0.7311 0.7501 0.0319   -0.097037
 C 0.7069 0.6633 0.0817   -0.159722
 C 0.7841 0.577 0.1   0.218734
 C 0.8886 0.5758 0.0706   -0.13841
 C 0.9156 0.6615 0.0195   -0.105385
 C 0.8362 0.7495 0.000700000000002   -0.037292
 C 0.6459 0.8442 0.0152   0.660619
 C 0.1741 0.8384 0.5162   0.679508
 C 0.0131 0.7499 0.4681   -0.098383
 C 0.9519 0.8367 0.4183   -0.159586
 C 0.9611 0.923 0.4   0.218958
 C 0.035 0.9242 0.4294   -0.138543
 C 0.0966 0.8385 0.4805   -0.106514
 C 0.0864 0.7505 0.4993   -0.035627
 C 0.0053 0.6558 0.4848   0.660949
 C 0.4713 0.5162 0.8384   0.679143
 C 0.7689 0.4681 0.7499   -0.097054
 C 0.7931 0.4183 0.8367   -0.15969
 C 0.7159 0.4 0.923   0.218699
 C 0.6114 0.4294 0.9242   -0.138398
 C 0.5844 0.4805 0.8385   -0.105395
 C 0.6638 0.4993 0.7505   -0.037282
 C 0.8541 0.4848 0.6558   0.66062
 C 0.6741 0.0162 0.3384   0.679509
 C 0.5131 0.9681 0.2499   -0.098391
 C 0.4519 0.9183 0.3367   -0.159573
 C 0.4611 0.9 0.423   0.218947
 C 0.535 0.9294 0.4242   -0.138541
 C 0.5966 0.9805 0.3385   -0.106508
 C 0.5864 0.9993 0.2505   -0.035625
 C 0.5053 0.9848 0.1558   0.660957
 C 0.9713 0.3384 0.0162   0.679111
 C 0.2689 0.2499 0.9681   -0.097038
 C 0.2931 0.3367 0.9183   -0.159722
 C 0.2159 0.423 0.9   0.218734
 C 0.1114 0.4242 0.9294   -0.138409
 C 0.0844 0.3385 0.9805   -0.105385
 C 0.1638 0.2505 0.9993   -0.037291
 C 0.3541 0.1558 0.9848   0.660619
 C 0.8259 0.1616 0.4838   0.679508
 C 0.9869 0.2501 0.5319   -0.098383
 C 0.0481 0.1633 0.5817   -0.159586
 C 0.0389 0.077 0.6   0.218958
 C 0.965 0.0758 0.5706   -0.138543
 C 0.9034 0.1615 0.5195   -0.106514
 C 0.9136 0.2495 0.5007   -0.035626
 C 0.9947 0.3442 0.5152   0.660949
 C 0.5287 0.4838 0.1616   0.679143
 C 0.2311 0.5319 0.2501   -0.097054
 C 0.2069 0.5817 0.1633   -0.15969
 C 0.2841 0.6 0.077   0.218699
 C 0.3886 0.5706 0.0758   -0.138398
 C 0.4156 0.5195 0.1615   -0.105395
 C 0.3362 0.5007 0.2495   -0.037281
 C 0.1459 0.5152 0.3442   0.66062
 C 0.2284 0.9019 0.0981   0.151419
 C 0.1538 0.8541 0.1459   -0.198904
 C 0.1685 0.7715 0.2285   0.02348
 C 0.2488 0.7436 0.2564   -0.185033
 C 0.3223 0.7977 0.2023   0.190412
 C 0.7716 0.0981 0.9019   0.151419
 C 0.8462 0.1459 0.8541   -0.198906
 C 0.8315 0.2285 0.7715   0.02348
 C 0.7512 0.2564 0.7436   -0.185033
 C 0.6777 0.2023 0.7977   0.190413
 C 0.2716 0.4019 0.5981   0.151415
 C 0.3462 0.3541 0.6459   -0.198905
 C 0.3315 0.2715 0.7285   0.023499
 C 0.2512 0.2436 0.7564   -0.18505
 C 0.1777 0.2977 0.7023   0.190414
 C 0.7284 0.5981 0.4019   0.151415
 C 0.6538 0.6459 0.3541   -0.198907
 C 0.6685 0.7285 0.2715   0.0235
 C 0.7488 0.7564 0.2436   -0.18505
 C 0.8223 0.7023 0.2977   0.190415
 N 0.6066 0.1471 0.4885   -0.652438
 N 0.7578 0.4885 0.1471   -0.652071
 N 0.8934 0.0115 0.3529   -0.652433
 N 0.7422 0.3529 0.0115   -0.652047
 N 0.3934 0.8529 0.5115   -0.652438
 N 0.2422 0.5115 0.8529   -0.65207
 N 0.1066 0.9885 0.6471   -0.652432
 N 0.2578 0.6471 0.9885   -0.652047
 N 0.3135 0.8739 0.1261   -0.327563
 N 0.6865 0.1261 0.8739   -0.327564
 N 0.1865 0.3739 0.6261   -0.327553
 N 0.8135 0.6261 0.3739   -0.327554
 O 0.3228 0.9973 0.5827   -0.617872
 O 0.4378 0.9713 0.9191   -0.537985
 O 0.5584 0.0497 0.8395   -0.559483
 O 0.268 0.9427 0.7393   -0.634872
 O 0.0972 0.5827 0.9973   -0.617335
 O 0.6718 0.9191 0.9713   -0.537958
 O 0.5524 0.8395 0.0497   -0.559275
 O 0.05 0.7393 0.9427   -0.633889
 O 0.1772 0.9173 0.5027   -0.617874
 O 0.0622 0.5809 0.5287   -0.537983
 O 0.9416 0.6605 0.4503   -0.559483
 O 0.232 0.7607 0.5573   -0.63487
 O 0.4028 0.5027 0.9173   -0.617364
 O 0.8282 0.5287 0.5809   -0.537959
 O 0.9476 0.4503 0.6605   -0.559277
 O 0.45 0.5573 0.7607   -0.633896
 O 0.6772 0.0027 0.4173   -0.617872
 O 0.5622 0.0287 0.0809   -0.537985
 O 0.4416 0.9503 0.1605   -0.559483
 O 0.732 0.0573 0.2607   -0.634872
 O 0.9028 0.4173 0.0027   -0.617335
 O 0.3282 0.0809 0.0287   -0.537957
 O 0.4476 0.1605 0.9503   -0.559275
 O 0.95 0.2607 0.0573   -0.633889
 O 0.8228 0.0827 0.4973   -0.617874
 O 0.9378 0.4191 0.4713   -0.537983
 O 0.0584 0.3395 0.5497   -0.559482
 O 0.768 0.2393 0.4427   -0.63487
 O 0.5972 0.4973 0.0827   -0.617364
 O 0.1718 0.4713 0.4191   -0.537958
 O 0.0524 0.5497 0.3395   -0.559277
 O 0.55 0.4427 0.2393   -0.633896
