{'_ref': 'TBD', '_srcid': 'CAKYAQ_clean', 'submitters': [{'name': 'Dalar Nazarian Jeff Camp and David Sholl', 'email': 'dalar@gatech.edu jcamp6@gatech.edu'}], '_method': 'VASP DFT with PBE;DDEC'}
data_Co3H6C14(NO5)2
_symmetry_space_group_name_H-M   'P 1'
_cell_length_a   10.81230026
_cell_length_b   11.13569989
_cell_length_c   11.13570000
_cell_angle_alpha   76.29200049
_cell_angle_beta   77.84300123
_cell_angle_gamma   77.84309830
_symmetry_Int_Tables_number   1
_chemical_formula_structural   Co3H6C14(NO5)2
_chemical_formula_sum   'Co6 H12 C28 N4 O20'
_cell_volume   1255.00725804
_cell_formula_units_Z   2
loop_
 _symmetry_equiv_pos_site_id
 _symmetry_equiv_pos_as_xyz
  1  'x, y, z'
loop_
 _atom_site_label
 _atom_site_fract_x
 _atom_site_fract_y
 _atom_site_fract_z
 _atom_site_charge
 Co 0.95072 0.06012 0.12092   1.115691
 Co 0.54928 0.87908 0.93988   1.115696
 Co 0.04928 0.93988 0.87908   1.115691
 Co 0.45072 0.12092 0.06012   1.115696
 Co 0.75 0.90413 0.09587   1.215434
 Co 0.25 0.09587 0.90413   1.215434
 H 0.9411 0.5184 0.1478   0.143398
 H 0.0225 0.3067 0.1729   0.083993
 H 0.6344 0.4516 0.0406   0.140824
 H 0.5589 0.8522 0.4816   0.143398
 H 0.4775 0.8271 0.6933   0.083993
 H 0.8656 0.9594 0.5484   0.140826
 H 0.0589 0.4816 0.8522   0.143398
 H 0.9775 0.6933 0.8271   0.083993
 H 0.3656 0.5484 0.9594   0.140822
 H 0.4411 0.1478 0.5184   0.143397
 H 0.5225 0.1729 0.3067   0.083993
 H 0.1344 0.0406 0.4516   0.140825
 C 0.8958 0.4643 0.1299   -0.145052
 C 0.9444 0.3364 0.1446   0.168878
 C 0.7805 0.5103 0.0887   -0.022065
 C 0.7137 0.4245 0.0665   -0.090055
 C 0.7289 0.6491 0.0673   0.659147
 C 0.768 0.2995 0.0841   0.086079
 C 0.7027 0.2016 0.0632   0.653139
 C 0.6042 0.8701 0.5357   -0.14507
 C 0.5556 0.8554 0.6636   0.16888
 C 0.7195 0.9113 0.4897   -0.022033
 C 0.7863 0.9335 0.5755   -0.090063
 C 0.7711 0.9327 0.3509   0.659126
 C 0.732 0.9159 0.7005   0.086079
 C 0.7973 0.9368 0.7984   0.653135
 C 0.1042 0.5357 0.8701   -0.145052
 C 0.0556 0.6636 0.8554   0.168876
 C 0.2195 0.4897 0.9113   -0.022065
 C 0.2863 0.5755 0.9335   -0.090057
 C 0.2711 0.3509 0.9327   0.659146
 C 0.232 0.7005 0.9159   0.086079
 C 0.2973 0.7984 0.9368   0.653139
 C 0.3958 0.1299 0.4643   -0.14507
 C 0.4444 0.1446 0.3364   0.168879
 C 0.2805 0.0887 0.5103   -0.022033
 C 0.2137 0.0665 0.4245   -0.090064
 C 0.2289 0.0673 0.6491   0.659126
 C 0.268 0.0841 0.2995   0.086079
 C 0.2027 0.0632 0.2016   0.653135
 N 0.8838 0.2555 0.1201   -0.31137
 N 0.6162 0.8799 0.7445   -0.311369
 N 0.1162 0.7445 0.8799   -0.31137
 N 0.3838 0.1201 0.2555   -0.311369
 O 0.9486 0.8947 0.0631   -0.789654
 O 0.7683 0.0936 0.0682   -0.614004
 O 0.5892 0.2293 0.0461   -0.545205
 O 0.7716 0.7111 0.1243   -0.560517
 O 0.6506 0.6902 0.9944   -0.580944
 O 0.5514 0.9369 0.1053   -0.789658
 O 0.7317 0.9318 0.9064   -0.613996
 O 0.9108 0.9539 0.7707   -0.545201
 O 0.7284 0.8757 0.2889   -0.560511
 O 0.8494 0.0056 0.3098   -0.580943
 O 0.0514 0.1053 0.9369   -0.789653
 O 0.2317 0.9064 0.9318   -0.614004
 O 0.4108 0.7707 0.9539   -0.545205
 O 0.2284 0.2889 0.8757   -0.560517
 O 0.3494 0.3098 0.0056   -0.580944
 O 0.4486 0.0631 0.8947   -0.789658
 O 0.2683 0.0682 0.0936   -0.613996
 O 0.0892 0.0461 0.2293   -0.5452
 O 0.2716 0.1243 0.7111   -0.560511
 O 0.1506 0.9944 0.6902   -0.580943
