{'_ref': 'TBD', '_srcid': 'CAKYAQ_clean', 'submitters': [{'name': 'Dalar Nazarian Jeff Camp and David Sholl', 'email': 'dalar@gatech.edu jcamp6@gatech.edu'}], '_method': 'VASP DFT with PBE;DDEC'}
data_Co3H6C14(NO5)2
_symmetry_space_group_name_H-M   'P 1'
_cell_length_a   11.13890050
_cell_length_b   11.26520012
_cell_length_c   11.41390000
_cell_angle_alpha   76.37999916
_cell_angle_beta   66.36900029
_cell_angle_gamma   78.96399816
_symmetry_Int_Tables_number   1
_chemical_formula_structural   Co3H6C14(NO5)2
_chemical_formula_sum   'Co6 H12 C28 N4 O20'
_cell_volume   1267.64509989
_cell_formula_units_Z   2
loop_
 _symmetry_equiv_pos_site_id
 _symmetry_equiv_pos_as_xyz
  1  'x, y, z'
loop_
 _atom_site_label
 _atom_site_fract_x
 _atom_site_fract_y
 _atom_site_fract_z
 _atom_site_charge
 Co 0.47058 0.42902 0.28981   1.245148
 Co 0.60624 0.39083 0.49959   0.99261
 Co 0.49522 0.35896 0.00924   1.180201
 Co 0.52942 0.57098 0.71019   1.245148
 Co 0.39376 0.60917 0.50041   0.992608
 Co 0.50478 0.64104 0.99076   1.180201
 H 0.0449 0.4171 0.1395   0.146741
 H 0.0771 0.3586 0.4913   0.14364
 H 0.8534 0.3389 0.5881   0.093518
 H 0.3242 0.8701 0.5885   0.097307
 H 0.3614 0.0729 0.4919   0.140635
 H 0.5289 0.9649 0.1426   0.142192
 H 0.9551 0.5829 0.8605   0.146741
 H 0.9229 0.6414 0.5087   0.14364
 H 0.1466 0.6611 0.4119   0.093518
 H 0.6758 0.1299 0.4115   0.097309
 H 0.6386 0.9271 0.5081   0.140635
 H 0.4711 0.0351 0.8574   0.142193
 C 0.7807 0.4141 0.2258   0.623052
 C 0.8734 0.3947 0.2969   0.094547
 C 0.0074 0.4023 0.2317   -0.095039
 C 0.0863 0.3877 0.3047   -0.007891
 C 0.0266 0.3667 0.4391   -0.162454
 C 0.8927 0.3577 0.4961   0.159635
 C 0.2313 0.4007 0.2389   0.670522
 C 0.3663 0.8898 0.4967   0.150881
 C 0.3891 0.0108 0.44   -0.13886
 C 0.4528 0.0396 0.3068   -0.034762
 C 0.4854 0.1699 0.2424   0.680337
 C 0.4873 0.9472 0.2345   -0.080315
 C 0.4604 0.8271 0.2981   0.086943
 C 0.4895 0.724 0.2264   0.642587
 C 0.2193 0.5859 0.7742   0.623053
 C 0.1266 0.6053 0.7031   0.094547
 C 0.9926 0.5977 0.7683   -0.095039
 C 0.9137 0.6123 0.6953   -0.00789
 C 0.9734 0.6333 0.5609   -0.162455
 C 0.1073 0.6423 0.5039   0.159637
 C 0.7687 0.5993 0.7611   0.670522
 C 0.6337 0.1102 0.5033   0.150883
 C 0.6109 0.9892 0.56   -0.138862
 C 0.5472 0.9604 0.6932   -0.034762
 C 0.5146 0.8301 0.7576   0.680337
 C 0.5127 0.0528 0.7655   -0.080314
 C 0.5396 0.1729 0.7019   0.086943
 C 0.5105 0.276 0.7736   0.642587
 N 0.8159 0.3741 0.4275   -0.32474
 N 0.4013 0.8005 0.4274   -0.308477
 N 0.1841 0.6259 0.5725   -0.32474
 N 0.5987 0.1995 0.5726   -0.308477
 O 0.6595 0.4051 0.3012   -0.613341
 O 0.8215 0.4342 0.1075   -0.467759
 O 0.293 0.3606 0.1348   -0.544768
 O 0.2768 0.4532 0.2959   -0.616138
 O 0.529 0.1921 0.1212   -0.596706
 O 0.4632 0.2426 0.3175   -0.592783
 O 0.5425 0.7424 0.1051   -0.523795
 O 0.4545 0.6228 0.2986   -0.601809
 O 0.4183 0.4249 0.4883   -0.736473
 O 0.5494 0.4705 0.0947   -0.84439
 O 0.3405 0.5949 0.6988   -0.613341
 O 0.1785 0.5658 0.8925   -0.467759
 O 0.707 0.6394 0.8652   -0.544767
 O 0.7232 0.5468 0.7041   -0.616138
 O 0.471 0.8079 0.8788   -0.596706
 O 0.5368 0.7574 0.6825   -0.592783
 O 0.4575 0.2576 0.8949   -0.523796
 O 0.5455 0.3772 0.7014   -0.60181
 O 0.5817 0.5751 0.5117   -0.736473
 O 0.4506 0.5295 0.9053   -0.844389
