{'_ref': 'TBD', '_srcid': 'CAKYAQ_clean', 'submitters': [{'name': 'Dalar Nazarian Jeff Camp and David Sholl', 'email': 'dalar@gatech.edu jcamp6@gatech.edu'}], '_method': 'VASP DFT with PBE;DDEC'}
data_CoHC4O3
_symmetry_space_group_name_H-M   'P 1'
_cell_length_a   6.80580000
_cell_length_b   15.11591753
_cell_length_c   15.11591732
_cell_angle_alpha   117.78881219
_cell_angle_beta   98.63157470
_cell_angle_gamma   98.63157458
_symmetry_Int_Tables_number   1
_chemical_formula_structural   CoHC4O3
_chemical_formula_sum   'Co6 H6 C24 O18'
_cell_volume   1316.39100563
_cell_formula_units_Z   6
loop_
 _symmetry_equiv_pos_site_id
 _symmetry_equiv_pos_as_xyz
  1  'x, y, z'
loop_
 _atom_site_label
 _atom_site_fract_x
 _atom_site_fract_y
 _atom_site_fract_z
 _atom_site_charge
 Co 0.97608 0.58939 0.26511   1.056064
 Co 0.38669 0.67572 0.41061   1.056294
 Co 0.71097 0.73489 0.32428   1.055302
 Co 0.02392 0.41061 0.73489   1.056064
 Co 0.61331 0.32428 0.58939   1.056294
 Co 0.28903 0.26511 0.67572   1.055302
 H 0.2938 0.4679 0.4469   0.136111
 H 0.8259 0.979 0.5321   0.136424
 H 0.8469 0.5531 0.021   0.135953
 H 0.7062 0.5321 0.5531   0.136111
 H 0.1741 0.021 0.4679   0.136424
 H 0.1531 0.4469 0.979   0.135953
 C 0.3184 0.5657 0.1736   0.74764
 C 0.7527 0.6079 0.4343   0.74733
 C 0.1448 0.8264 0.3921   0.748664
 C 0.6816 0.4343 0.8264   0.74764
 C 0.2473 0.3921 0.5657   0.74733
 C 0.8552 0.1736 0.6079   0.748664
 C 0.4199 0.5342 0.0866   -0.254432
 C 0.8857 0.5524 0.4658   -0.253259
 C 0.3333 0.9134 0.4476   -0.253336
 C 0.5801 0.4658 0.9134   -0.254431
 C 0.1143 0.4476 0.5342   -0.253259
 C 0.6667 0.0866 0.5524   -0.253336
 C 0.0652 0.5336 0.4331   0.3526
 C 0.5316 0.8995 0.4664   0.352972
 C 0.6321 0.5669 0.1005   0.353126
 C 0.9348 0.4664 0.5669   0.3526
 C 0.4684 0.1005 0.5336   0.352972
 C 0.3679 0.4331 0.8995   0.353126
 C 0.17491 0.4813 0.468   -0.134677
 C 0.69361 0.9867 0.5187   -0.135554
 C 0.70691 0.532 0.0133   -0.134273
 C 0.82509 0.5187 0.532   -0.134677
 C 0.30639 0.0133 0.4813   -0.135554
 C 0.29309 0.468 0.9867   -0.134273
 O 0.1292 0.5305 0.1569   -0.587703
 O 0.5987 0.6264 0.4695   -0.587615
 O 0.9723 0.8431 0.3736   -0.588287
 O 0.8708 0.4695 0.8431   -0.587703
 O 0.4013 0.3736 0.5305   -0.587615
 O 0.0277 0.1569 0.6264   -0.588287
 O 0.1392 0.5635 0.3702   -0.657402
 O 0.5757 0.8067 0.4365   -0.656763
 O 0.769 0.6298 0.1933   -0.657007
 O 0.8608 0.4365 0.6298   -0.657402
 O 0.4243 0.1933 0.5635   -0.656763
 O 0.231 0.3702 0.8067   -0.657007
 O 0.80511 0.6383 0.37431   -0.659243
 O 0.16681 0.73601 0.3617   -0.659841
 O 0.4308 0.62569 0.26399   -0.659087
 O 0.19489 0.3617 0.62569   -0.659243
 O 0.83319 0.26399 0.6383   -0.659841
 O 0.5692 0.37431 0.73601   -0.659087
