{'_ref': 'TBD', '_srcid': 'CAKYAQ_clean', 'submitters': [{'name': 'Dalar Nazarian Jeff Camp and David Sholl', 'email': 'dalar@gatech.edu jcamp6@gatech.edu'}], '_method': 'VASP DFT with PBE;DDEC'}
data_CoH10(C4N)4
_symmetry_space_group_name_H-M   'P 1'
_cell_length_a   13.52980000
_cell_length_b   15.47540000
_cell_length_c   15.47540000
_cell_angle_alpha   90.00000000
_cell_angle_beta   90.00000000
_cell_angle_gamma   90.00000000
_symmetry_Int_Tables_number   1
_chemical_formula_structural   CoH10(C4N)4
_chemical_formula_sum   'Co4 H40 C64 N16'
_cell_volume   3240.22481221
_cell_formula_units_Z   4
loop_
 _symmetry_equiv_pos_site_id
 _symmetry_equiv_pos_as_xyz
  1  'x, y, z'
loop_
 _atom_site_label
 _atom_site_fract_x
 _atom_site_fract_y
 _atom_site_fract_z
 _atom_site_charge
 Co 0.8786 0.9822 0.0323   0.651941
 Co 0.3786 0.0178 0.9677   0.651941
 Co 0.6286 0.9677 0.9822   0.651941
 Co 0.1286 0.0323 0.0178   0.651941
 H 0.8637 0.1858 0.0619   0.082577
 H 0.3637 0.8142 0.9381   0.082577
 H 0.6137 0.9381 0.1858   0.082577
 H 0.1137 0.0619 0.8142   0.082577
 H 0.8679 0.9358 0.8269   0.077883
 H 0.3679 0.0642 0.1731   0.077883
 H 0.6179 0.1731 0.9358   0.077883
 H 0.1179 0.8269 0.0642   0.077883
 H 0.898 0.7784 0.077   0.101217
 H 0.398 0.2216 0.923   0.101217
 H 0.648 0.923 0.7784   0.101217
 H 0.148 0.077 0.2216   0.101217
 H 0.6562 0.6116 0.9487   0.10789
 H 0.1562 0.3884 0.0513   0.10789
 H 0.4062 0.0513 0.6116   0.10789
 H 0.9062 0.9487 0.3884   0.10789
 H 0.9093 0.6288 0.0835   0.091703
 H 0.4093 0.3712 0.9165   0.091703
 H 0.6593 0.9165 0.6288   0.091703
 H 0.1593 0.0835 0.3712   0.091703
 H 0.9256 0.4811 0.0891   0.110177
 H 0.4256 0.5189 0.9109   0.110177
 H 0.6756 0.9109 0.4811   0.110177
 H 0.1756 0.0891 0.5189   0.110177
 H 0.6017 0.4644 0.9043   0.091712
 H 0.1017 0.5356 0.0957   0.091712
 H 0.3517 0.0957 0.4644   0.091712
 H 0.8517 0.9043 0.5356   0.091712
 H 0.6116 0.3184 0.906   0.111201
 H 0.1116 0.6816 0.094   0.111201
 H 0.3616 0.094 0.3184   0.111201
 H 0.8616 0.906 0.6816   0.111201
 H 0.8571 0.337 0.0514   0.115572
 H 0.3571 0.663 0.9486   0.115572
 H 0.6071 0.9486 0.337   0.115572
 H 0.1071 0.0514 0.663   0.115572
 H 0.8875 0.9555 0.245   0.116476
 H 0.3875 0.0445 0.755   0.116476
 H 0.6375 0.755 0.9555   0.116476
 H 0.1375 0.245 0.0445   0.116476
 C 0.8087 0.1648 0.0327   0.072656
 C 0.3087 0.8352 0.9673   0.072656
 C 0.5587 0.9673 0.1648   0.072657
 C 0.0587 0.0327 0.8352   0.072657
 C 0.9266 0.9638 0.8408   0.066139
 C 0.4266 0.0362 0.1592   0.066139
 C 0.6766 0.1592 0.9638   0.066139
 C 0.1766 0.8408 0.0362   0.066139
 C 0.8376 0.792 0.0516   0.026327
 C 0.3376 0.208 0.9484   0.026327
 C 0.5876 0.9484 0.792   0.026327
 C 0.0876 0.0516 0.208   0.026327
 C 0.7691 0.7347 0.0264   -0.103772
 C 0.2691 0.2653 0.9736   -0.103772
 C 0.5191 0.9736 0.7347   -0.103772
 C 0.0191 0.0264 0.2653   -0.103772
 C 0.7814 0.6392 0.0156   0.055704
 C 0.2814 0.3608 0.9844   0.055704
 C 0.5314 0.9844 0.6392   0.055704
 C 0.0314 0.0156 0.3608   0.055704
 C 0.7094 0.5861 0.977   -0.170552
 C 0.2094 0.4139 0.023   -0.170552
 C 0.4594 0.023 0.5861   -0.170552
 C 0.9594 0.977 0.4139   -0.170552
 C 0.8605 0.5952 0.0577   -0.121934
 C 0.3605 0.4048 0.9423   -0.121934
 C 0.6105 0.9423 0.5952   -0.121934
 C 0.1105 0.0577 0.4048   -0.121934
 C 0.8705 0.5059 0.0631   -0.131732
 C 0.3705 0.4941 0.9369   -0.131732
 C 0.6205 0.9369 0.5059   -0.131732
 C 0.1205 0.0631 0.4941   -0.131732
 C 0.7948 0.454 0.028   0.057851
 C 0.2948 0.546 0.972   0.057851
 C 0.5448 0.972 0.454   0.057851
 C 0.0448 0.028 0.546   0.057851
 C 0.7159 0.4946 0.9802   0.046908
 C 0.2159 0.5054 0.0198   0.046908
 C 0.4659 0.0198 0.4946   0.046908
 C 0.9659 0.9802 0.5054   0.046908
 C 0.6523 0.4392 0.9363   -0.105929
 C 0.1523 0.5608 0.0637   -0.105929
 C 0.4023 0.0637 0.4392   -0.105929
 C 0.9023 0.9363 0.5608   -0.105929
 C 0.6575 0.3515 0.9361   -0.135051
 C 0.1575 0.6485 0.0639   -0.135051
 C 0.4075 0.0639 0.3515   -0.135051
 C 0.9075 0.9361 0.6485   -0.135051
 C 0.8035 0.3635 0.0247   -0.187623
 C 0.3035 0.6365 0.9753   -0.187623
 C 0.5535 0.9753 0.3635   -0.187623
 C 0.0535 0.0247 0.6365   -0.187623
 C 0.9414 0.9843 0.2214   -0.008305
 C 0.4414 0.0157 0.7786   -0.008305
 C 0.6914 0.7786 0.9843   -0.008305
 C 0.1914 0.2214 0.0157   -0.008305
 C 0.7341 0.313 0.9824   0.09168
 C 0.2341 0.687 0.0176   0.09168
 C 0.4841 0.0176 0.313   0.09168
 C 0.9841 0.9824 0.687   0.09168
 C 0.7393 0.2192 0.9916   -0.145688
 C 0.2393 0.7808 0.0084   -0.145688
 C 0.4893 0.0084 0.2192   -0.145688
 C 0.9893 0.9916 0.7808   -0.145688
 N 0.7895 0.0852 0.0262   -0.22286
 N 0.2895 0.9148 0.9738   -0.22286
 N 0.5395 0.9738 0.0852   -0.22286
 N 0.0395 0.0262 0.9148   -0.22286
 N 0.9541 0.979 0.9231   -0.274443
 N 0.4541 0.021 0.0769   -0.274443
 N 0.7041 0.0769 0.979   -0.274443
 N 0.2041 0.9231 0.021   -0.274443
 N 0.8046 0.8726 0.0343   -0.223928
 N 0.3046 0.1274 0.9657   -0.223928
 N 0.5546 0.9657 0.8726   -0.223928
 N 0.0546 0.0343 0.1274   -0.223928
 N 0.9645 0.9961 0.1329   -0.243798
 N 0.4645 0.0039 0.8671   -0.243798
 N 0.7145 0.8671 0.9961   -0.243798
 N 0.2145 0.1329 0.0039   -0.243798
