{'_ref': 'TBD', '_srcid': 'CAKYAQ_clean', 'submitters': [{'name': 'Dalar Nazarian Jeff Camp and David Sholl', 'email': 'dalar@gatech.edu jcamp6@gatech.edu'}], '_method': 'VASP DFT with PBE;DDEC'}
data_MnH4C4O5
_symmetry_space_group_name_H-M   'P 1'
_cell_length_a   7.95390000
_cell_length_b   7.95390000
_cell_length_c   13.18900000
_cell_angle_alpha   90.00000000
_cell_angle_beta   90.00000000
_cell_angle_gamma   90.00000000
_symmetry_Int_Tables_number   1
_chemical_formula_structural   MnH4C4O5
_chemical_formula_sum   'Mn4 H16 C16 O20'
_cell_volume   834.395822995
_cell_formula_units_Z   4
loop_
 _symmetry_equiv_pos_site_id
 _symmetry_equiv_pos_as_xyz
  1  'x, y, z'
loop_
 _atom_site_label
 _atom_site_fract_x
 _atom_site_fract_y
 _atom_site_fract_z
 _atom_site_charge
 Mn 0.5351 0.13538 0.84223   1.209009
 Mn 0.4649 0.86462 0.34223   1.209009
 Mn 0.86462 0.5351 0.09223   1.209003
 Mn 0.13538 0.4649 0.59223   1.209003
 H 0.611 0.0845 0.6507   0.396649
 H 0.7084 0.846 0.635   0.076494
 H 0.389 0.7522 0.7094   0.148817
 H 0.5232 0.616 0.6816   0.161086
 H 0.389 0.9155 0.1507   0.396649
 H 0.2916 0.154 0.135   0.076494
 H 0.611 0.2478 0.2094   0.148817
 H 0.4768 0.384 0.1816   0.161086
 H 0.9155 0.611 0.9007   0.396649
 H 0.154 0.7084 0.885   0.076496
 H 0.2478 0.389 0.9594   0.148819
 H 0.384 0.5232 0.9316   0.161086
 H 0.0845 0.389 0.4007   0.396649
 H 0.846 0.2916 0.385   0.076496
 H 0.7522 0.611 0.4594   0.148819
 H 0.616 0.4768 0.4316   0.161086
 C 0.7074 0.8101 0.7904   0.618187
 C 0.6236 0.853 0.6887   0.159276
 C 0.4837 0.7282 0.6654   -0.438726
 C 0.4237 0.7299 0.5572   0.806448
 C 0.2926 0.1899 0.2904   0.618187
 C 0.3764 0.147 0.1887   0.159276
 C 0.5163 0.2718 0.1654   -0.438726
 C 0.5763 0.2701 0.0572   0.806448
 C 0.1899 0.7074 0.0404   0.618187
 C 0.147 0.6236 0.9387   0.159276
 C 0.2718 0.4837 0.9154   -0.438727
 C 0.2701 0.4237 0.8072   0.806449
 C 0.8101 0.2926 0.5404   0.618187
 C 0.853 0.3764 0.4387   0.159276
 C 0.7282 0.5163 0.4154   -0.438727
 C 0.7299 0.5763 0.3072   0.806449
 O 0.7919 0.6803 0.7916   -0.58518
 O 0.6826 0.9043 0.86432   -0.647364
 O 0.3216 0.6209 0.52941   -0.696339
 O 0.4837 0.8369 0.4994   -0.617654
 O 0.559 0.0204 0.69164   -0.590702
 O 0.2081 0.3197 0.2916   -0.58518
 O 0.3174 0.0957 0.36432   -0.647365
 O 0.6784 0.3791 0.02941   -0.696339
 O 0.5163 0.1631 0.9994   -0.617654
 O 0.441 0.9796 0.19164   -0.590702
 O 0.3197 0.7919 0.0416   -0.58518
 O 0.0957 0.6826 0.11432   -0.647365
 O 0.3791 0.3216 0.77941   -0.69634
 O 0.1631 0.4837 0.7494   -0.617653
 O 0.9796 0.559 0.94164   -0.590702
 O 0.6803 0.2081 0.5416   -0.58518
 O 0.9043 0.3174 0.61432   -0.647365
 O 0.6209 0.6784 0.27941   -0.69634
 O 0.8369 0.5163 0.2494   -0.617653
 O 0.0204 0.441 0.44164   -0.590702
