{'_ref': 'TBD', '_srcid': 'CAKYAQ_clean', 'submitters': [{'name': 'Dalar Nazarian Jeff Camp and David Sholl', 'email': 'dalar@gatech.edu jcamp6@gatech.edu'}], '_method': 'VASP DFT with PBE;DDEC'}
data_BH2C3O
_symmetry_space_group_name_H-M   'P 1'
_cell_length_a   6.70050000
_cell_length_b   15.65290000
_cell_length_c   15.65289996
_cell_angle_alpha   120.00000008
_cell_angle_beta   90.00000000
_cell_angle_gamma   90.00000000
_symmetry_Int_Tables_number   1
_chemical_formula_structural   BH2C3O
_chemical_formula_sum   'B12 H24 C36 O12'
_cell_volume   1421.76383593
_cell_formula_units_Z   12
loop_
 _symmetry_equiv_pos_site_id
 _symmetry_equiv_pos_as_xyz
  1  'x, y, z'
loop_
 _atom_site_label
 _atom_site_fract_x
 _atom_site_fract_y
 _atom_site_fract_z
 _atom_site_charge
 B 0.25 0.05772 0.11543   0.811199
 B 0.75 0.94228 0.88457   0.811199
 B 0.25 0.88457 0.94229   0.811201
 B 0.75 0.11543 0.05771   0.811201
 B 0.25 0.05771 0.94228   0.811202
 B 0.75 0.94229 0.05772   0.811202
 B 0.25 0.44466 0.72233   0.780439
 B 0.75 0.55534 0.27767   0.780439
 B 0.25 0.27767 0.72233   0.780451
 B 0.75 0.72233 0.27767   0.780451
 B 0.25 0.27767 0.55534   0.780462
 B 0.75 0.72233 0.44466   0.780462
 H 0.25 0.57703 0.92773   0.112607
 H 0.75 0.42297 0.07227   0.112607
 H 0.25 0.07227 0.6493   0.112607
 H 0.75 0.92773 0.3507   0.112607
 H 0.25 0.3507 0.42297   0.112607
 H 0.75 0.6493 0.57703   0.112607
 H 0.75 0.92773 0.57703   0.112606
 H 0.25 0.07227 0.42297   0.112606
 H 0.75 0.6493 0.07227   0.112606
 H 0.25 0.3507 0.92773   0.112606
 H 0.75 0.42297 0.3507   0.112606
 H 0.25 0.57703 0.6493   0.112606
 H 0.75 0.02045 0.76181   0.105817
 H 0.25 0.97955 0.23819   0.105817
 H 0.75 0.23819 0.25864   0.105817
 H 0.25 0.76181 0.74136   0.105817
 H 0.75 0.74136 0.97955   0.105817
 H 0.25 0.25864 0.02045   0.105817
 H 0.25 0.76181 0.02045   0.105817
 H 0.75 0.23819 0.97955   0.105817
 H 0.25 0.25864 0.23819   0.105817
 H 0.75 0.74136 0.76181   0.105817
 H 0.25 0.97955 0.74136   0.105817
 H 0.75 0.02045 0.25864   0.105817
 C 0.25 0.11184 0.38361   -0.049612
 C 0.75 0.88816 0.61639   -0.049612
 C 0.25 0.61639 0.72823   -0.049613
 C 0.75 0.38361 0.27177   -0.049613
 C 0.25 0.27177 0.88816   -0.049612
 C 0.75 0.72823 0.11184   -0.049612
 C 0.75 0.38361 0.11184   -0.049611
 C 0.25 0.61639 0.88816   -0.049611
 C 0.75 0.72823 0.61639   -0.04961
 C 0.25 0.27177 0.38361   -0.04961
 C 0.75 0.88816 0.27177   -0.04961
 C 0.25 0.11184 0.72823   -0.04961
 C 0.25 0.21864 0.43728   -0.309623
 C 0.75 0.78136 0.56272   -0.309623
 C 0.25 0.56272 0.78136   -0.309618
 C 0.75 0.43728 0.21864   -0.309618
 C 0.25 0.21864 0.78136   -0.309621
 C 0.75 0.78136 0.21864   -0.309621
 C 0.25 0.21837 0.27685   0.003573
 C 0.75 0.78163 0.72315   0.003573
 C 0.25 0.72315 0.94152   0.003573
 C 0.75 0.27685 0.05848   0.003573
 C 0.25 0.05848 0.78163   0.003573
 C 0.75 0.94152 0.21837   0.003573
 C 0.75 0.27685 0.21837   0.003582
 C 0.25 0.72315 0.78163   0.003582
 C 0.75 0.94152 0.72315   0.003582
 C 0.25 0.05848 0.27685   0.003582
 C 0.75 0.78163 0.05848   0.003582
 C 0.25 0.21837 0.94152   0.003582
 C 0.25 0.1103 0.8897   -0.342278
 C 0.75 0.8897 0.1103   -0.342278
 C 0.25 0.1103 0.2206   -0.342277
 C 0.75 0.8897 0.7794   -0.342277
 C 0.25 0.7794 0.8897   -0.342278
 C 0.75 0.2206 0.1103   -0.342278
 O 0.25 0.11133 0.05567   -0.657153
 O 0.75 0.88867 0.94433   -0.657153
 O 0.25 0.94433 0.05566   -0.657152
 O 0.75 0.05567 0.94434   -0.657152
 O 0.25 0.94434 0.88867   -0.657153
 O 0.75 0.05566 0.11133   -0.657153
 O 0.25 0.389 0.778   -0.627379
 O 0.75 0.611 0.222   -0.627379
 O 0.25 0.222 0.611   -0.627381
 O 0.75 0.778 0.389   -0.627381
 O 0.25 0.389 0.611   -0.627379
 O 0.75 0.611 0.389   -0.627379
