{'_ref': 'TBD', '_srcid': 'CAKYAQ_clean', 'submitters': [{'name': 'Dalar Nazarian Jeff Camp and David Sholl', 'email': 'dalar@gatech.edu jcamp6@gatech.edu'}], '_method': 'VASP DFT with PBE;DDEC'}
data_BH4C9O2
_symmetry_space_group_name_H-M   'P 1'
_cell_length_a   3.40400000
_cell_length_b   30.01980000
_cell_length_c   30.01979964
_cell_angle_alpha   120.00000040
_cell_angle_beta   90.00000000
_cell_angle_gamma   90.00000000
_symmetry_Int_Tables_number   1
_chemical_formula_structural   BH4C9O2
_chemical_formula_sum   'B6 H24 C54 O12'
_cell_volume   2656.65870535
_cell_formula_units_Z   6
loop_
 _symmetry_equiv_pos_site_id
 _symmetry_equiv_pos_as_xyz
  1  'x, y, z'
loop_
 _atom_site_label
 _atom_site_fract_x
 _atom_site_fract_y
 _atom_site_fract_z
 _atom_site_charge
 B 0.5 0.11357 0.55679   0.61403
 B 0.5 0.88643 0.44321   0.61403
 B 0.5 0.44321 0.55678   0.61403
 B 0.5 0.55679 0.44322   0.61403
 B 0.5 0.44322 0.88643   0.61403
 B 0.5 0.55678 0.11357   0.61403
 H 0.5 0.45252 0.40508   0.098606
 H 0.5 0.54748 0.59492   0.098606
 H 0.5 0.59492 0.04744   0.098606
 H 0.5 0.40508 0.95256   0.098606
 H 0.5 0.95256 0.54748   0.098606
 H 0.5 0.04744 0.45252   0.098606
 H 0.5 0.40508 0.45252   0.098544
 H 0.5 0.59492 0.54748   0.098544
 H 0.5 0.04744 0.59492   0.098544
 H 0.5 0.95256 0.40508   0.098544
 H 0.5 0.54748 0.95256   0.098543
 H 0.5 0.45252 0.04744   0.098543
 H 0.5 0.53659 0.29828   0.134533
 H 0.5 0.46341 0.70172   0.134533
 H 0.5 0.70172 0.23831   0.134533
 H 0.5 0.29828 0.76169   0.134533
 H 0.5 0.76169 0.46341   0.134533
 H 0.5 0.23831 0.53659   0.134533
 H 0.5 0.29828 0.53659   0.134531
 H 0.5 0.70172 0.46341   0.134531
 H 0.5 0.23831 0.70172   0.134531
 H 0.5 0.76169 0.29828   0.134531
 H 0.5 0.46341 0.76169   0.134531
 H 0.5 0.53659 0.23831   0.134531
 C 0.5 0.94617 0.47308   -0.295253
 C 0.5 0.05383 0.52692   -0.295253
 C 0.5 0.52692 0.47309   -0.295253
 C 0.5 0.47308 0.52691   -0.295253
 C 0.5 0.52691 0.05383   -0.295253
 C 0.5 0.47309 0.94617   -0.295253
 C 0.5 0.47312 0.02688   -0.018726
 C 0.5 0.52688 0.97312   -0.018726
 C 0.5 0.97312 0.44624   -0.018726
 C 0.5 0.02688 0.55376   -0.018726
 C 0.5 0.55376 0.52688   -0.018726
 C 0.5 0.44624 0.47312   -0.018726
 C 0.5 0.02688 0.47312   -0.018979
 C 0.5 0.97312 0.52688   -0.018979
 C 0.5 0.44624 0.97312   -0.018979
 C 0.5 0.55376 0.02688   -0.018979
 C 0.5 0.52688 0.55376   -0.018979
 C 0.5 0.47312 0.44624   -0.018979
 C 0.5 0.6195 0.19328   0.169724
 C 0.5 0.3805 0.80672   0.169724
 C 0.5 0.80672 0.42622   0.169724
 C 0.5 0.19328 0.57378   0.169724
 C 0.5 0.57378 0.3805   0.169724
 C 0.5 0.42622 0.6195   0.169724
 C 0.5 0.19328 0.6195   0.169676
 C 0.5 0.80672 0.3805   0.169676
 C 0.5 0.42622 0.80672   0.169676
 C 0.5 0.57378 0.19328   0.169676
 C 0.5 0.3805 0.57378   0.169676
 C 0.5 0.6195 0.42622   0.169676
 C 0.5 0.666667 0.23896   -0.222883
 C 0.5 0.333333 0.76104   -0.222883
 C 0.5 0.76104 0.427707   -0.222882
 C 0.5 0.23896 0.572293   -0.222882
 C 0.5 0.572293 0.333333   -0.222883
 C 0.5 0.427707 0.666667   -0.222883
 C 0.5 0.23896 0.666667   -0.222865
 C 0.5 0.76104 0.333333   -0.222865
 C 0.5 0.427707 0.76104   -0.222865
 C 0.5 0.572293 0.23896   -0.222865
 C 0.5 0.333333 0.572293   -0.222865
 C 0.5 0.666667 0.427707   -0.222865
 C 0.5 0.666667 0.28621   0.032363
 C 0.5 0.333333 0.71379   0.032363
 C 0.5 0.71379 0.380457   0.032363
 C 0.5 0.28621 0.619543   0.032363
 C 0.5 0.619543 0.333333   0.032363
 C 0.5 0.380457 0.666667   0.032363
 C 0.5 0.28621 0.666667   0.032346
 C 0.5 0.71379 0.333333   0.032346
 C 0.5 0.380457 0.71379   0.032346
 C 0.5 0.619543 0.28621   0.032346
 C 0.5 0.333333 0.619543   0.032346
 C 0.5 0.666667 0.380457   0.032346
 O 0.5 0.61305 0.14429   -0.35287
 O 0.5 0.38695 0.85571   -0.35287
 O 0.5 0.85571 0.46876   -0.352871
 O 0.5 0.14429 0.53124   -0.352871
 O 0.5 0.53124 0.38695   -0.35287
 O 0.5 0.46876 0.61305   -0.35287
 O 0.5 0.14429 0.61305   -0.352776
 O 0.5 0.85571 0.38695   -0.352776
 O 0.5 0.46876 0.85571   -0.352776
 O 0.5 0.53124 0.14429   -0.352776
 O 0.5 0.38695 0.53124   -0.352776
 O 0.5 0.61305 0.46876   -0.352776
