{'_ref': 'TBD', '_srcid': 'CAKYAQ_clean', 'submitters': [{'name': 'Dalar Nazarian Jeff Camp and David Sholl', 'email': 'dalar@gatech.edu jcamp6@gatech.edu'}], '_method': 'VASP DFT with PBE;DDEC'}
data_ZnH14C28(NO3)2
_symmetry_space_group_name_H-M   'P 1'
_cell_length_a   12.93500000
_cell_length_b   12.93500000
_cell_length_c   23.24200000
_cell_angle_alpha   90.00000000
_cell_angle_beta   90.00000000
_cell_angle_gamma   90.00000000
_symmetry_Int_Tables_number   1
_chemical_formula_structural   ZnH14C28(NO3)2
_chemical_formula_sum   'Zn4 H56 C112 N8 O24'
_cell_volume   3888.71721745
_cell_formula_units_Z   4
loop_
 _symmetry_equiv_pos_site_id
 _symmetry_equiv_pos_as_xyz
  1  'x, y, z'
loop_
 _atom_site_label
 _atom_site_fract_x
 _atom_site_fract_y
 _atom_site_fract_z
 _atom_site_charge
 Zn 0.25212 0.35893 0.74872   0.899423
 Zn 0.27113 0.3411 0.87671   0.914376
 Zn 0.74788 0.64107 0.24872   0.899423
 Zn 0.72887 0.6589 0.37671   0.914376
 H 0.5914 0.3646 0.8847   0.11818
 H 0.7469 0.341 0.6966   0.115679
 H 0.5663 0.3539 0.7064   0.119038
 H 0.7824 0.364 0.9288   0.119501
 H 0.949 0.33 0.9132   0.074729
 H 0.9182 0.3413 0.7437   0.098029
 H 0.2606 0.0044 0.8906   0.11053
 H 0.2311 0.8658 0.7015   0.14332
 H 0.299 0.0212 0.7154   0.071439
 H 0.2355 0.8413 0.9295   0.09607
 H 0.2517 0.6596 0.9267   0.136566
 H 0.2282 0.6841 0.7488   0.128923
 H 0.216 0.1754 0.9543   0.074621
 H 0.2106 0.1141 0.0464   0.149994
 H 0.2281 0.2378 0.1166   0.096681
 H 0.3913 0.4746 0.9489   0.119283
 H 0.4299 0.5925 0.0125   0.104188
 H 0.4357 0.5493 0.1176   0.151575
 H 0.0733 0.4437 0.2539   0.111249
 H 0.0415 0.3722 0.3365   0.116258
 H 0.5484 0.3263 0.2783   0.091494
 H 0.5123 0.2906 0.3751   0.100285
 H 0.1757 0.1364 0.4974   0.138816
 H 0.1076 0.0704 0.5994   0.181431
 H 0.2118 0.1998 0.6795   0.135056
 H 0.3127 0.4796 0.5112   0.087057
 H 0.372 0.5798 0.5908   0.152369
 H 0.3071 0.5396 0.6705   0.06546
 H 0.4086 0.6354 0.3847   0.11818
 H 0.2531 0.659 0.1966   0.115679
 H 0.4337 0.6461 0.2064   0.119038
 H 0.2176 0.636 0.4288   0.119501
 H 0.051 0.67 0.4132   0.074729
 H 0.0818 0.6587 0.2437   0.098029
 H 0.7394 0.9956 0.3906   0.11053
 H 0.7689 0.1342 0.2015   0.14332
 H 0.701 0.9788 0.2154   0.071439
 H 0.7645 0.1587 0.4295   0.09607
 H 0.7483 0.3404 0.4267   0.136566
 H 0.7718 0.3159 0.2488   0.128923
 H 0.784 0.8246 0.4543   0.074621
 H 0.7894 0.8859 0.5464   0.149994
 H 0.7719 0.7622 0.6166   0.096682
 H 0.6087 0.5254 0.4489   0.119283
 H 0.5701 0.4075 0.5125   0.104188
 H 0.5643 0.4507 0.6176   0.151575
 H 0.9267 0.5563 0.7539   0.111249
 H 0.9585 0.6278 0.8365   0.116258
 H 0.4516 0.6737 0.7783   0.091494
 H 0.4877 0.7094 0.8751   0.100285
 H 0.8243 0.8636 0.9974   0.138816
 H 0.8924 0.9296 0.0994   0.181431
 H 0.7882 0.8002 0.1795   0.135056
 H 0.6873 0.5204 0.0112   0.087056
 H 0.628 0.4202 0.0908   0.152368
 H 0.6929 0.4604 0.1705   0.06546
 C 0.4515 0.3688 0.8116   0.684205
 C 0.5735 0.3607 0.8023   -0.100693
 C 0.6248 0.3621 0.8483   -0.152693
 C 0.7472 0.3594 0.8433   0.057057
 C 0.7867 0.3371 0.7862   0.009273
 C 0.7167 0.3435 0.7338   -0.135269
 C 0.6116 0.3526 0.7385   -0.091189
 C 0.8088 0.356 0.891   -0.172226
 C 0.9065 0.3408 0.8804   -0.005858
 C 0.9597 0.3383 0.8247   -0.16138
 C 0.8908 0.3391 0.7816   -0.045861
 C 0.2386 0.5406 0.8261   0.698102
 C 0.2741 0.1511 0.8035   0.661766
 C 0.2661 0.0532 0.7962   -0.210101
 C 0.2621 0.9765 0.8528   -0.055853
 C 0.2613 0.8808 0.8449   0.025785
 C 0.2556 0.8345 0.7887   0.080011
 C 0.2494 0.8927 0.7381   -0.173501
 C 0.2718 0.9872 0.7483   0.057295
 C 0.2476 0.8099 0.8932   -0.10404
 C 0.25 0.7012 0.893   -0.103311
 C 0.2497 0.6586 0.8318   -0.080936
 C 0.242 0.7158 0.7849   -0.146418
 C 0.07 0.3342 0.8225   0.683172
 C 0.2403 0.219 0.9843   0.174573
 C 0.2306 0.1832 0.0381   -0.181461
 C 0.251 0.2508 0.0785   0.032083
 C 0.3093 0.3482 0.0661   -0.15353
 C 0.3033 0.3756 0.9975   0.303422
 C 0.3699 0.4633 0.9875   -0.176355
 C 0.4036 0.528 0.0255   -0.026763
 C 0.4035 0.5069 0.0894   -0.151584
 C 0.3506 0.4183 0.1009   0.160208
 C 0.4178 0.3766 0.1956   0.537444
 C 0.2343 0.417 0.1854   0.529128
 C 0.2237 0.3979 0.2467   -0.157607
 C 0.1277 0.411 0.2745   -0.003335
 C 0.111 0.382 0.3244   -0.033987
 C 0.1863 0.3642 0.3612   -0.024667
 C 0.285 0.3429 0.3392   -0.035976
 C 0.3027 0.374 0.2778   0.109753
 C 0.3956 0.3616 0.2595   -0.184168
 C 0.4808 0.3335 0.2937   0.023579
 C 0.4595 0.3172 0.3509   -0.067774
 C 0.3792 0.3349 0.3706   -0.022915
 C 0.365 0.3339 0.4425   0.340755
 C 0.1884 0.3499 0.4279   0.364182
 C 0.236 0.2866 0.5224   0.086982
 C 0.1852 0.178 0.5307   -0.10169
 C 0.1473 0.1308 0.5921   -0.16712
 C 0.1982 0.2193 0.6409   -0.127057
 C 0.2225 0.3388 0.61817   0.189336
 C 0.2566 0.3568 0.5651   -0.0591
 C 0.3035 0.4582 0.5499   0.03038
 C 0.3324 0.5185 0.5952   -0.191179
 C 0.3031 0.4868 0.6421   0.214838
 C 0.5485 0.6312 0.3116   0.684205
 C 0.4265 0.6393 0.3023   -0.100693
 C 0.3752 0.6379 0.3483   -0.152693
 C 0.2528 0.6406 0.3433   0.057057
 C 0.2133 0.6629 0.2862   0.009273
 C 0.2833 0.6565 0.2338   -0.135269
 C 0.3884 0.6474 0.2385   -0.091188
 C 0.1912 0.644 0.391   -0.172225
 C 0.0935 0.6592 0.3804   -0.005858
 C 0.0403 0.6617 0.3247   -0.16138
 C 0.1092 0.6609 0.2816   -0.045861
 C 0.7614 0.4594 0.3261   0.698102
 C 0.7259 0.8489 0.3035   0.661766
 C 0.7339 0.9468 0.2962   -0.210101
 C 0.7379 0.0235 0.3528   -0.055853
 C 0.7387 0.1192 0.3449   0.025785
 C 0.7444 0.1655 0.2887   0.080011
 C 0.7506 0.1073 0.2381   -0.173501
 C 0.7282 0.0128 0.2483   0.057295
 C 0.7524 0.1901 0.3932   -0.10404
 C 0.75 0.2988 0.393   -0.103311
 C 0.7503 0.3414 0.3318   -0.080936
 C 0.758 0.2842 0.2849   -0.146418
 C 0.93 0.6658 0.3225   0.683172
 C 0.7597 0.781 0.4843   0.174573
 C 0.7694 0.8168 0.5381   -0.18146
 C 0.749 0.7492 0.5785   0.032083
 C 0.6907 0.6518 0.5661   -0.15353
 C 0.6967 0.6244 0.4975   0.303422
 C 0.6301 0.5367 0.4875   -0.176355
 C 0.5964 0.472 0.5255   -0.026763
 C 0.5965 0.4931 0.5894   -0.151584
 C 0.6494 0.5817 0.6009   0.160208
 C 0.5822 0.6234 0.6956   0.537444
 C 0.7657 0.583 0.6854   0.529128
 C 0.7763 0.6021 0.7467   -0.157607
 C 0.8723 0.589 0.7745   -0.003335
 C 0.889 0.618 0.8244   -0.033987
 C 0.8137 0.6358 0.8612   -0.024667
 C 0.715 0.6571 0.8392   -0.035976
 C 0.6973 0.626 0.7778   0.109753
 C 0.6044 0.6384 0.7595   -0.184168
 C 0.5192 0.6665 0.7937   0.023579
 C 0.5405 0.6828 0.8509   -0.067774
 C 0.6208 0.6651 0.8706   -0.022915
 C 0.635 0.6661 0.9425   0.340755
 C 0.8116 0.6501 0.9279   0.364182
 C 0.764 0.7134 0.0224   0.086983
 C 0.8148 0.822 0.0307   -0.10169
 C 0.8527 0.8692 0.0921   -0.16712
 C 0.8018 0.7807 0.1409   -0.127057
 C 0.7775 0.6612 0.11817   0.189336
 C 0.7434 0.6432 0.0651   -0.0591
 C 0.6965 0.5418 0.0499   0.03038
 C 0.6676 0.4815 0.0952   -0.191179
 C 0.6969 0.5132 0.1421   0.214838
 N 0.2807 0.3097 0.9685   -0.29221
 N 0.326 0.4029 0.1683   -0.274281
 N 0.2526 0.3238 0.4575   -0.068797
 N 0.2657 0.3952 0.6655   -0.297164
 N 0.7193 0.6903 0.4685   -0.29221
 N 0.674 0.5971 0.6683   -0.274281
 N 0.7474 0.6762 0.9575   -0.068797
 N 0.7343 0.6048 0.1655   -0.297164
 O 0.4204 0.3669 0.8562   -0.521256
 O 0.4149 0.3804 0.7615   -0.620124
 O 0.2456 0.4945 0.8692   -0.572228
 O 0.2468 0.5065 0.7776   -0.607182
 O 0.2808 0.1954 0.8577   -0.643626
 O 0.2618 0.2043 0.7567   -0.549207
 O 0.1194 0.3281 0.8667   -0.549872
 O 0.1002 0.3492 0.7688   -0.604322
 O 0.1605 0.4447 0.1571   -0.498323
 O 0.4965 0.352 0.1752   -0.446207
 O 0.0772 0.3411 0.4503   -0.556717
 O 0.4276 0.283 0.4716   -0.367837
 O 0.5796 0.6331 0.3562   -0.521256
 O 0.5851 0.6196 0.2615   -0.620124
 O 0.7544 0.5055 0.3692   -0.572228
 O 0.7532 0.4935 0.2776   -0.607182
 O 0.7192 0.8046 0.3577   -0.643626
 O 0.7382 0.7957 0.2567   -0.549207
 O 0.8806 0.6719 0.3667   -0.549872
 O 0.8998 0.6508 0.2688   -0.604322
 O 0.8395 0.5553 0.6571   -0.498323
 O 0.5035 0.648 0.6752   -0.446207
 O 0.9228 0.6589 0.9503   -0.556717
 O 0.5724 0.717 0.9716   -0.367837
