{'_ref': 'TBD', '_srcid': 'CAKYAQ_clean', 'submitters': [{'name': 'Dalar Nazarian Jeff Camp and David Sholl', 'email': 'dalar@gatech.edu jcamp6@gatech.edu'}], '_method': 'VASP DFT with PBE;DDEC'}
data_Na2Cd3H12(C8O5)4
_symmetry_space_group_name_H-M   'P 1'
_cell_length_a   8.64899994
_cell_length_b   14.76300013
_cell_length_c   16.03300000
_cell_angle_alpha   104.34399889
_cell_angle_beta   97.34899894
_cell_angle_gamma   105.90700042
_symmetry_Int_Tables_number   1
_chemical_formula_structural   Na2Cd3H12(C8O5)4
_chemical_formula_sum   'Na4 Cd6 H24 C64 O40'
_cell_volume   1864.81149347
_cell_formula_units_Z   2
loop_
 _symmetry_equiv_pos_site_id
 _symmetry_equiv_pos_as_xyz
  1  'x, y, z'
loop_
 _atom_site_label
 _atom_site_fract_x
 _atom_site_fract_y
 _atom_site_fract_z
 _atom_site_charge
 Na 0.2313 0.2353 0.8683   0.898453
 Na 0.3949 0.1246 0.6481   0.974213
 Na 0.7687 0.7647 0.1317   0.898457
 Na 0.6051 0.8754 0.3519   0.974213
 Cd 0.23621 0.53458 0.00184   1.168777
 Cd 0.67201 0.18731 0.86071   1.060096
 Cd 0.25584 0.95802 0.43262   1.148811
 Cd 0.76379 0.46542 0.99816   1.168777
 Cd 0.32799 0.81269 0.13929   1.060096
 Cd 0.74416 0.04198 0.56738   1.148811
 H 0.352 0.5688 0.751   0.132267
 H 0.5453 0.4381 0.5597   0.114949
 H 0.5965 0.3372 0.6412   0.095841
 H 0.3506 0.6903 0.5234   0.140557
 H 0.6171 0.6928 0.7504   0.145064
 H 0.684 0.8628 0.8003   0.120491
 H 0.8564 0.5165 0.7179   0.126159
 H 0.1571 0.7615 0.6839   0.137422
 H 0.2736 0.8149 0.8332   0.114826
 H 0.8668 0.7612 0.616   0.12314
 H 0.9771 0.5533 0.4478   0.116639
 H 0.9724 0.6384 0.3426   0.118533
 H 0.648 0.4312 0.249   0.132267
 H 0.4547 0.5619 0.4403   0.114945
 H 0.4035 0.6628 0.3588   0.095835
 H 0.6494 0.3097 0.4766   0.140551
 H 0.3829 0.3072 0.2496   0.145064
 H 0.316 0.1372 0.1997   0.120491
 H 0.1436 0.4835 0.2821   0.126155
 H 0.8429 0.2385 0.3161   0.137422
 H 0.7264 0.1851 0.1668   0.114826
 H 0.1332 0.2388 0.384   0.123141
 H 0.0229 0.4467 0.5522   0.116635
 H 0.0276 0.3616 0.6574   0.118527
 C 0.3683 0.474 0.863   0.647986
 C 0.4323 0.4624 0.7778   0.023439
 C 0.4036 0.5229 0.7298   -0.214031
 C 0.4517 0.516 0.6482   0.26747
 C 0.519 0.4453 0.6149   -0.204712
 C 0.5481 0.3843 0.6638   -6.7e-05
 C 0.5073 0.3911 0.7459   -0.144489
 C 0.557 0.3291 0.7993   0.706467
 C 0.3989 0.8753 0.5452   0.669969
 C 0.4624 0.8275 0.6086   0.0159
 C 0.4171 0.7252 0.5788   -0.234959
 C 0.474 0.6757 0.6344   0.28633
 C 0.576 0.7264 0.7157   -0.251887
 C 0.6165 0.8282 0.7451   0.047499
 C 0.5566 0.88 0.6922   -0.165283
 C 0.6066 0.9907 0.7259   0.699353
 C 0.9327 0.5521 0.8877   0.641811
 C 0.0066 0.6122 0.8311   0.017501
 C 0.9387 0.5772 0.7413   -0.225112
 C 0.995 0.6339 0.6862   0.280584
 C 0.1199 0.7237 0.7202   -0.23624
 C 0.1882 0.7556 0.8101   0.019947
 C 0.1338 0.7025 0.8658   -0.148563
 C 0.2089 0.7426 0.9621   0.655386
 C 0.8512 0.8847 0.5261   0.658542
 C 0.8858 0.7899 0.4999   -0.055202
 C 0.8886 0.737 0.561   -0.155757
 C 0.9228 0.6506 0.5408   0.258835
 C 0.9536 0.6125 0.4606   -0.189097
 C 0.9495 0.6634 0.3972   -0.025572
 C 0.9115 0.7509 0.4157   -0.104038
 C 0.9134 0.797 0.344   0.705802
 C 0.6317 0.526 0.137   0.647986
 C 0.5677 0.5376 0.2222   0.023439
 C 0.5964 0.4771 0.2702   -0.214031
 C 0.5483 0.484 0.3518   0.267472
 C 0.481 0.5547 0.3851   -0.204715
 C 0.4519 0.6157 0.3362   -6.6e-05
 C 0.4927 0.6089 0.2541   -0.144489
 C 0.443 0.6709 0.2007   0.706468
 C 0.6011 0.1247 0.4548   0.669969
 C 0.5376 0.1725 0.3914   0.0159
 C 0.5829 0.2748 0.4212   -0.234958
 C 0.526 0.3243 0.3656   0.28633
 C 0.424 0.2736 0.2843   -0.251887
 C 0.3835 0.1718 0.2549   0.047499
 C 0.4434 0.12 0.3078   -0.165283
 C 0.3934 0.0093 0.2741   0.699353
 C 0.0673 0.4479 0.1123   0.641811
 C 0.9934 0.3878 0.1689   0.0175
 C 0.0613 0.4228 0.2587   -0.22511
 C 0.005 0.3661 0.3138   0.280584
 C 0.8801 0.2763 0.2798   -0.23624
 C 0.8118 0.2444 0.1899   0.019946
 C 0.8662 0.2975 0.1342   -0.148563
 C 0.7911 0.2574 0.0379   0.655385
 C 0.1488 0.1153 0.4739   0.658543
 C 0.1142 0.2101 0.5001   -0.055205
 C 0.1114 0.263 0.439   -0.155758
 C 0.0772 0.3494 0.4592   0.258834
 C 0.0464 0.3875 0.5394   -0.189096
 C 0.0505 0.3366 0.6028   -0.025569
 C 0.0885 0.2491 0.5843   -0.104038
 C 0.0866 0.203 0.656   0.705802
 O 0.4118 0.5622 0.914   -0.57395
 O 0.2691 0.4049 0.8771   -0.622349
 O 0.566 0.3542 0.881   -0.664347
 O 0.5838 0.2533 0.7584   -0.664628
 O 0.4216 0.5746 0.5982   -0.21562
 O 0.4751 0.8911 0.4861   -0.70576
 O 0.2655 0.892 0.5498   -0.579489
 O 0.5866 0.0383 0.6732   -0.717969
 O 0.6646 0.0302 0.8082   -0.536708
 O 0.9793 0.4806 0.8969   -0.6004
 O 0.8197 0.5737 0.9213   -0.5643
 O 0.1877 0.6829 0.0083   -0.628648
 O 0.2801 0.8317 0.9962   -0.501147
 O 0.9196 0.5923 0.5986   -0.228165
 O 0.8515 0.9229 0.6048   -0.552049
 O 0.8229 0.9262 0.4677   -0.697897
 O 0.0591 0.84 0.3311   -0.566663
 O 0.7858 0.7869 0.2922   -0.67451
 O 0.9351 0.2471 0.8328   -0.27076
 O 0.3901 0.1171 0.862   -0.418686
 O 0.5882 0.4378 0.086   -0.57395
 O 0.7309 0.5951 0.1229   -0.622349
 O 0.434 0.6458 0.119   -0.664347
 O 0.4162 0.7467 0.2416   -0.664628
 O 0.5784 0.4254 0.4018   -0.215621
 O 0.5249 0.1089 0.5139   -0.70576
 O 0.7345 0.108 0.4502   -0.579489
 O 0.4134 0.9617 0.3268   -0.717969
 O 0.3354 0.9698 0.1918   -0.536706
 O 0.0207 0.5194 0.1031   -0.6004
 O 0.1803 0.4263 0.0787   -0.5643
 O 0.8123 0.3171 0.9917   -0.628647
 O 0.7199 0.1683 0.0038   -0.501141
 O 0.0804 0.4077 0.4014   -0.228166
 O 0.1485 0.0771 0.3952   -0.552049
 O 0.1771 0.0738 0.5323   -0.697896
 O 0.9409 0.16 0.6689   -0.566662
 O 0.2142 0.2131 0.7078   -0.67451
 O 0.0649 0.7529 0.1672   -0.270759
 O 0.6099 0.8829 0.138   -0.418684
