{'_ref': 'TBD', '_srcid': 'CAKYAQ_clean', 'submitters': [{'name': 'Dalar Nazarian Jeff Camp and David Sholl', 'email': 'dalar@gatech.edu jcamp6@gatech.edu'}], '_method': 'VASP DFT with PBE;DDEC'}
data_Mn2Mo(CN)8
_symmetry_space_group_name_H-M   'P 1'
_cell_length_a   7.33290039
_cell_length_b   14.37200000
_cell_length_c   18.07000000
_cell_angle_alpha   90.00000000
_cell_angle_beta   90.86899855
_cell_angle_gamma   90.00000000
_symmetry_Int_Tables_number   1
_chemical_formula_structural   Mn2Mo(CN)8
_chemical_formula_sum   'Mn8 Mo4 C32 N32'
_cell_volume   1904.1501603
_cell_formula_units_Z   4
loop_
 _symmetry_equiv_pos_site_id
 _symmetry_equiv_pos_as_xyz
  1  'x, y, z'
loop_
 _atom_site_label
 _atom_site_fract_x
 _atom_site_fract_y
 _atom_site_fract_z
 _atom_site_charge
 Mn 0.27072 0.56515 0.79612   1.208818
 Mn 0.75014 0.19498 0.94535   1.129055
 Mn 0.22928 0.06515 0.70388   1.206772
 Mn 0.74986 0.69498 0.55465   1.12843
 Mn 0.72928 0.43485 0.20388   1.209113
 Mn 0.24986 0.80502 0.05465   1.127917
 Mn 0.77072 0.93485 0.29612   1.209372
 Mn 0.25014 0.30502 0.44535   1.127979
 Mo 0.75624 0.33843 0.66654   -0.259997
 Mo 0.74376 0.83843 0.83346   -0.259986
 Mo 0.24376 0.66157 0.33347   -0.260049
 Mo 0.25624 0.16157 0.16654   -0.260103
 C 0.9636 0.42419 0.71723   0.231708
 C 0.8094 0.28766 0.77848   0.244428
 C 0.5651 0.41302 0.73463   0.215879
 C 0.5471 0.23423 0.68726   0.242226
 C 0.9109 0.21209 0.65495   0.222928
 C 0.5926 0.31606 0.56687   0.20875
 C 0.961 0.34983 0.58201   0.239001
 C 0.7182 0.47655 0.61851   0.226964
 C 0.5364 0.92419 0.78277   0.231337
 C 0.6906 0.78766 0.72152   0.244307
 C 0.9349 0.91302 0.76537   0.215516
 C 0.9529 0.73423 0.81274   0.2426
 C 0.5891 0.71209 0.84505   0.223249
 C 0.9074 0.81606 0.93313   0.208674
 C 0.539 0.84983 0.91799   0.238969
 C 0.7818 0.97655 0.88149   0.227161
 C 0.0364 0.57581 0.28277   0.231768
 C 0.1906 0.71234 0.22152   0.243981
 C 0.4349 0.58698 0.26537   0.215893
 C 0.4529 0.76577 0.31274   0.242676
 C 0.0891 0.78791 0.34505   0.223343
 C 0.4074 0.68394 0.43313   0.208749
 C 0.039 0.65017 0.41799   0.238993
 C 0.2818 0.52345 0.38149   0.2268
 C 0.4636 0.07581 0.21723   0.231833
 C 0.3094 0.21234 0.27848   0.244024
 C 0.0651 0.08698 0.23463   0.215958
 C 0.0471 0.26577 0.18726   0.242634
 C 0.4109 0.28791 0.15495   0.223292
 C 0.0926 0.18394 0.06687   0.20879
 C 0.461 0.15017 0.08201   0.239102
 C 0.2182 0.02345 0.11851   0.226743
 N 0.0685 0.47507 0.74214   -0.498213
 N 0.833 0.259 0.83758   -0.491226
 N 0.474 0.45356 0.77424   -0.501536
 N 0.4363 0.1794 0.69654   -0.497051
 N 0.0044 0.14764 0.65193   -0.521217
 N 0.504 0.30594 0.51438   -0.48199
 N 0.074 0.35122 0.53784   -0.471555
 N 0.7053 0.55026 0.59385   -0.446308
 N 0.4315 0.97507 0.75786   -0.497784
 N 0.667 0.759 0.66242   -0.491082
 N 0.026 0.95356 0.72576   -0.501098
 N 0.0637 0.6794 0.80346   -0.497474
 N 0.4956 0.64764 0.84807   -0.521626
 N 0.996 0.80594 0.98562   -0.481995
 N 0.426 0.85122 0.96216   -0.471564
 N 0.7947 0.05026 0.90615   -0.446419
 N 0.9315 0.52493 0.25786   -0.498206
 N 0.167 0.741 0.16242   -0.490847
 N 0.526 0.54644 0.22576   -0.501444
 N 0.5637 0.8206 0.30346   -0.497509
 N 0.9956 0.85236 0.34807   -0.52158
 N 0.496 0.69406 0.48562   -0.481754
 N 0.926 0.64878 0.46216   -0.471386
 N 0.2947 0.44974 0.40615   -0.446051
 N 0.5685 0.02493 0.24214   -0.49823
 N 0.333 0.241 0.33758   -0.490784
 N 0.974 0.04644 0.27424   -0.501436
 N 0.9363 0.3206 0.19654   -0.497422
 N 0.5044 0.35236 0.15193   -0.521533
 N 0.004 0.19406 0.01438   -0.481826
 N 0.574 0.14878 0.03784   -0.471482
 N 0.2053 0.94974 0.09385   -0.445969
