{'_ref': 'TBD', '_srcid': 'CAKYAQ_clean', 'submitters': [{'name': 'Dalar Nazarian Jeff Camp and David Sholl', 'email': 'dalar@gatech.edu jcamp6@gatech.edu'}], '_method': 'VASP DFT with PBE;DDEC'}
data_Cu3MoH20C26(S2N3)2
_symmetry_space_group_name_H-M   'P 1'
_cell_length_a   9.99980000
_cell_length_b   17.66400047
_cell_length_c   27.29400000
_cell_angle_alpha   90.00000000
_cell_angle_beta   90.00000000
_cell_angle_gamma   100.51000104
_symmetry_Int_Tables_number   1
_chemical_formula_structural   Cu3MoH20C26(S2N3)2
_chemical_formula_sum   'Cu12 Mo4 H80 C104 S16 N24'
_cell_volume   4740.23240328
_cell_formula_units_Z   4
loop_
 _symmetry_equiv_pos_site_id
 _symmetry_equiv_pos_as_xyz
  1  'x, y, z'
loop_
 _atom_site_label
 _atom_site_fract_x
 _atom_site_fract_y
 _atom_site_fract_z
 _atom_site_charge
 Cu 0.75405 0.17626 0.59216   0.447636
 Cu 0.11531 0.18053 0.54955   0.355041
 Cu 0.05419 0.29837 0.65788   0.336316
 Cu 0.24595 0.32374 0.09216   0.447636
 Cu 0.88469 0.31947 0.04955   0.355041
 Cu 0.94581 0.20163 0.15788   0.336316
 Cu 0.24595 0.82374 0.40784   0.447636
 Cu 0.88469 0.81947 0.45045   0.355041
 Cu 0.94581 0.70163 0.34212   0.336316
 Cu 0.75405 0.67626 0.90784   0.447636
 Cu 0.11531 0.68053 0.95045   0.355041
 Cu 0.05419 0.79837 0.84212   0.336316
 Mo 0.98427 0.14879 0.63556   0.4916
 Mo 0.01573 0.35121 0.13556   0.4916
 Mo 0.01573 0.85121 0.36444   0.4916
 Mo 0.98427 0.64879 0.86444   0.4916
 H 0.1491 0.0179 0.5539   0.067626
 H 0.3107 0.9406 0.5393   0.130355
 H 0.5417 0.1233 0.4739   0.12297
 H 0.3734 0.1933 0.4899   0.062993
 H 0.3278 0.8129 0.7949   0.085582
 H 0.4611 0.887 0.7375   0.132289
 H 0.1336 0.9759 0.6963   0.102953
 H 0.0089 0.8985 0.7545   0.086148
 H 0.3044 0.0828 0.6765   0.100006
 H 0.4594 0.1634 0.628   0.083406
 H 0.6777 0.0025 0.6114   0.061264
 H 0.5304 0.9177 0.6589   0.130612
 H 0.2815 0.3337 0.5167   0.073962
 H 0.2514 0.4431 0.4732   0.136806
 H 0.8688 0.3346 0.4425   0.110511
 H 0.9122 0.2289 0.4843   0.079054
 H 0.1705 0.5511 0.4619   0.121451
 H 0.1176 0.6573 0.4217   0.061088
 H 0.8294 0.5268 0.3466   0.077957
 H 0.8637 0.4192 0.3884   0.132128
 H 0.8509 0.4821 0.0539   0.067626
 H 0.6893 0.5594 0.0393   0.130355
 H 0.4583 0.3767 0.9739   0.12297
 H 0.6266 0.3067 0.9899   0.062993
 H 0.6722 0.6871 0.2949   0.085582
 H 0.5389 0.613 0.2375   0.132289
 H 0.8664 0.5241 0.1963   0.102953
 H 0.9911 0.6015 0.2545   0.086148
 H 0.6956 0.4172 0.1765   0.100006
 H 0.5406 0.3366 0.128   0.083406
 H 0.3223 0.4975 0.1114   0.061264
 H 0.4696 0.5823 0.1589   0.130612
 H 0.7185 0.1663 0.0167   0.073962
 H 0.7486 0.0569 0.9732   0.136806
 H 0.1312 0.1654 0.9425   0.110511
 H 0.0878 0.2711 0.9843   0.079054
 H 0.8295 0.9489 0.9619   0.121451
 H 0.8824 0.8427 0.9217   0.061088
 H 0.1706 0.9732 0.8466   0.077957
 H 0.1363 0.0808 0.8884   0.132128
 H 0.8509 0.9821 0.4461   0.067626
 H 0.6893 0.0594 0.4607   0.130355
 H 0.4583 0.8767 0.5261   0.12297
 H 0.6266 0.8067 0.5101   0.062993
 H 0.6722 0.1871 0.2051   0.085582
 H 0.5389 0.113 0.2625   0.132289
 H 0.8664 0.0241 0.3037   0.102953
 H 0.9911 0.1015 0.2455   0.086148
 H 0.6956 0.9172 0.3235   0.100006
 H 0.5406 0.8366 0.372   0.083406
 H 0.3223 0.9975 0.3886   0.061264
 H 0.4696 0.0823 0.3411   0.130611
 H 0.7185 0.6663 0.4833   0.073962
 H 0.7486 0.5569 0.5268   0.136806
 H 0.1312 0.6654 0.5575   0.110511
 H 0.0878 0.7711 0.5157   0.079054
 H 0.8295 0.4489 0.5381   0.121451
 H 0.8824 0.3427 0.5783   0.061088
 H 0.1706 0.4732 0.6534   0.077957
 H 0.1363 0.5808 0.6116   0.132128
 H 0.1491 0.5179 0.9461   0.067626
 H 0.3107 0.4406 0.9607   0.130355
 H 0.5417 0.6233 0.0261   0.12297
 H 0.3734 0.6933 0.0101   0.062993
 H 0.3278 0.3129 0.7051   0.085582
 H 0.4611 0.387 0.7625   0.132289
 H 0.1336 0.4759 0.8037   0.102953
 H 0.0089 0.3985 0.7455   0.086148
 H 0.3044 0.5828 0.8235   0.100006
 H 0.4594 0.6634 0.872   0.083406
 H 0.6777 0.5025 0.8886   0.061264
 H 0.5304 0.4177 0.8411   0.130611
 H 0.2815 0.8337 0.9833   0.073962
 H 0.2514 0.9431 0.0268   0.136806
 H 0.8688 0.8346 0.0575   0.110511
 H 0.9122 0.7289 0.0157   0.079054
 H 0.1705 0.0511 0.0381   0.121451
 H 0.1176 0.1573 0.0783   0.061088
 H 0.8294 0.0268 0.1534   0.077957
 H 0.8637 0.9192 0.1116   0.132128
 C 0.6369 0.2832 0.5203   0.358343
 C 0.2309 0.0398 0.5375   0.142384
 C 0.3271 0.9928 0.5289   -0.178169
 C 0.4469 0.0238 0.5048   0.085969
 C 0.4617 0.0995 0.4906   -0.185082
 C 0.3605 0.1413 0.5006   0.165768
 C 0.2881 0.8471 0.775   0.143305
 C 0.368 0.8911 0.7407   -0.204984
 C 0.3143 0.9409 0.7109   0.094939
 C 0.1761 0.9432 0.7164   -0.190226
 C 0.1031 0.8971 0.7514   0.130642
 C 0.4029 0.9924 0.676   0.087947
 C 0.3824 0.0653 0.6645   -0.191319
 C 0.4755 0.1132 0.6353   0.157791
 C 0.602 0.0198 0.6257   0.149341
 C 0.5148 0.9687 0.6542   -0.2145
 C 0.1965 0.334 0.5013   0.150244
 C 0.1787 0.4004 0.4758   -0.190371
 C 0.0534 0.4032 0.4542   0.079383
 C 0.9549 0.3365 0.4576   -0.178362
 C 0.9817 0.2734 0.4827   0.141692
 C 0.0253 0.4724 0.429   0.096086
 C 0.0985 0.5446 0.4387   -0.186935
 C 0.0662 0.608 0.4142   0.170724
 C 0.8976 0.5323 0.3712   0.124504
 C 0.92 0.4675 0.395   -0.194349
 C 0.3631 0.2168 0.0203   0.358343
 C 0.7691 0.4602 0.0375   0.142384
 C 0.6729 0.5072 0.0289   -0.178169
 C 0.5531 0.4762 0.0048   0.085969
 C 0.5383 0.4005 0.9906   -0.185082
 C 0.6395 0.3587 0.000599999999999   0.165768
 C 0.7119 0.6529 0.275   0.143305
 C 0.632 0.6089 0.2407   -0.204983
 C 0.6857 0.5591 0.2109   0.094939
 C 0.8239 0.5568 0.2164   -0.190226
 C 0.8969 0.6029 0.2514   0.130642
 C 0.5971 0.5076 0.176   0.087947
 C 0.6176 0.4347 0.1645   -0.191319
 C 0.5245 0.3868 0.1353   0.157791
 C 0.398 0.4802 0.1257   0.149341
 C 0.4852 0.5313 0.1542   -0.2145
 C 0.8035 0.166 0.0013   0.150244
 C 0.8213 0.0996 0.9758   -0.190371
 C 0.9466 0.0968 0.9542   0.079383
 C 0.0451 0.1635 0.9576   -0.178362
 C 0.0183 0.2266 0.9827   0.141692
 C 0.9747 0.0276 0.929   0.096086
 C 0.9015 0.9554 0.9387   -0.186935
 C 0.9338 0.892 0.9142   0.170724
 C 0.1024 0.9677 0.8712   0.124504
 C 0.08 0.0325 0.895   -0.194349
 C 0.3631 0.7168 0.4797   0.358343
 C 0.7691 0.9602 0.4625   0.142384
 C 0.6729 0.0072 0.4711   -0.178169
 C 0.5531 0.9762 0.4952   0.085969
 C 0.5383 0.9005 0.5094   -0.185082
 C 0.6395 0.8587 0.4994   0.165768
 C 0.7119 0.1529 0.225   0.143305
 C 0.632 0.1089 0.2593   -0.204984
 C 0.6857 0.0591 0.2891   0.094939
 C 0.8239 0.0568 0.2836   -0.190226
 C 0.8969 0.1029 0.2486   0.130641
 C 0.5971 0.0076 0.324   0.087947
 C 0.6176 0.9347 0.3355   -0.191319
 C 0.5245 0.8868 0.3647   0.157791
 C 0.398 0.9802 0.3743   0.149341
 C 0.4852 0.0313 0.3458   -0.214499
 C 0.8035 0.666 0.4987   0.150244
 C 0.8213 0.5996 0.5242   -0.190371
 C 0.9466 0.5968 0.5458   0.079383
 C 0.0451 0.6635 0.5424   -0.178362
 C 0.0183 0.7266 0.5173   0.141692
 C 0.9747 0.5276 0.571   0.096086
 C 0.9015 0.4554 0.5613   -0.186935
 C 0.9338 0.392 0.5858   0.170724
 C 0.1024 0.4677 0.6288   0.124504
 C 0.08 0.5325 0.605   -0.194349
 C 0.6369 0.7832 0.9797   0.358343
 C 0.2309 0.5398 0.9625   0.142384
 C 0.3271 0.4928 0.9711   -0.178169
 C 0.4469 0.5238 0.9952   0.085969
 C 0.4617 0.5995 0.0094   -0.185082
 C 0.3605 0.6413 0.9994   0.165768
 C 0.2881 0.3471 0.725   0.143305
 C 0.368 0.3911 0.7593   -0.204983
 C 0.3143 0.4409 0.7891   0.094939
 C 0.1761 0.4432 0.7836   -0.190226
 C 0.1031 0.3971 0.7486   0.130641
 C 0.4029 0.4924 0.824   0.087947
 C 0.3824 0.5653 0.8355   -0.191319
 C 0.4755 0.6132 0.8647   0.157791
 C 0.602 0.5198 0.8743   0.149341
 C 0.5148 0.4687 0.8458   -0.214499
 C 0.1965 0.834 0.9987   0.150244
 C 0.1787 0.9004 0.0242   -0.190371
 C 0.0534 0.9032 0.0458   0.079382
 C 0.9549 0.8365 0.0424   -0.178362
 C 0.9817 0.7734 0.0173   0.141692
 C 0.0253 0.9724 0.071   0.096086
 C 0.0985 0.0446 0.0613   -0.186935
 C 0.0662 0.108 0.0858   0.170724
 C 0.8976 0.0323 0.1288   0.124504
 C 0.92 0.9675 0.105   -0.194349
 S 0.844 0.22417 0.66642   -0.509742
 S 0.19222 0.22288 0.62498   -0.500174
 S 0.90556 0.10606 0.5605   -0.531433
 S 0.5813 0.3383 0.47899   -0.480603
 S 0.156 0.27583 0.16642   -0.509742
 S 0.80778 0.27712 0.12498   -0.500174
 S 0.09444 0.39394 0.0605   -0.531433
 S 0.4187 0.1617 0.97899   -0.480603
 S 0.156 0.77583 0.33358   -0.509742
 S 0.80778 0.77712 0.37502   -0.500174
 S 0.09444 0.89394 0.4395   -0.531433
 S 0.4187 0.6617 0.52101   -0.480603
 S 0.844 0.72417 0.83358   -0.509742
 S 0.19222 0.72288 0.87502   -0.500174
 S 0.90556 0.60606 0.9395   -0.531433
 S 0.5813 0.8383 0.02101   -0.480603
 N 0.2474 0.1132 0.5241   -0.276553
 N 0.156 0.8505 0.7815   -0.281704
 N 0.5876 0.0915 0.6168   -0.302285
 N 0.1001 0.2711 0.5049   -0.274443
 N 0.9679 0.6038 0.3811   -0.278322
 N 0.6755 0.2442 0.5486   -0.519258
 N 0.7526 0.3868 0.0241   -0.276553
 N 0.844 0.6495 0.2815   -0.281704
 N 0.4124 0.4085 0.1168   -0.302285
 N 0.8999 0.2289 0.0049   -0.274443
 N 0.0321 0.8962 0.8811   -0.278322
 N 0.3245 0.2558 0.0486   -0.519258
 N 0.7526 0.8868 0.4759   -0.276553
 N 0.844 0.1495 0.2185   -0.281704
 N 0.4124 0.9085 0.3832   -0.302285
 N 0.8999 0.7289 0.4951   -0.274443
 N 0.0321 0.3962 0.6189   -0.278322
 N 0.3245 0.7558 0.4514   -0.519258
 N 0.2474 0.6132 0.9759   -0.276553
 N 0.156 0.3505 0.7185   -0.281704
 N 0.5876 0.5915 0.8832   -0.302285
 N 0.1001 0.7711 0.9951   -0.274443
 N 0.9679 0.1038 0.1189   -0.278322
 N 0.6755 0.7442 0.9514   -0.519258
