{'_ref': 'TBD', '_srcid': 'CAKYAQ_clean', 'submitters': [{'name': 'Dalar Nazarian Jeff Camp and David Sholl', 'email': 'dalar@gatech.edu jcamp6@gatech.edu'}], '_method': 'VASP DFT with PBE;DDEC'}
data_LaH5C14(NO4)2
_symmetry_space_group_name_H-M   'P 1'
_cell_length_a   12.12000000
_cell_length_b   12.36050026
_cell_length_c   12.80670000
_cell_angle_alpha   90.00000000
_cell_angle_beta   90.00000000
_cell_angle_gamma   114.97399949
_symmetry_Int_Tables_number   1
_chemical_formula_structural   LaH5C14(NO4)2
_chemical_formula_sum   'La4 H20 C56 N8 O32'
_cell_volume   1739.17570956
_cell_formula_units_Z   4
loop_
 _symmetry_equiv_pos_site_id
 _symmetry_equiv_pos_as_xyz
  1  'x, y, z'
loop_
 _atom_site_label
 _atom_site_fract_x
 _atom_site_fract_y
 _atom_site_fract_z
 _atom_site_charge
 La 0.54822 0.8537 0.4552   2.068251
 La 0.45178 0.6463 0.9552   2.068251
 La 0.45178 0.1463 0.5448   2.068249
 La 0.54822 0.3537 0.0448   2.068249
 H 0.6337 0.6678 0.2842   0.410358
 H 0.2027 0.5762 0.1661   0.117204
 H 0.0715 0.7523 0.3531   0.128566
 H 0.0221 0.4533 0.1316   0.120224
 H 0.9054 0.6698 0.2836   0.12114
 H 0.3663 0.8322 0.7842   0.410358
 H 0.7973 0.9238 0.6661   0.117204
 H 0.9285 0.7477 0.8531   0.128566
 H 0.9779 0.0467 0.6316   0.120224
 H 0.0946 0.8302 0.7836   0.12114
 H 0.3663 0.3322 0.7158   0.410358
 H 0.7973 0.4238 0.8339   0.117204
 H 0.9285 0.2477 0.6469   0.128566
 H 0.9779 0.5467 0.8684   0.120224
 H 0.0946 0.3302 0.7164   0.12114
 H 0.6337 0.1678 0.2158   0.410358
 H 0.2027 0.0762 0.3339   0.117204
 H 0.0715 0.2523 0.1469   0.128566
 H 0.0221 0.9533 0.3684   0.120224
 H 0.9054 0.1698 0.2164   0.12114
 C 0.4363 0.6781 0.2354   0.712109
 C 0.2795 0.8932 0.448   0.621845
 C 0.808 0.3049 0.046   0.639977
 C 0.6686 0.5545 0.2334   0.62329
 C 0.325 0.6921 0.2674   0.115795
 C 0.2119 0.6295 0.2202   -0.085496
 C 0.1138 0.6485 0.2555   0.081797
 C 0.1349 0.7347 0.3303   -0.115004
 C 0.25 0.7953 0.3718   0.139121
 C 0.8434 0.4102 0.1205   0.152975
 C 0.9609 0.4754 0.1523   -0.099706
 C 0.9885 0.5749 0.2159   0.081297
 C 0.8918 0.6031 0.2428   -0.113391
 C 0.7774 0.5318 0.2086   0.109482
 C 0.5637 0.8219 0.7354   0.712109
 C 0.7205 0.6068 0.948   0.621846
 C 0.192 0.1951 0.546   0.639977
 C 0.3314 0.9455 0.7334   0.62329
 C 0.675 0.8079 0.7674   0.115795
 C 0.7881 0.8705 0.7202   -0.085496
 C 0.8862 0.8515 0.7555   0.081797
 C 0.8651 0.7653 0.8303   -0.115004
 C 0.75 0.7047 0.8718   0.139121
 C 0.1566 0.0898 0.6205   0.152975
 C 0.0391 0.0246 0.6523   -0.099706
 C 0.0115 0.9251 0.7159   0.081297
 C 0.1082 0.8969 0.7428   -0.11339
 C 0.2226 0.9682 0.7086   0.109482
 C 0.5637 0.3219 0.7646   0.712109
 C 0.7205 0.1068 0.552   0.621845
 C 0.192 0.6951 0.954   0.639978
 C 0.3314 0.4455 0.7666   0.62329
 C 0.675 0.3079 0.7326   0.115795
 C 0.7881 0.3705 0.7798   -0.085496
 C 0.8862 0.3515 0.7445   0.081797
 C 0.8651 0.2653 0.6697   -0.115004
 C 0.75 0.2047 0.6282   0.139121
 C 0.1566 0.5898 0.8795   0.152975
 C 0.0391 0.5246 0.8477   -0.099706
 C 0.0115 0.4251 0.7841   0.081297
 C 0.1082 0.3969 0.7572   -0.113391
 C 0.2226 0.4682 0.7914   0.109482
 C 0.4363 0.1781 0.2646   0.712109
 C 0.2795 0.3932 0.052   0.621846
 C 0.808 0.8049 0.454   0.639978
 C 0.6686 0.0545 0.2666   0.62329
 C 0.325 0.1921 0.2326   0.115795
 C 0.2119 0.1295 0.2798   -0.085496
 C 0.1138 0.1485 0.2445   0.081797
 C 0.1349 0.2347 0.1697   -0.115004
 C 0.25 0.2953 0.1282   0.139121
 C 0.8434 0.9102 0.3795   0.152975
 C 0.9609 0.9754 0.3477   -0.099706
 C 0.9885 0.0749 0.2841   0.081297
 C 0.8918 0.1031 0.2572   -0.11339
 C 0.7774 0.0318 0.2914   0.109482
 N 0.3429 0.77 0.3439   -0.426561
 N 0.7526 0.4371 0.1501   -0.424496
 N 0.6571 0.73 0.8439   -0.426561
 N 0.2474 0.0629 0.6501   -0.424496
 N 0.6571 0.23 0.6561   -0.426561
 N 0.2474 0.5629 0.8499   -0.424496
 N 0.3429 0.27 0.1561   -0.426561
 N 0.7526 0.9371 0.3499   -0.424496
 O 0.521 0.711 0.303   -0.696104
 O 0.44 0.6356 0.1505   -0.662159
 O 0.3819 0.9247 0.4977   -0.777621
 O 0.2137 0.9456 0.4575   -0.523678
 O 0.6989 0.2667 0.0106   -0.739269
 O 0.8835 0.2678 0.0265   -0.57146
 O 0.5668 0.4799 0.2147   -0.541552
 O 0.6962 0.6592 0.2733   -0.466934
 O 0.479 0.789 0.803   -0.696104
 O 0.56 0.8644 0.6505   -0.662159
 O 0.6181 0.5753 0.9977   -0.777621
 O 0.7863 0.5544 0.9575   -0.523678
 O 0.3011 0.2333 0.5106   -0.739269
 O 0.1165 0.2322 0.5265   -0.57146
 O 0.4332 0.0201 0.7147   -0.541552
 O 0.3038 0.8408 0.7733   -0.466934
 O 0.479 0.289 0.697   -0.696104
 O 0.56 0.3644 0.8495   -0.662159
 O 0.6181 0.0753 0.5023   -0.777621
 O 0.7863 0.0544 0.5425   -0.523677
 O 0.3011 0.7333 0.9894   -0.739269
 O 0.1165 0.7322 0.9735   -0.57146
 O 0.4332 0.5201 0.7853   -0.541552
 O 0.3038 0.3408 0.7267   -0.466934
 O 0.521 0.211 0.197   -0.696104
 O 0.44 0.1356 0.3495   -0.662159
 O 0.3819 0.4247 0.0023   -0.777621
 O 0.2137 0.4456 0.0425   -0.523677
 O 0.6989 0.7667 0.4894   -0.739269
 O 0.8835 0.7678 0.4735   -0.57146
 O 0.5668 0.9799 0.2853   -0.541552
 O 0.6962 0.1592 0.2267   -0.466934
