{'_ref': 'TBD', '_srcid': 'CAKYAQ_clean', 'submitters': [{'name': 'Dalar Nazarian Jeff Camp and David Sholl', 'email': 'dalar@gatech.edu jcamp6@gatech.edu'}], '_method': 'VASP DFT with PBE;DDEC'}
data_SmH5C14(NO4)2
_symmetry_space_group_name_H-M   'P 1'
_cell_length_a   12.06480000
_cell_length_b   12.37870024
_cell_length_c   12.51480000
_cell_angle_alpha   90.00000000
_cell_angle_beta   90.00000000
_cell_angle_gamma   115.06900172
_symmetry_Int_Tables_number   1
_chemical_formula_structural   SmH5C14(NO4)2
_chemical_formula_sum   'Sm4 H20 C56 N8 O32'
_cell_volume   1692.97492105
_cell_formula_units_Z   4
loop_
 _symmetry_equiv_pos_site_id
 _symmetry_equiv_pos_as_xyz
  1  'x, y, z'
loop_
 _atom_site_label
 _atom_site_fract_x
 _atom_site_fract_y
 _atom_site_fract_z
 _atom_site_charge
 Sm 0.04033 0.35483 0.55075   2.218611
 Sm 0.95967 0.14517 0.05075   2.218612
 Sm 0.95967 0.64517 0.44925   2.218608
 Sm 0.04033 0.85483 0.94925   2.218608
 H 0.1296 0.1722 0.7176   0.417979
 H 0.5663 0.2488 0.6456   0.127999
 H 0.6995 0.0749 0.8385   0.119198
 H 0.4045 0.1723 0.7177   0.124489
 H 0.5121 0.9478 0.8701   0.120933
 H 0.8704 0.3278 0.2176   0.417979
 H 0.4337 0.2512 0.1456   0.127999
 H 0.3005 0.4251 0.3385   0.119198
 H 0.5955 0.3277 0.2177   0.124489
 H 0.4879 0.5522 0.3701   0.120933
 H 0.8704 0.8278 0.2824   0.417979
 H 0.4337 0.7512 0.3544   0.127999
 H 0.3005 0.9251 0.1615   0.119198
 H 0.5955 0.8277 0.2823   0.124489
 H 0.4879 0.0522 0.1299   0.120933
 H 0.1296 0.6722 0.7824   0.417979
 H 0.5663 0.7488 0.8544   0.127998
 H 0.6995 0.5749 0.6615   0.119198
 H 0.4045 0.6723 0.7823   0.124489
 H 0.5121 0.4478 0.6299   0.120933
 C 0.7758 0.3937 0.5523   0.645495
 C 0.9351 0.1799 0.7728   0.731693
 C 0.1645 0.0592 0.7689   0.629058
 C 0.2916 0.8007 0.9554   0.640064
 C 0.7469 0.2948 0.6294   0.153979
 C 0.6301 0.2322 0.6702   -0.123699
 C 0.6078 0.1454 0.7469   0.085942
 C 0.7087 0.1292 0.7841   -0.08685
 C 0.8215 0.1939 0.7397   0.131496
 C 0.2719 0.0335 0.7922   0.120009
 C 0.3886 0.1045 0.7585   -0.112528
 C 0.4822 0.0733 0.7861   0.08527
 C 0.4519 0.9717 0.8493   -0.097826
 C 0.3323 0.9071 0.8807   0.164285
 C 0.2242 0.1063 0.0523   0.645495
 C 0.0649 0.3201 0.2728   0.731693
 C 0.8355 0.4408 0.2689   0.629058
 C 0.7084 0.6993 0.4554   0.640064
 C 0.2531 0.2052 0.1294   0.153979
 C 0.3699 0.2678 0.1702   -0.123699
 C 0.3922 0.3546 0.2469   0.085942
 C 0.2913 0.3708 0.2841   -0.08685
 C 0.1785 0.3061 0.2397   0.131496
 C 0.7281 0.4665 0.2922   0.120009
 C 0.6114 0.3955 0.2585   -0.112527
 C 0.5178 0.4267 0.2861   0.085269
 C 0.5481 0.5283 0.3493   -0.097826
 C 0.6677 0.5929 0.3807   0.164285
 C 0.2242 0.6063 0.4477   0.645495
 C 0.0649 0.8201 0.2272   0.731692
 C 0.8355 0.9408 0.2311   0.629058
 C 0.7084 0.1993 0.0446   0.640064
 C 0.2531 0.7052 0.3706   0.153977
 C 0.3699 0.7678 0.3298   -0.123696
 C 0.3922 0.8546 0.2531   0.085943
 C 0.2913 0.8708 0.2159   -0.086852
 C 0.1785 0.8061 0.2603   0.131496
 C 0.7281 0.9665 0.2078   0.120009
 C 0.6114 0.8955 0.2415   -0.112526
 C 0.5178 0.9267 0.2139   0.085271
 C 0.5481 0.0283 0.1507   -0.097826
 C 0.6677 0.0929 0.1193   0.164285
 C 0.7758 0.8937 0.9477   0.645495
 C 0.9351 0.6799 0.7272   0.731692
 C 0.1645 0.5592 0.7311   0.629058
 C 0.2916 0.3007 0.5446   0.640064
 C 0.7469 0.7948 0.8706   0.153977
 C 0.6301 0.7322 0.8298   -0.123696
 C 0.6078 0.6454 0.7531   0.085943
 C 0.7087 0.6292 0.7159   -0.086852
 C 0.8215 0.6939 0.7603   0.131496
 C 0.2719 0.5335 0.7078   0.120009
 C 0.3886 0.6045 0.7415   -0.112526
 C 0.4822 0.5733 0.7139   0.08527
 C 0.4519 0.4717 0.6507   -0.097826
 C 0.3323 0.4071 0.6193   0.164285
 N 0.8412 0.2728 0.6602   -0.479191
 N 0.2428 0.9369 0.8518   -0.470111
 N 0.1588 0.2272 0.1602   -0.479191
 N 0.7572 0.5631 0.3518   -0.470111
 N 0.1588 0.7272 0.3398   -0.479191
 N 0.7572 0.0631 0.1482   -0.470111
 N 0.8412 0.7728 0.8398   -0.479191
 N 0.2428 0.4369 0.6482   -0.470111
 O 0.8813 0.4292 0.5047   -0.846991
 O 0.7053 0.4389 0.5405   -0.514267
 O 0.0211 0.2195 0.704   -0.72538
 O 0.9387 0.1357 0.8598   -0.698417
 O 0.0609 0.9845 0.7852   -0.557934
 O 0.1925 0.1649 0.7318   -0.465542
 O 0.1814 0.7631 0.9877   -0.757081
 O 0.3663 0.7614 0.9778   -0.580683
 O 0.1187 0.0708 0.0047   -0.846991
 O 0.2947 0.0611 0.0405   -0.514267
 O 0.9789 0.2805 0.204   -0.72538
 O 0.0613 0.3643 0.3598   -0.698417
 O 0.9391 0.5155 0.2852   -0.557934
 O 0.8075 0.3351 0.2318   -0.465542
 O 0.8186 0.7369 0.4877   -0.757081
 O 0.6337 0.7386 0.4778   -0.580683
 O 0.1187 0.5708 0.4953   -0.846991
 O 0.2947 0.5611 0.4595   -0.514266
 O 0.9789 0.7805 0.296   -0.72538
 O 0.0613 0.8643 0.1402   -0.698417
 O 0.9391 0.0155 0.2148   -0.557934
 O 0.8075 0.8351 0.2682   -0.465542
 O 0.8186 0.2369 0.0123   -0.757081
 O 0.6337 0.2386 0.0222   -0.580682
 O 0.8813 0.9292 0.9953   -0.846991
 O 0.7053 0.9389 0.9595   -0.514266
 O 0.0211 0.7195 0.796   -0.72538
 O 0.9387 0.6357 0.6402   -0.698417
 O 0.0609 0.4845 0.7148   -0.557934
 O 0.1925 0.6649 0.7682   -0.465542
 O 0.1814 0.2631 0.5123   -0.757081
 O 0.3663 0.2614 0.5222   -0.580682
