{'_ref': 'TBD', '_srcid': 'CAKYAQ_clean', 'submitters': [{'name': 'Dalar Nazarian Jeff Camp and David Sholl', 'email': 'dalar@gatech.edu jcamp6@gatech.edu'}], '_method': 'VASP DFT with PBE;DDEC'}
data_Dy2H6C21(NO4)3
_symmetry_space_group_name_H-M   'P 1'
_cell_length_a   12.10250040
_cell_length_b   12.68049991
_cell_length_c   21.69500000
_cell_angle_alpha   82.75900034
_cell_angle_beta   74.68499859
_cell_angle_gamma   61.49670181
_symmetry_Int_Tables_number   1
_chemical_formula_structural   Dy2H6C21(NO4)3
_chemical_formula_sum   'Dy8 H24 C84 N12 O48'
_cell_volume   2821.97412975
_cell_formula_units_Z   4
loop_
 _symmetry_equiv_pos_site_id
 _symmetry_equiv_pos_as_xyz
  1  'x, y, z'
loop_
 _atom_site_label
 _atom_site_fract_x
 _atom_site_fract_y
 _atom_site_fract_z
 _atom_site_charge
 Dy 0.50849 0.26034 0.47429   2.29597
 Dy 0.23117 0.26034 0.02571   2.295708
 Dy 0.49151 0.73966 0.52571   2.29597
 Dy 0.76883 0.73966 0.97429   2.295708
 Dy 0.75306 0.49388 0.25   2.122927
 Dy 0.24694 0.50612 0.75   2.122927
 Dy 0.21336 0.57328 0.25   2.194944
 Dy 0.78664 0.42672 0.75   2.194944
 H 0.9001 0.1286 0.4147   0.135653
 H 0.1207 0.3006 0.3813   0.128076
 H 0.1064 0.9594 0.4055   0.119474
 H 0.1685 0.196 0.4815   0.130536
 H 0.4714 0.1202 0.3376   0.145549
 H 0.4747 0.9422 0.3462   0.140299
 H 0.9713 0.1286 0.0853   0.135644
 H 0.5787 0.3006 0.1187   0.129452
 H 0.9342 0.9594 0.0945   0.118053
 H 0.6355 0.196 0.0185   0.130478
 H 0.4084 0.1202 0.1624   0.144804
 H 0.5831 0.9422 0.1538   0.140134
 H 0.0999 0.8714 0.5853   0.135653
 H 0.8793 0.6994 0.6187   0.128076
 H 0.8936 0.0406 0.5945   0.119474
 H 0.8315 0.804 0.5185   0.130536
 H 0.5286 0.8798 0.6624   0.145549
 H 0.5253 0.0578 0.6538   0.140299
 H 0.0287 0.8714 0.9147   0.135644
 H 0.4213 0.6994 0.8813   0.129452
 H 0.0658 0.0406 0.9055   0.118053
 H 0.3645 0.804 0.9815   0.130478
 H 0.5916 0.8798 0.8376   0.144804
 H 0.4169 0.0578 0.8462   0.140134
 C 0.3536 0.3628 0.3521   0.760649
 C 0.5823 0.6992 0.3618   0.71285
 C 0.7221 0.2844 0.3469   0.68614
 C 0.843 0.2782 0.3592   0.144217
 C 0.9203 0.1906 0.3952   -0.1255
 C 0.0302 0.195 0.4024   0.088791
 C 0.0504 0.292 0.3754   -0.140666
 C 0.9674 0.3748 0.3402   0.144038
 C 0.9833 0.4808 0.3065   0.730438
 C 0.2755 0.757 0.456   0.659377
 C 0.2397 0.8884 0.459   0.153453
 C 0.1493 0.9782 0.43   -0.176216
 C 0.1207 0.0974 0.4365   0.08676
 C 0.1873 0.1164 0.4736   -0.171174
 C 0.2802 0.0208 0.499   0.204149
 C 0.3796 0.0302 0.5262   0.606618
 C 0.3737 0.2856 0.2998   0.125839
 C 0.4376 0.1612 0.3018   -0.100911
 C 0.5809 0.778 0.304   0.144627
 C 0.5175 0.9018 0.3063   -0.132196
 C 0.2836 0.3628 0.1479   0.761655
 C 0.7185 0.6992 0.1382   0.715353
 C 0.9935 0.2844 0.1531   0.682759
 C 0.8788 0.2782 0.1408   0.144546
 C 0.8891 0.1906 0.1048   -0.126713
 C 0.7748 0.195 0.0976   0.092159
 C 0.6576 0.292 0.1246   -0.143232
 C 0.6578 0.3748 0.1598   0.143257
 C 0.5359 0.4808 0.1935   0.7265
 C 0.9675 0.757 0.044   0.661291
 C 0.8719 0.8884 0.041   0.153126
 C 0.8725 0.9782 0.07   -0.174212
 C 0.7819 0.0974 0.0635   0.086061
 C 0.6963 0.1164 0.0264   -0.171647
 C 0.699 0.0208 0.000999999999998   0.204155
 C 0.5902 0.0302 0.9738   0.606194
 C 0.3407 0.2856 0.2002   0.125003
 C 0.4012 0.1612 0.1982   -0.100091
 C 0.6411 0.778 0.196   0.143672
 C 0.5807 0.9018 0.1937   -0.131842
 C 0.6464 0.6372 0.6479   0.760649
 C 0.4177 0.3008 0.6382   0.71285
 C 0.2779 0.7156 0.6531   0.68614
 C 0.157 0.7218 0.6408   0.144217
 C 0.0797 0.8094 0.6048   -0.1255
 C 0.9698 0.805 0.5976   0.088791
 C 0.9496 0.708 0.6246   -0.140666
 C 0.0326 0.6252 0.6598   0.144038
 C 0.0167 0.5192 0.6935   0.730438
 C 0.7245 0.243 0.544   0.659377
 C 0.7603 0.1116 0.541   0.153453
 C 0.8507 0.0218 0.57   -0.176216
 C 0.8793 0.9026 0.5635   0.08676
 C 0.8127 0.8836 0.5264   -0.171174
 C 0.7198 0.9792 0.501   0.204149
 C 0.6204 0.9698 0.4738   0.606618
 C 0.6263 0.7144 0.7002   0.125839
 C 0.5624 0.8388 0.6982   -0.100911
 C 0.4191 0.222 0.696   0.144627
 C 0.4825 0.0982 0.6937   -0.132196
 C 0.7164 0.6372 0.8521   0.761655
 C 0.2815 0.3008 0.8618   0.715353
 C 0.0065 0.7156 0.8469   0.682759
 C 0.1212 0.7218 0.8592   0.144546
 C 0.1109 0.8094 0.8952   -0.126713
 C 0.2252 0.805 0.9024   0.092159
 C 0.3424 0.708 0.8754   -0.143232
 C 0.3422 0.6252 0.8402   0.143257
 C 0.4641 0.5192 0.8065   0.7265
 C 0.0325 0.243 0.956   0.66129
 C 0.1281 0.1116 0.959   0.153126
 C 0.1275 0.0218 0.93   -0.174213
 C 0.2181 0.9026 0.9365   0.08606
 C 0.3037 0.8836 0.9736   -0.171647
 C 0.301 0.9792 0.999   0.204155
 C 0.4098 0.9698 0.0262   0.606193
 C 0.6593 0.7144 0.7998   0.125003
 C 0.5988 0.8388 0.8018   -0.100091
 C 0.3589 0.222 0.804   0.143672
 C 0.4193 0.0982 0.8063   -0.131842
 C 0.451 0.098 0.25   0.073001
 C 0.5165 0.967 0.25   0.074188
 C 0.549 0.902 0.75   0.073001
 C 0.4835 0.033 0.75   0.074188
 N 0.867 0.3674 0.3315   -0.423773
 N 0.3007 0.9116 0.4936   -0.465881
 N 0.7656 0.3674 0.1685   -0.422109
 N 0.7877 0.9116 0.0064   -0.466323
 N 0.133 0.6326 0.6685   -0.423773
 N 0.6993 0.0884 0.5064   -0.465881
 N 0.2344 0.6326 0.8315   -0.422109
 N 0.2123 0.0884 0.9936   -0.466323
 N 0.3276 0.3448 0.25   -0.441808
 N 0.6419 0.7162 0.25   -0.422043
 N 0.6724 0.6552 0.75   -0.441808
 N 0.3581 0.2838 0.75   -0.422043
 O 0.681 0.3504 0.3016   -0.656903
 O 0.6742 0.2218 0.3813   -0.709912
 O 0.8998 0.5484 0.2753   -0.694041
 O 0.0764 0.4938 0.3109   -0.769245
 O 0.353 0.6852 0.4899   -0.774493
 O 0.2275 0.725 0.4231   -0.614057
 O 0.3965 0.9536 0.5751   -0.609905
 O 0.4336 0.1048 0.502   -0.693883
 O 0.3054 0.4746 0.3422   -0.676794
 O 0.3818 0.3096 0.4029   -0.775053
 O 0.6294 0.588 0.3525   -0.679527
 O 0.5357 0.7518 0.4141   -0.753944
 O 0.9686 0.3504 0.1984   -0.654471
 O 0.104 0.2218 0.1187   -0.709234
 O 0.5518 0.5484 0.2247   -0.691917
 O 0.4298 0.4938 0.1891   -0.767972
 O 0.9618 0.6852 0.0101   -0.776846
 O 0.0475 0.725 0.0769   -0.613202
 O 0.6499 0.9536 0.9249   -0.609814
 O 0.4616 0.1048 0.998   -0.693266
 O 0.22 0.4746 0.1578   -0.677668
 O 0.3086 0.3096 0.0971   -0.774875
 O 0.7826 0.588 0.1475   -0.680188
 O 0.7125 0.7518 0.0859   -0.755019
 O 0.319 0.6496 0.6984   -0.656903
 O 0.3258 0.7782 0.6187   -0.709912
 O 0.1002 0.4516 0.7247   -0.694041
 O 0.9236 0.5062 0.6891   -0.769245
 O 0.647 0.3148 0.5101   -0.774493
 O 0.7725 0.275 0.5769   -0.614057
 O 0.6035 0.0464 0.4249   -0.609905
 O 0.5664 0.8952 0.498   -0.693883
 O 0.6946 0.5254 0.6578   -0.676794
 O 0.6182 0.6904 0.5971   -0.775053
 O 0.3706 0.412 0.6475   -0.679527
 O 0.4643 0.2482 0.5859   -0.753944
 O 0.0314 0.6496 0.8016   -0.654471
 O 0.896 0.7782 0.8813   -0.709234
 O 0.4482 0.4516 0.7753   -0.691917
 O 0.5702 0.5062 0.8109   -0.767972
 O 0.0382 0.3148 0.9899   -0.776846
 O 0.9525 0.275 0.9231   -0.613202
 O 0.3501 0.0464 0.0751   -0.609815
 O 0.5384 0.8952 0.002   -0.693266
 O 0.78 0.5254 0.8422   -0.677668
 O 0.6914 0.6904 0.9029   -0.774875
 O 0.2174 0.412 0.8525   -0.680188
 O 0.2875 0.2482 0.9141   -0.755019
