{'_ref': 'TBD', '_srcid': 'CAKYAQ_clean', 'submitters': [{'name': 'Dalar Nazarian Jeff Camp and David Sholl', 'email': 'dalar@gatech.edu jcamp6@gatech.edu'}], '_method': 'VASP DFT with PBE;DDEC'}
data_CuH7C5NO4
_symmetry_space_group_name_H-M   'P 1'
_cell_length_a   7.22550000
_cell_length_b   10.30530000
_cell_length_c   11.04990000
_cell_angle_alpha   90.00000000
_cell_angle_beta   90.00000000
_cell_angle_gamma   90.00000000
_symmetry_Int_Tables_number   1
_chemical_formula_structural   CuH7C5NO4
_chemical_formula_sum   'Cu4 H28 C20 N4 O16'
_cell_volume   822.785997813
_cell_formula_units_Z   4
loop_
 _symmetry_equiv_pos_site_id
 _symmetry_equiv_pos_as_xyz
  1  'x, y, z'
loop_
 _atom_site_label
 _atom_site_fract_x
 _atom_site_fract_y
 _atom_site_fract_z
 _atom_site_charge
 Cu 0.10066 0.9332 0.52934   0.831537
 Cu 0.39934 0.0668 0.02934   0.831537
 Cu 0.89934 0.4332 0.97066   0.831537
 Cu 0.60066 0.5668 0.47066   0.831537
 H 0.162 0.728 0.2788   0.094256
 H 0.2146 0.9495 0.3021   0.342131
 H 0.3006 0.8501 0.3735   0.322267
 H 0.9008 0.7601 0.1695   0.093221
 H 0.0086 0.8792 0.1541   0.084341
 H 0.7123 0.8688 0.3113   0.13239
 H 0.8355 0.0057 0.3063   0.121737
 H 0.338 0.272 0.7788   0.094256
 H 0.2854 0.0505 0.8021   0.342131
 H 0.1994 0.1499 0.8735   0.322267
 H 0.5992 0.2399 0.6695   0.093221
 H 0.4914 0.1208 0.6541   0.084341
 H 0.7877 0.1312 0.8113   0.13239
 H 0.6645 0.9943 0.8063   0.121737
 H 0.838 0.228 0.2212   0.094258
 H 0.7854 0.4495 0.1979   0.342132
 H 0.6994 0.3501 0.1265   0.322267
 H 0.0992 0.2601 0.3305   0.093222
 H 0.9914 0.3792 0.3459   0.084341
 H 0.2877 0.3688 0.1887   0.13239
 H 0.1645 0.5057 0.1937   0.121739
 H 0.662 0.772 0.7212   0.094258
 H 0.7146 0.5505 0.6979   0.342132
 H 0.8006 0.6499 0.6265   0.322267
 H 0.4008 0.7399 0.8305   0.093222
 H 0.5086 0.6208 0.8459   0.084341
 H 0.2123 0.6312 0.6887   0.13239
 H 0.3355 0.4943 0.6937   0.121739
 C 0.9719 0.7153 0.4098   0.628702
 C 0.0789 0.7843 0.311   0.048735
 C 0.9491 0.8312 0.2133   -0.104756
 C 0.7932 0.9186 0.2569   -0.337459
 C 0.6726 0.9691 0.1549   0.685048
 C 0.5281 0.2847 0.9098   0.628702
 C 0.4211 0.2157 0.811   0.048735
 C 0.5509 0.1688 0.7133   -0.104756
 C 0.7068 0.0814 0.7569   -0.337459
 C 0.8274 0.0309 0.6549   0.685049
 C 0.0281 0.2153 0.0902   0.628703
 C 0.9211 0.2843 0.189   0.048735
 C 0.0509 0.3312 0.2867   -0.104757
 C 0.2068 0.4186 0.2431   -0.33746
 C 0.3274 0.4691 0.3451   0.685049
 C 0.4719 0.7847 0.5902   0.628703
 C 0.5789 0.7157 0.689   0.048735
 C 0.4491 0.6688 0.7867   -0.104757
 C 0.2932 0.5814 0.7431   -0.33746
 C 0.1726 0.5309 0.8451   0.685049
 N 0.19 0.8916 0.3625   -0.679376
 N 0.31 0.1084 0.8625   -0.679376
 N 0.81 0.3916 0.1375   -0.679376
 N 0.69 0.6084 0.6375   -0.679376
 O 0.9801 0.7621 0.517   -0.553237
 O 0.8759 0.6206 0.3805   -0.566525
 O 0.5253 0.029 0.1846   -0.564771
 O 0.7138 0.9491 0.0471   -0.578239
 O 0.5199 0.2379 0.017   -0.553238
 O 0.6241 0.3794 0.8805   -0.566525
 O 0.9747 0.971 0.6846   -0.564773
 O 0.7862 0.0509 0.5471   -0.578241
 O 0.0199 0.2621 0.983   -0.553237
 O 0.1241 0.1206 0.1195   -0.566528
 O 0.4747 0.529 0.3154   -0.564771
 O 0.2862 0.4491 0.4529   -0.578241
 O 0.4801 0.7379 0.483   -0.553238
 O 0.3759 0.8794 0.6195   -0.566528
 O 0.0253 0.471 0.8154   -0.564773
 O 0.2138 0.5509 0.9529   -0.578243
