{'_ref': 'TBD', '_srcid': 'CAKYAQ_clean', 'submitters': [{'name': 'Dalar Nazarian Jeff Camp and David Sholl', 'email': 'dalar@gatech.edu jcamp6@gatech.edu'}], '_method': 'VASP DFT with PBE;DDEC'}
data_CuH7C5NO4
_symmetry_space_group_name_H-M   'P 1'
_cell_length_a   7.23200000
_cell_length_b   10.31100000
_cell_length_c   11.05800000
_cell_angle_alpha   90.00000000
_cell_angle_beta   90.00000000
_cell_angle_gamma   90.00000000
_symmetry_Int_Tables_number   1
_chemical_formula_structural   CuH7C5NO4
_chemical_formula_sum   'Cu4 H28 C20 N4 O16'
_cell_volume   824.585682816
_cell_formula_units_Z   4
loop_
 _symmetry_equiv_pos_site_id
 _symmetry_equiv_pos_as_xyz
  1  'x, y, z'
loop_
 _atom_site_label
 _atom_site_fract_x
 _atom_site_fract_y
 _atom_site_fract_z
 _atom_site_charge
 Cu 0.39969 0.56684 0.52913   0.815447
 Cu 0.10031 0.43316 0.02913   0.815447
 Cu 0.60031 0.06684 0.97087   0.815448
 Cu 0.89969 0.93316 0.47087   0.815448
 H 0.1658 0.2214 0.7739   0.103411
 H 0.3104 0.3672 0.8661   0.338049
 H 0.1819 0.4615 0.8154   0.328118
 H 0.0203 0.3799 0.6518   0.089357
 H 0.8963 0.2571 0.6709   0.092557
 H 0.8443 0.491 0.8007   0.118754
 H 0.7164 0.3688 0.8129   0.133052
 H 0.3342 0.7786 0.2739   0.103411
 H 0.1896 0.6328 0.3661   0.338049
 H 0.3181 0.5385 0.3154   0.328118
 H 0.4797 0.6201 0.1518   0.089357
 H 0.6037 0.7429 0.1709   0.092557
 H 0.6557 0.509 0.3007   0.118754
 H 0.7836 0.6312 0.3129   0.133052
 H 0.8342 0.7214 0.7261   0.103412
 H 0.6896 0.8672 0.6339   0.33805
 H 0.8181 0.9615 0.6846   0.328122
 H 0.9797 0.8799 0.8482   0.089358
 H 0.1037 0.7571 0.8291   0.092562
 H 0.1557 0.991 0.6993   0.118756
 H 0.2836 0.8688 0.6871   0.133052
 H 0.6658 0.2786 0.2261   0.103412
 H 0.8104 0.1328 0.1339   0.33805
 H 0.6819 0.0385 0.1846   0.328122
 H 0.5203 0.1201 0.3482   0.089358
 H 0.3963 0.2429 0.3291   0.092562
 H 0.3443 0.009 0.1993   0.118756
 H 0.2164 0.1312 0.1871   0.133052
 C 0.9704 0.215 0.9116   0.624984
 C 0.0805 0.2843 0.8099   0.037335
 C 0.9494 0.3318 0.7113   -0.12926
 C 0.7924 0.418 0.757   -0.315827
 C 0.6725 0.468 0.6549   0.677762
 C 0.5296 0.785 0.4116   0.624985
 C 0.4195 0.7157 0.3099   0.037335
 C 0.5506 0.6682 0.2113   -0.12926
 C 0.7076 0.582 0.257   -0.315827
 C 0.8275 0.532 0.1549   0.677763
 C 0.0296 0.715 0.5884   0.624985
 C 0.9195 0.7843 0.6901   0.037335
 C 0.0506 0.8318 0.7887   -0.129262
 C 0.2076 0.918 0.743   -0.315827
 C 0.3275 0.968 0.8451   0.677763
 C 0.4704 0.285 0.0884   0.624985
 C 0.5805 0.2157 0.1901   0.037335
 C 0.4494 0.1682 0.2887   -0.129262
 C 0.2924 0.082 0.243   -0.315827
 C 0.1725 0.032 0.3451   0.677763
 N 0.1907 0.3908 0.8627   -0.658768
 N 0.3093 0.6092 0.3627   -0.658767
 N 0.8093 0.8908 0.6373   -0.658769
 N 0.6907 0.1092 0.1373   -0.658769
 O 0.8745 0.121 0.8809   -0.567766
 O 0.9816 0.2619 0.0169   -0.546513
 O 0.7148 0.4494 0.5461   -0.578679
 O 0.5241 0.5285 0.6838   -0.562017
 O 0.6255 0.879 0.3809   -0.567766
 O 0.5184 0.7381 0.5169   -0.546514
 O 0.7852 0.5506 0.0461   -0.578681
 O 0.9759 0.4715 0.1838   -0.562019
 O 0.1255 0.621 0.6191   -0.567768
 O 0.0184 0.7619 0.4831   -0.546513
 O 0.2852 0.9494 0.9539   -0.57868
 O 0.4759 0.0285 0.8162   -0.562017
 O 0.3745 0.379 0.1191   -0.567768
 O 0.4816 0.2381 0.9831   -0.546514
 O 0.2148 0.0506 0.4539   -0.578683
 O 0.0241 0.9715 0.3162   -0.562019
