{'_ref': 'TBD', '_srcid': 'CAKYAQ_clean', 'submitters': [{'name': 'Dalar Nazarian Jeff Camp and David Sholl', 'email': 'dalar@gatech.edu jcamp6@gatech.edu'}], '_method': 'VASP DFT with PBE;DDEC'}
data_CuH6(C3N2)2
_symmetry_space_group_name_H-M   'P 1'
_cell_length_a   5.38700018
_cell_length_b   16.01210002
_cell_length_c   16.01210000
_cell_angle_alpha   118.75959879
_cell_angle_beta   96.43890387
_cell_angle_gamma   96.43889658
_symmetry_Int_Tables_number   1
_chemical_formula_structural   CuH6(C3N2)2
_chemical_formula_sum   'Cu6 H36 C36 N24'
_cell_volume   1181.07595294
_cell_formula_units_Z   6
loop_
 _symmetry_equiv_pos_site_id
 _symmetry_equiv_pos_as_xyz
  1  'x, y, z'
loop_
 _atom_site_label
 _atom_site_fract_x
 _atom_site_fract_y
 _atom_site_fract_z
 _atom_site_charge
 Cu 0.81654 0.21408 0.42774   0.658354
 Cu 0.3888 0.57226 0.78634   0.658283
 Cu 0.60246 0.21366 0.78592   0.657839
 Cu 0.18346 0.78592 0.57226   0.658354
 Cu 0.6112 0.42774 0.21366   0.658283
 Cu 0.39754 0.78634 0.21408   0.657839
 H 0.59193 0.02357 0.42144   0.106925
 H 0.9701 0.05874 0.21014   0.104463
 H 0.7723 0.88241 0.12722   0.101242
 H 0.51697 0.25558 0.59884   0.108414
 H 0.10906 0.08344 0.50854   0.103293
 H 0.00708 0.07634 0.65383   0.099424
 H 0.17048 0.57856 0.60213   0.107029
 H 0.75996 0.78986 0.8486   0.104635
 H 0.64508 0.87278 0.7552   0.101032
 H 0.91813 0.40116 0.65675   0.108033
 H 0.60053 0.49146 0.57491   0.103743
 H 0.35326 0.34617 0.42251   0.099106
 H 0.56835 0.39787 0.97643   0.106682
 H 0.91136 0.1514 0.94126   0.10427
 H 0.88988 0.2448 0.11759   0.100982
 H 0.26139 0.34325 0.74442   0.108719
 H 0.02562 0.42509 0.91656   0.104131
 H 0.93074 0.57749 0.92366   0.098892
 H 0.40807 0.97643 0.57856   0.106925
 H 0.0299 0.94126 0.78986   0.104468
 H 0.2277 0.11759 0.87278   0.101243
 H 0.48303 0.74442 0.40116   0.108414
 H 0.89094 0.91656 0.49146   0.103293
 H 0.99292 0.92366 0.34617   0.099423
 H 0.82952 0.42144 0.39787   0.107029
 H 0.24004 0.21014 0.1514   0.10464
 H 0.35492 0.12722 0.2448   0.101034
 H 0.08187 0.59884 0.34325   0.108033
 H 0.39947 0.50854 0.42509   0.103743
 H 0.64674 0.65383 0.57749   0.099105
 H 0.43165 0.60213 0.02357   0.106682
 H 0.08864 0.8486 0.05874   0.104274
 H 0.11012 0.7552 0.88241   0.100983
 H 0.73861 0.65675 0.25558   0.108719
 H 0.97438 0.57491 0.08344   0.104131
 H 0.06926 0.42251 0.07634   0.098891
 C 0.64726 0.00493 0.34865   0.155987
 C 0.85377 0.02959 0.24902   -0.044557
 C 0.7359 0.93476 0.20204   -0.051091
 C 0.66559 0.21096 0.60111   0.114736
 C 0.9602 0.12392 0.54808   -0.055895
 C 0.90937 0.122 0.62851   -0.05297
 C 0.29861 0.65135 0.65628   0.155557
 C 0.60475 0.75098 0.78057   -0.045955
 C 0.53386 0.79796 0.73272   -0.049962
 C 0.06448 0.39889 0.60985   0.114815
 C 0.41212 0.45192 0.57584   -0.05581
 C 0.28086 0.37149 0.49349   -0.05308
 C 0.64233 0.34372 0.99507   0.156156
 C 0.82418 0.21943 0.97041   -0.045279
 C 0.80114 0.26728 0.06524   -0.050354
 C 0.45463 0.39015 0.78904   0.113495
 C 0.83628 0.42416 0.87608   -0.058309
 C 0.78737 0.50651 0.878   -0.05146
 C 0.35274 0.99507 0.65135   0.155987
 C 0.14623 0.97041 0.75098   -0.04456
 C 0.2641 0.06524 0.79796   -0.051093
 C 0.33441 0.78904 0.39889   0.114736
 C 0.0398 0.87608 0.45192   -0.055895
 C 0.09063 0.878 0.37149   -0.05297
 C 0.70139 0.34865 0.34372   0.155557
 C 0.39525 0.24902 0.21943   -0.045958
 C 0.46614 0.20204 0.26728   -0.049964
 C 0.93552 0.60111 0.39015   0.114815
 C 0.58788 0.54808 0.42416   -0.05581
 C 0.71914 0.62851 0.50651   -0.05308
 C 0.35767 0.65628 0.00493   0.156156
 C 0.17582 0.78057 0.02959   -0.045282
 C 0.19886 0.73272 0.93476   -0.050356
 C 0.54537 0.60985 0.21096   0.113495
 C 0.16372 0.57584 0.12392   -0.058309
 C 0.21263 0.49349 0.122   -0.05146
 N 0.80223 0.07263 0.34026   -0.3487
 N 0.58732 0.92252 0.26024   -0.359965
 N 0.80871 0.17861 0.53092   -0.3223
 N 0.73778 0.18018 0.66426   -0.31729
 N 0.46197 0.65974 0.73237   -0.347433
 N 0.32708 0.73976 0.66228   -0.360443
 N 0.27779 0.46908 0.64769   -0.322708
 N 0.07352 0.33574 0.51592   -0.316703
 N 0.7296 0.26763 0.92737   -0.348412
 N 0.6648 0.33772 0.07748   -0.359859
 N 0.6301 0.35231 0.82139   -0.320393
 N 0.5576 0.48408 0.81982   -0.31731
 N 0.19777 0.92737 0.65974   -0.348699
 N 0.41268 0.07748 0.73976   -0.359964
 N 0.19129 0.82139 0.46908   -0.3223
 N 0.26222 0.81982 0.33574   -0.31729
 N 0.53803 0.34026 0.26763   -0.347432
 N 0.67292 0.26024 0.33772   -0.360442
 N 0.72221 0.53092 0.35231   -0.322708
 N 0.92648 0.66426 0.48408   -0.316703
 N 0.2704 0.73237 0.07263   -0.348412
 N 0.3352 0.66228 0.92252   -0.359858
 N 0.3699 0.64769 0.17861   -0.320393
 N 0.4424 0.51592 0.18018   -0.31731
