{'_ref': 'TBD', '_srcid': 'CAKYAQ_clean', 'submitters': [{'name': 'Dalar Nazarian Jeff Camp and David Sholl', 'email': 'dalar@gatech.edu jcamp6@gatech.edu'}], '_method': 'VASP DFT with PBE;DDEC'}
data_Dy2H12C15(NO2)6
_symmetry_space_group_name_H-M   'P 1'
_cell_length_a   10.56209996
_cell_length_b   10.56209988
_cell_length_c   14.80200000
_cell_angle_alpha   90.59679912
_cell_angle_beta   90.59679911
_cell_angle_gamma   105.76099812
_symmetry_Int_Tables_number   1
_chemical_formula_structural   Dy2H12C15(NO2)6
_chemical_formula_sum   'Dy4 H24 C30 N12 O24'
_cell_volume   1588.96110067
_cell_formula_units_Z   2
loop_
 _symmetry_equiv_pos_site_id
 _symmetry_equiv_pos_as_xyz
  1  'x, y, z'
loop_
 _atom_site_label
 _atom_site_fract_x
 _atom_site_fract_y
 _atom_site_fract_z
 _atom_site_charge
 Dy 0.82357 0.42673 0.44291   2.290686
 Dy 0.57327 0.17643 0.05709   2.290687
 Dy 0.17643 0.57327 0.55709   2.290686
 Dy 0.42673 0.82357 0.94291   2.290686
 H 0.947 0.3534 0.7456   0.133477
 H 0.939 0.2092 0.7136   0.125832
 H 0.8611 0.7933 0.6999   0.131414
 H 0.8877 0.6753 0.7528   0.15006
 H 0.6564 0.802 0.6701   0.126779
 H 0.5399 0.6741 0.6599   0.105074
 H 0.6466 0.053 0.7544   0.133478
 H 0.7908 0.061 0.7864   0.125835
 H 0.2067 0.1389 0.8001   0.131415
 H 0.3247 0.1123 0.7472   0.15006
 H 0.198 0.3436 0.8299   0.126779
 H 0.3259 0.4601 0.8401   0.105074
 H 0.053 0.6466 0.2544   0.133477
 H 0.061 0.7908 0.2864   0.125832
 H 0.1389 0.2067 0.3001   0.131414
 H 0.1123 0.3247 0.2472   0.15006
 H 0.3436 0.198 0.3299   0.126778
 H 0.4601 0.3259 0.3401   0.105074
 H 0.3534 0.947 0.2456   0.133478
 H 0.2092 0.939 0.2136   0.125835
 H 0.7933 0.8611 0.1999   0.131415
 H 0.6753 0.8877 0.2528   0.15006
 H 0.802 0.6564 0.1701   0.126779
 H 0.6741 0.5399 0.1599   0.105074
 C 0.655 0.5136 0.7315   0.591953
 C 0.8948 0.2784 0.7111   -0.21202
 C 0.8827 0.3185 0.6114   0.800273
 C 0.8428 0.6982 0.7006   -0.24445
 C 0.898 0.6532 0.6165   0.841905
 C 0.6113 0.7209 0.6996   -0.192504
 C 0.5541 0.7547 0.786   0.703281
 C 0.4864 0.345 0.7685   0.591953
 C 0.7216 0.1052 0.7889   -0.21202
 C 0.6815 0.1173 0.8886   0.800273
 C 0.3018 0.1572 0.7994   -0.24445
 C 0.3468 0.102 0.8835   0.841906
 C 0.2791 0.3887 0.8004   -0.192504
 C 0.2453 0.4459 0.714   0.703281
 C 0.345 0.4864 0.2685   0.591953
 C 0.1052 0.7216 0.2889   -0.21202
 C 0.1173 0.6815 0.3886   0.800273
 C 0.1572 0.3018 0.2994   -0.24445
 C 0.102 0.3468 0.3835   0.841905
 C 0.3887 0.2791 0.3004   -0.192504
 C 0.4459 0.2453 0.214   0.703281
 C 0.5136 0.655 0.2315   0.591953
 C 0.2784 0.8948 0.2111   -0.21202
 C 0.3185 0.8827 0.1114   0.800273
 C 0.6982 0.8428 0.2006   -0.24445
 C 0.6532 0.898 0.1165   0.841905
 C 0.7209 0.6113 0.1996   -0.192504
 C 0.7547 0.5541 0.286   0.703281
 C 0.6873 0.3127 0.75   0.580823
 C 0.3127 0.6873 0.25   0.580823
 N 0.742 0.4404 0.7308   -0.658257
 N 0.7021 0.6419 0.7105   -0.076329
 N 0.5596 0.258 0.7692   -0.658257
 N 0.3581 0.2979 0.7895   -0.076329
 N 0.258 0.5596 0.2692   -0.658257
 N 0.2979 0.3581 0.2895   -0.076329
 N 0.4404 0.742 0.2308   -0.658257
 N 0.6419 0.7021 0.2105   -0.076329
 N 0.5275 0.4725 0.75   -0.637942
 N 0.7669 0.2331 0.75   -0.06959
 N 0.4725 0.5275 0.25   -0.637942
 N 0.2331 0.7669 0.25   -0.06959
 O 0.9753 0.4091 0.5801   -0.866736
 O 0.7879 0.2605 0.5651   -0.711293
 O 0.0235 0.6821 0.6151   -0.771645
 O 0.8236 0.5942 0.5543   -0.759267
 O 0.4515 0.7953 0.7792   -0.756548
 O 0.604 0.7494 0.8607   -0.688334
 O 0.5909 0.0247 0.9199   -0.866736
 O 0.7395 0.2121 0.9349   -0.711293
 O 0.3179 0.9765 0.8849   -0.771645
 O 0.4058 0.1764 0.9457   -0.759267
 O 0.2047 0.5485 0.7208   -0.756548
 O 0.2506 0.396 0.6393   -0.688334
 O 0.0247 0.5909 0.4199   -0.866736
 O 0.2121 0.7395 0.4349   -0.711293
 O 0.9765 0.3179 0.3849   -0.771645
 O 0.1764 0.4058 0.4457   -0.759267
 O 0.5485 0.2047 0.2208   -0.756548
 O 0.396 0.2506 0.1393   -0.688334
 O 0.4091 0.9753 0.0801   -0.866736
 O 0.2605 0.7879 0.0651   -0.711293
 O 0.6821 0.0235 0.1151   -0.771645
 O 0.5942 0.8236 0.0543   -0.759267
 O 0.7953 0.4515 0.2792   -0.756548
 O 0.7494 0.604 0.3607   -0.688334
