{'_ref': 'TBD', '_srcid': 'CAKYAQ_clean', 'submitters': [{'name': 'Dalar Nazarian Jeff Camp and David Sholl', 'email': 'dalar@gatech.edu jcamp6@gatech.edu'}], '_method': 'VASP DFT with PBE;DDEC'}
data_NdP2H12C6(NO3)2
_symmetry_space_group_name_H-M   'P 1'
_cell_length_a   5.75400018
_cell_length_b   14.12590000
_cell_length_c   21.15600000
_cell_angle_alpha   90.00000000
_cell_angle_beta   90.14000338
_cell_angle_gamma   90.00000000
_symmetry_Int_Tables_number   1
_chemical_formula_structural   NdP2H12C6(NO3)2
_chemical_formula_sum   'Nd4 P8 H48 C24 N8 O24'
_cell_volume   1719.56366705
_cell_formula_units_Z   4
loop_
 _symmetry_equiv_pos_site_id
 _symmetry_equiv_pos_as_xyz
  1  'x, y, z'
loop_
 _atom_site_label
 _atom_site_fract_x
 _atom_site_fract_y
 _atom_site_fract_z
 _atom_site_charge
 Nd 0.74999 0.8902 0.98319   2.460432
 Nd 0.25001 0.3902 0.51681   2.460432
 Nd 0.25001 0.1098 0.01681   2.460432
 Nd 0.74999 0.6098 0.48319   2.460432
 P 0.7501 0.1566 0.9458   1.663631
 P 0.7504 0.4485 0.6125   1.675764
 P 0.2499 0.6566 0.5542   1.663631
 P 0.2496 0.9485 0.8875   1.675764
 P 0.2499 0.8434 0.0542   1.663631
 P 0.2496 0.5515 0.3875   1.675764
 P 0.7501 0.3434 0.4458   1.663631
 P 0.7504 0.0515 0.1125   1.675764
 H 0.9231 0.2034 0.7414   0.086196
 H 0.6775 0.1507 0.7439   0.094594
 H 0.4803 0.2919 0.7248   0.084781
 H 0.6748 0.2798 0.6714   0.139838
 H 0.8535 0.4564 0.8127   0.103146
 H 0.5968 0.4139 0.8188   0.084247
 H 0.8241 0.3277 0.8868   0.139229
 H 0.0224 0.3136 0.8349   0.092978
 H 0.6176 0.1092 0.8509   0.165175
 H 0.8932 0.1113 0.8517   0.171388
 H 0.6135 0.4958 0.7096   0.130115
 H 0.8894 0.4957 0.7096   0.137019
 H 0.0769 0.7034 0.7586   0.086196
 H 0.3225 0.6507 0.7561   0.094595
 H 0.5197 0.7919 0.7752   0.084781
 H 0.3252 0.7798 0.8286   0.139838
 H 0.1465 0.9564 0.6873   0.103147
 H 0.4032 0.9139 0.6812   0.084247
 H 0.1759 0.8277 0.6132   0.139229
 H 0.9776 0.8136 0.6651   0.092978
 H 0.3824 0.6092 0.6491   0.165175
 H 0.1068 0.6113 0.6483   0.171388
 H 0.3865 0.9958 0.7904   0.130115
 H 0.1106 0.9957 0.7904   0.137018
 H 0.0769 0.7966 0.2586   0.086196
 H 0.3225 0.8493 0.2561   0.094594
 H 0.5197 0.7081 0.2752   0.084781
 H 0.3252 0.7202 0.3286   0.139838
 H 0.1465 0.5436 0.1873   0.103146
 H 0.4032 0.5861 0.1812   0.084246
 H 0.1759 0.6723 0.1132   0.139229
 H 0.9776 0.6864 0.1651   0.092978
 H 0.3824 0.8908 0.1491   0.165175
 H 0.1068 0.8887 0.1483   0.171388
 H 0.3865 0.5042 0.2904   0.130115
 H 0.1106 0.5043 0.2904   0.137019
 H 0.9231 0.2966 0.2414   0.086196
 H 0.6775 0.3493 0.2439   0.094595
 H 0.4803 0.2081 0.2248   0.084781
 H 0.6748 0.2202 0.1714   0.139838
 H 0.8535 0.0436 0.3127   0.103147
 H 0.5968 0.0861 0.3188   0.084247
 H 0.8241 0.1723 0.3868   0.139229
 H 0.0224 0.1864 0.3349   0.092978
 H 0.6176 0.3908 0.3509   0.165175
 H 0.8932 0.3887 0.3517   0.171388
 H 0.6135 0.0042 0.2096   0.130115
 H 0.8894 0.0043 0.2096   0.137018
 C 0.759 0.21 0.7545   -0.09004
 C 0.65 0.2907 0.7171   -0.088835
 C 0.756 0.4 0.8041   -0.079495
 C 0.852 0.3165 0.8412   -0.102465
 C 0.753 0.1485 0.8628   -0.52272
 C 0.751 0.4577 0.6979   -0.505841
 C 0.241 0.71 0.7455   -0.090041
 C 0.35 0.7907 0.7829   -0.088835
 C 0.244 0.9 0.6959   -0.079495
 C 0.148 0.8165 0.6588   -0.102465
 C 0.247 0.6485 0.6372   -0.52272
 C 0.249 0.9577 0.8021   -0.505841
 C 0.241 0.79 0.2455   -0.09004
 C 0.35 0.7093 0.2829   -0.088835
 C 0.244 0.6 0.1959   -0.079495
 C 0.148 0.6835 0.1588   -0.102465
 C 0.247 0.8515 0.1372   -0.52272
 C 0.249 0.5423 0.3021   -0.505841
 C 0.759 0.29 0.2545   -0.090041
 C 0.65 0.2093 0.2171   -0.088835
 C 0.756 0.1 0.3041   -0.079495
 C 0.852 0.1835 0.3412   -0.102465
 C 0.753 0.3515 0.3628   -0.52272
 C 0.751 0.0423 0.1979   -0.505841
 N 0.751 0.2241 0.8238   0.105495
 N 0.752 0.3822 0.7352   0.079364
 N 0.249 0.7241 0.6762   0.105495
 N 0.248 0.8822 0.7648   0.079364
 N 0.249 0.7759 0.1762   0.105495
 N 0.248 0.6178 0.2648   0.079364
 N 0.751 0.2759 0.3238   0.105495
 N 0.752 0.1178 0.2352   0.079364
 O 0.751 0.0571 0.9705   -1.117619
 O 0.531 0.2075 0.9656   -0.959865
 O 0.967 0.2091 0.9652   -0.962804
 O 0.53 0.3949 0.5972   -1.008666
 O 0.749 0.5473 0.5877   -0.966642
 O 0.969 0.3945 0.597   -1.008401
 O 0.249 0.5571 0.5295   -1.117619
 O 0.469 0.7075 0.5344   -0.959865
 O 0.033 0.7091 0.5348   -0.962804
 O 0.47 0.8949 0.9028   -1.008666
 O 0.251 0.0473 0.9123   -0.966642
 O 0.031 0.8945 0.903   -1.008401
 O 0.249 0.9429 0.0295   -1.117619
 O 0.469 0.7925 0.0344   -0.959865
 O 0.033 0.7909 0.0348   -0.962804
 O 0.47 0.6051 0.4028   -1.008666
 O 0.251 0.4527 0.4123   -0.966642
 O 0.031 0.6055 0.403   -1.008401
 O 0.751 0.4429 0.4705   -1.117619
 O 0.531 0.2925 0.4656   -0.959865
 O 0.967 0.2909 0.4652   -0.962804
 O 0.53 0.1051 0.0972   -1.008666
 O 0.749 0.9527 0.0877   -0.966642
 O 0.969 0.1055 0.097   -1.008401
