{'_ref': 'TBD', '_srcid': 'CAKYAQ_clean', 'submitters': [{'name': 'Dalar Nazarian Jeff Camp and David Sholl', 'email': 'dalar@gatech.edu jcamp6@gatech.edu'}], '_method': 'VASP DFT with PBE;DDEC'}
data_Cu2H5C4IN3
_symmetry_space_group_name_H-M   'P 1'
_cell_length_a   15.47210008
_cell_length_b   15.47210000
_cell_length_c   15.47210024
_cell_angle_alpha   75.76900130
_cell_angle_beta   67.84699833
_cell_angle_gamma   112.15319790
_symmetry_Int_Tables_number   1
_chemical_formula_structural   Cu2H5C4IN3
_chemical_formula_sum   'Cu16 H40 C32 I8 N24'
_cell_volume   2833.52618926
_cell_formula_units_Z   8
loop_
 _symmetry_equiv_pos_site_id
 _symmetry_equiv_pos_as_xyz
  1  'x, y, z'
loop_
 _atom_site_label
 _atom_site_fract_x
 _atom_site_fract_y
 _atom_site_fract_z
 _atom_site_charge
 Cu 0.19218 0.58602 0.25518   0.11888
 Cu 0.31857 0.80027 0.27474   0.304975
 Cu 0.30782 0.55264 0.10616   0.118894
 Cu 0.18143 0.40669 0.0183   0.304974
 Cu 0.6588 0.24482 0.94736   0.11887
 Cu 0.42499 0.22526 0.09331   0.304938
 Cu 0.8412 0.39384 0.91398   0.118882
 Cu 0.07501 0.4817 0.69973   0.304959
 Cu 0.80782 0.41398 0.74482   0.11888
 Cu 0.68143 0.19973 0.72526   0.304975
 Cu 0.69218 0.44736 0.89384   0.118894
 Cu 0.81857 0.59331 0.9817   0.304974
 Cu 0.3412 0.75518 0.05264   0.11887
 Cu 0.57501 0.77474 0.90669   0.304938
 Cu 0.1588 0.60616 0.08602   0.118882
 Cu 0.92499 0.5183 0.30027   0.304959
 H 0.2928 0.7946 0.4686   0.134509
 H 0.281 0.7102 0.56   0.14713
 H 0.1829 0.7267 0.5776   0.139911
 H 0.0517 0.3816 0.4617   0.116275
 H 0.9796 0.3615 0.5763   0.111301
 H 0.2072 0.2386 0.9982   0.134516
 H 0.219 0.159 0.0708   0.147129
 H 0.3171 0.2395 0.9562   0.139927
 H 0.4483 0.4866 0.1701   0.116264
 H 0.5204 0.4441 0.1181   0.111307
 H 0.2368 0.0314 0.2614   0.134507
 H 0.2298 0.94 0.341   0.147133
 H 0.1957 0.9224 0.2605   0.139924
 H 0.6567 0.0383 0.0134   0.116265
 H 0.5622 0.9237 0.0559   0.111292
 H 0.2632 0.5018 0.7054   0.134505
 H 0.2702 0.4292 0.7898   0.147141
 H 0.3043 0.5438 0.7733   0.139916
 H 0.8433 0.3299 0.1184   0.11628
 H 0.9378 0.3819 0.1385   0.1113
 H 0.7072 0.2054 0.5314   0.134509
 H 0.719 0.2898 0.44   0.14713
 H 0.8171 0.2733 0.4224   0.139911
 H 0.9483 0.6184 0.5383   0.116275
 H 0.0204 0.6385 0.4237   0.111301
 H 0.7928 0.7614 0.0018   0.134516
 H 0.781 0.841 0.9292   0.147129
 H 0.6829 0.7605 0.0438   0.139927
 H 0.5517 0.5134 0.8299   0.116264
 H 0.4796 0.5559 0.8819   0.111307
 H 0.7632 0.9686 0.7386   0.134507
 H 0.7702 0.06 0.659   0.147133
 H 0.8043 0.0776 0.7395   0.139924
 H 0.3433 0.9617 0.9866   0.116265
 H 0.4378 0.0763 0.9441   0.111292
 H 0.7368 0.4982 0.2946   0.134505
 H 0.7298 0.5708 0.2102   0.147141
 H 0.6957 0.4562 0.2267   0.139916
 H 0.1567 0.6701 0.8816   0.11628
 H 0.0622 0.6181 0.8615   0.1113
 C 0.2009 0.6456 0.4925   0.421329
 C 0.2433 0.7266 0.5279   -0.421807
 C 0.1196 0.5032 0.4894   0.368698
 C 0.053 0.3901 0.5207   -0.323418
 C 0.2991 0.3066 0.0553   0.421323
 C 0.2567 0.2288 0.0167   -0.421813
 C 0.3804 0.391 0.1164   0.368683
 C 0.447 0.4263 0.1629   -0.323382
 C 0.3619 0.0075 0.1934   0.421319
 C 0.2455 0.9721 0.2712   -0.421826
 C 0.5074 0.0106 0.109   0.368697
 C 0.5892 0.9793 0.0737   -0.323402
 C 0.1381 0.4447 0.8544   0.421294
 C 0.2545 0.4833 0.7734   -0.421804
 C 0.9926 0.3836 0.9968   0.368711
 C 0.9108 0.3371 0.1099   -0.323429
 C 0.7991 0.3544 0.5075   0.421329
 C 0.7567 0.2734 0.4721   -0.421807
 C 0.8804 0.4968 0.5106   0.368698
 C 0.947 0.6099 0.4793   -0.323418
 C 0.7009 0.6934 0.9447   0.421323
 C 0.7433 0.7712 0.9833   -0.421813
 C 0.6196 0.609 0.8836   0.368683
 C 0.553 0.5737 0.8371   -0.323382
 C 0.6381 0.9925 0.8066   0.421319
 C 0.7545 0.0279 0.7288   -0.421826
 C 0.4926 0.9894 0.891   0.368697
 C 0.4108 0.0207 0.9263   -0.323402
 C 0.8619 0.5553 0.1456   0.421294
 C 0.7455 0.5167 0.2266   -0.421804
 C 0.0074 0.6164 0.0032   0.368711
 C 0.0892 0.6629 0.8901   -0.323429
 I 0.078 0.42026 0.24546   -0.232889
 I 0.422 0.67654 0.15774   -0.232857
 I 0.83428 0.25454 0.82346   -0.23285
 I 0.66572 0.34226 0.07974   -0.232863
 I 0.922 0.57974 0.75454   -0.232889
 I 0.578 0.32346 0.84226   -0.232857
 I 0.16572 0.74546 0.17654   -0.23285
 I 0.33428 0.65774 0.92026   -0.232863
 N 0.1736 0.5778 0.392   -0.154722
 N 0.2262 0.6698 0.3946   -0.276862
 N 0.1341 0.5433 0.554   -0.453335
 N 0.3264 0.4344 0.0958   -0.154732
 N 0.2738 0.3792 0.0564   -0.276865
 N 0.3659 0.3119 0.0908   -0.453305
 N 0.5302 0.108 0.0656   -0.154744
 N 0.4356 0.1054 0.1208   -0.276858
 N 0.4027 0.946 0.1881   -0.453325
 N 0.9698 0.4042 0.9222   -0.154739
 N 0.0644 0.4436 0.8302   -0.276847
 N 0.0973 0.4092 0.9567   -0.453286
 N 0.8264 0.4222 0.608   -0.154722
 N 0.7738 0.3302 0.6054   -0.276862
 N 0.8659 0.4567 0.446   -0.453335
 N 0.6736 0.5656 0.9042   -0.154732
 N 0.7262 0.6208 0.9436   -0.276865
 N 0.6341 0.6881 0.9092   -0.453305
 N 0.4698 0.892 0.9344   -0.154744
 N 0.5644 0.8946 0.8792   -0.276858
 N 0.5973 0.054 0.8119   -0.453325
 N 0.0302 0.5958 0.0778   -0.154739
 N 0.9356 0.5564 0.1698   -0.276847
 N 0.9027 0.5908 0.0433   -0.453286
