{'_ref': 'TBD', '_srcid': 'CAKYAQ_clean', 'submitters': [{'name': 'Dalar Nazarian Jeff Camp and David Sholl', 'email': 'dalar@gatech.edu jcamp6@gatech.edu'}], '_method': 'VASP DFT with PBE;DDEC'}
data_Zn3H40C60(NO3)4
_symmetry_space_group_name_H-M   'P 1'
_cell_length_a   10.60900000
_cell_length_b   12.32099963
_cell_length_c   25.81600000
_cell_angle_alpha   91.73900166
_cell_angle_beta   90.00000000
_cell_angle_gamma   90.00000000
_symmetry_Int_Tables_number   1
_chemical_formula_structural   Zn3H40C60(NO3)4
_chemical_formula_sum   'Zn6 H80 C120 N8 O24'
_cell_volume   3372.94515199
_cell_formula_units_Z   2
loop_
 _symmetry_equiv_pos_site_id
 _symmetry_equiv_pos_as_xyz
  1  'x, y, z'
loop_
 _atom_site_label
 _atom_site_fract_x
 _atom_site_fract_y
 _atom_site_fract_z
 _atom_site_charge
 Zn 0.76496 0.58035 0.55826   0.892692
 Zn 0.76496 0.91965 0.94174   0.892692
 Zn 0.23504 0.41965 0.44174   0.892692
 Zn 0.23504 0.08035 0.05826   0.892692
 Zn 0.5 0.5 0.5   1.137245
 Zn 0.5 0.0 0.0   1.137245
 H 0.6053 0.9902 0.1671   0.117051
 H 0.374 0.9628 0.2088   0.093311
 H 0.3578 0.8678 0.2885   0.100194
 H 0.4449 0.7881 0.3589   0.110748
 H 0.7881 0.8744 0.3107   0.105342
 H 0.6986 0.9498 0.2387   0.104259
 H 0.5488 0.7013 0.4225   0.131987
 H 0.7753 0.7737 0.3868   0.088944
 H 0.7154 0.1901 0.5082   0.127932
 H 0.9545 0.2657 0.5272   0.106509
 H 0.1238 0.1434 0.5288   0.100966
 H 0.789 0.0259 0.4836   0.099208
 H 0.5699 0.7892 0.5665   0.094364
 H 0.5756 0.9671 0.5985   0.123124
 H 0.7631 0.0388 0.6299   0.105121
 H 0.2611 0.7158 0.6275   0.112318
 H 0.2352 0.5446 0.5916   0.127872
 H 0.0382 0.4883 0.5638   0.0873
 H 0.9952 0.0111 0.6514   0.114183
 H 0.1615 0.8998 0.6516   0.099933
 H 0.6053 0.5098 0.3329   0.117051
 H 0.374 0.5372 0.2912   0.093311
 H 0.3578 0.6322 0.2115   0.100194
 H 0.4449 0.7119 0.1411   0.110748
 H 0.7881 0.6256 0.1893   0.105343
 H 0.6986 0.5502 0.2613   0.104259
 H 0.5488 0.7987 0.0775   0.131987
 H 0.7753 0.7263 0.1132   0.088944
 H 0.7154 0.3099 0.9918   0.127932
 H 0.9545 0.2343 0.9728   0.106509
 H 0.1238 0.3566 0.9712   0.100966
 H 0.789 0.4741 0.0164   0.099208
 H 0.5699 0.7108 0.9335   0.094364
 H 0.5756 0.5329 0.9015   0.123124
 H 0.7631 0.4612 0.8701   0.105121
 H 0.2611 0.7842 0.8725   0.112318
 H 0.2352 0.9554 0.9084   0.127871
 H 0.0382 0.0117 0.9362   0.0873
 H 0.9952 0.4889 0.8486   0.114183
 H 0.1615 0.6002 0.8484   0.099933
 H 0.3947 0.0098 0.8329   0.117051
 H 0.626 0.0372 0.7912   0.093311
 H 0.6422 0.1322 0.7115   0.100194
 H 0.5551 0.2119 0.6411   0.110747
 H 0.2119 0.1256 0.6893   0.105342
 H 0.3014 0.0502 0.7613   0.10426
 H 0.4512 0.2987 0.5775   0.131987
 H 0.2247 0.2263 0.6132   0.088943
 H 0.2846 0.8099 0.4918   0.127933
 H 0.0455 0.7343 0.4728   0.106509
 H 0.8762 0.8566 0.4712   0.100966
 H 0.211 0.9741 0.5164   0.099209
 H 0.4301 0.2108 0.4335   0.094364
 H 0.4244 0.0329 0.4015   0.123126
 H 0.2369 0.9612 0.3701   0.105121
 H 0.7389 0.2842 0.3725   0.112318
 H 0.7648 0.4554 0.4084   0.127871
 H 0.9618 0.5117 0.4362   0.087299
 H 0.0048 0.9889 0.3486   0.114183
 H 0.8385 0.1002 0.3484   0.099933
 H 0.3947 0.4902 0.6671   0.117051
 H 0.626 0.4628 0.7088   0.093311
 H 0.6422 0.3678 0.7885   0.100194
 H 0.5551 0.2881 0.8589   0.110747
 H 0.2119 0.3744 0.8107   0.105343
 H 0.3014 0.4498 0.7387   0.104259
 H 0.4512 0.2013 0.9225   0.131987
 H 0.2247 0.2737 0.8868   0.088943
 H 0.2846 0.6901 0.0082   0.127933
 H 0.0455 0.7657 0.0272   0.106509
 H 0.8762 0.6434 0.0288   0.100966
 H 0.211 0.5259 0.9836   0.099209
 H 0.4301 0.2892 0.0665   0.094364
 H 0.4244 0.4671 0.0985   0.123126
 H 0.2369 0.5388 0.1299   0.105121
 H 0.7389 0.2158 0.1275   0.112318
 H 0.7648 0.0446 0.0916   0.127871
 H 0.9618 0.9883 0.0638   0.087299
 H 0.0048 0.5111 0.1514   0.114184
 H 0.8385 0.3998 0.1516   0.099933
 C 0.453 0.0238 0.1186   0.708382
 C 0.5177 0.9891 0.1669   -0.279966
 C 0.4614 0.9576 0.2086   -0.028485
 C 0.5189 0.915 0.2553   0.047178
 C 0.4449 0.8677 0.2924   -0.116286
 C 0.4969 0.8206 0.3348   -0.103555
 C 0.6262 0.821 0.3422   0.044445
 C 0.7012 0.8713 0.306   -0.128719
 C 0.6472 0.9171 0.2629   -0.105885
 C 0.712 0.6566 0.4629   0.686546
 C 0.6359 0.7092 0.422   -0.276912
 C 0.6881 0.7668 0.3852   -0.036721
 C 0.7327 0.3562 0.5235   0.714101
 C 0.7758 0.2431 0.5155   -0.319132
 C 0.8962 0.2121 0.5181   -0.016327
 C 0.9462 0.1026 0.5083   0.037064
 C 0.0734 0.0857 0.5174   -0.102448
 C 0.8741 0.0157 0.4905   -0.122297
 C 0.6446 0.8169 0.5804   0.169956
 C 0.6478 0.9244 0.5991   -0.177992
 C 0.7594 0.9666 0.6183   -0.028923
 C 0.8657 0.902 0.6205   -0.001951
 C 0.8537 0.7943 0.6008   0.155085
 C 0.9637 0.7244 0.6004   0.146931
 C 0.0811 0.7655 0.6184   -0.009467
 C 0.1824 0.6939 0.6153   -0.029301
 C 0.1669 0.5917 0.5945   -0.151949
 C 0.0476 0.5584 0.5776   0.202534
 C 0.9864 0.9399 0.639   -0.108328
 C 0.0855 0.8736 0.6383   -0.090759
 C 0.453 0.4762 0.3814   0.708382
 C 0.5177 0.5109 0.3331   -0.279966
 C 0.4614 0.5424 0.2914   -0.028485
 C 0.5189 0.585 0.2447   0.047178
 C 0.4449 0.6323 0.2076   -0.116286
 C 0.4969 0.6794 0.1652   -0.103555
 C 0.6262 0.679 0.1578   0.044445
 C 0.7012 0.6287 0.194   -0.12872
 C 0.6472 0.5829 0.2371   -0.105885
 C 0.712 0.8434 0.0371   0.686546
 C 0.6359 0.7908 0.078   -0.276912
 C 0.6881 0.7332 0.1148   -0.036721
 C 0.7327 0.1438 0.9765   0.714101
 C 0.7758 0.2569 0.9845   -0.319132
 C 0.8962 0.2879 0.9819   -0.016327
 C 0.9462 0.3974 0.9917   0.037064
 C 0.0734 0.4143 0.9826   -0.102448
 C 0.8741 0.4843 0.0095   -0.122297
 C 0.6446 0.6831 0.9196   0.169956
 C 0.6478 0.5756 0.9009   -0.177992
 C 0.7594 0.5334 0.8817   -0.028923
 C 0.8657 0.598 0.8795   -0.001951
 C 0.8537 0.7057 0.8992   0.155084
 C 0.9637 0.7756 0.8996   0.146931
 C 0.0811 0.7345 0.8816   -0.009467
 C 0.1824 0.8061 0.8847   -0.029301
 C 0.1669 0.9083 0.9055   -0.151949
 C 0.0476 0.9416 0.9224   0.202534
 C 0.9864 0.5601 0.861   -0.108328
 C 0.0855 0.6264 0.8617   -0.090759
 C 0.547 0.9762 0.8814   0.708381
 C 0.4823 0.0109 0.8331   -0.279966
 C 0.5386 0.0424 0.7914   -0.028485
 C 0.4811 0.085 0.7447   0.047179
 C 0.5551 0.1323 0.7076   -0.116286
 C 0.5031 0.1794 0.6652   -0.103555
 C 0.3738 0.179 0.6578   0.044445
 C 0.2988 0.1287 0.694   -0.128719
 C 0.3528 0.0829 0.7371   -0.105886
 C 0.288 0.3434 0.5371   0.686546
 C 0.3641 0.2908 0.578   -0.276912
 C 0.3119 0.2332 0.6148   -0.036721
 C 0.2673 0.6438 0.4765   0.714102
 C 0.2242 0.7569 0.4845   -0.319132
 C 0.1038 0.7879 0.4819   -0.016326
 C 0.0538 0.8974 0.4917   0.037063
 C 0.9266 0.9143 0.4826   -0.102444
 C 0.1259 0.9843 0.5095   -0.122293
 C 0.3554 0.1831 0.4196   0.169956
 C 0.3522 0.0756 0.4009   -0.177992
 C 0.2406 0.0334 0.3817   -0.028923
 C 0.1343 0.098 0.3795   -0.001951
 C 0.1463 0.2057 0.3992   0.155085
 C 0.0363 0.2756 0.3996   0.146931
 C 0.9189 0.2345 0.3816   -0.009466
 C 0.8176 0.3061 0.3847   -0.029301
 C 0.8331 0.4083 0.4055   -0.151949
 C 0.9524 0.4416 0.4224   0.202534
 C 0.0136 0.0601 0.361   -0.108328
 C 0.9145 0.1264 0.3617   -0.090759
 C 0.547 0.5238 0.6186   0.708381
 C 0.4823 0.4891 0.6669   -0.279965
 C 0.5386 0.4576 0.7086   -0.028485
 C 0.4811 0.415 0.7553   0.047179
 C 0.5551 0.3677 0.7924   -0.116287
 C 0.5031 0.3206 0.8348   -0.103555
 C 0.3738 0.321 0.8422   0.044445
 C 0.2988 0.3713 0.806   -0.12872
 C 0.3528 0.4171 0.7629   -0.105886
 C 0.288 0.1566 0.9629   0.686546
 C 0.3641 0.2092 0.922   -0.276912
 C 0.3119 0.2668 0.8852   -0.036721
 C 0.2673 0.8562 0.0235   0.714102
 C 0.2242 0.7431 0.0155   -0.319132
 C 0.1038 0.7121 0.0181   -0.016326
 C 0.0538 0.6026 0.0083   0.037063
 C 0.9266 0.5857 0.0174   -0.102444
 C 0.1259 0.5157 0.9905   -0.122293
 C 0.3554 0.3169 0.0804   0.169956
 C 0.3522 0.4244 0.0991   -0.177992
 C 0.2406 0.4666 0.1183   -0.028923
 C 0.1343 0.402 0.1205   -0.001951
 C 0.1463 0.2943 0.1008   0.155085
 C 0.0363 0.2244 0.1004   0.146931
 C 0.9189 0.2655 0.1184   -0.009467
 C 0.8176 0.1939 0.1153   -0.029301
 C 0.8331 0.0917 0.0945   -0.151949
 C 0.9524 0.0584 0.0776   0.202534
 C 0.0136 0.4399 0.139   -0.108328
 C 0.9145 0.3736 0.1383   -0.090759
 N 0.7462 0.7526 0.582   -0.314256
 N 0.947 0.6223 0.58057   -0.314589
 N 0.7462 0.7474 0.918   -0.314256
 N 0.947 0.8777 0.91943   -0.314589
 N 0.2538 0.2474 0.418   -0.314256
 N 0.053 0.3777 0.41943   -0.314589
 N 0.2538 0.2526 0.082   -0.314256
 N 0.053 0.1223 0.08057   -0.314589
 O 0.6186 0.3738 0.5151   -0.62118
 O 0.8129 0.4273 0.53747   -0.598615
 O 0.6492 0.6086 0.49847   -0.652133
 O 0.8269 0.6659 0.46378   -0.560585
 O 0.5207 0.0371 0.08022   -0.613214
 O 0.3343 0.036 0.12055   -0.614233
 O 0.6186 0.1262 0.9849   -0.62118
 O 0.8129 0.0727 0.96253   -0.598615
 O 0.6492 0.8914 0.00153   -0.652133
 O 0.8269 0.8341 0.03622   -0.560585
 O 0.5207 0.4629 0.41978   -0.613214
 O 0.3343 0.464 0.37945   -0.614233
 O 0.3814 0.6262 0.4849   -0.62118
 O 0.1871 0.5727 0.46253   -0.598615
 O 0.3508 0.3914 0.50153   -0.652133
 O 0.1731 0.3341 0.53622   -0.560585
 O 0.4793 0.9629 0.91978   -0.613214
 O 0.6657 0.964 0.87945   -0.614233
 O 0.3814 0.8738 0.0151   -0.62118
 O 0.1871 0.9273 0.03747   -0.598615
 O 0.3508 0.1086 0.99847   -0.652133
 O 0.1731 0.1659 0.96378   -0.560585
 O 0.4793 0.5371 0.58022   -0.613214
 O 0.6657 0.536 0.62055   -0.614233
