{'_ref': 'TBD', '_srcid': 'CAKYAQ_clean', 'submitters': [{'name': 'Dalar Nazarian Jeff Camp and David Sholl', 'email': 'dalar@gatech.edu jcamp6@gatech.edu'}], '_method': 'VASP DFT with PBE;DDEC'}
data_MnH14(C10N3)2
_symmetry_space_group_name_H-M   'P 1'
_cell_length_a   5.61530034
_cell_length_b   9.33359959
_cell_length_c   13.33980000
_cell_angle_alpha   106.02999934
_cell_angle_beta   93.61100458
_cell_angle_gamma   102.04999729
_symmetry_Int_Tables_number   1
_chemical_formula_structural   MnH14(C10N3)2
_chemical_formula_sum   'Mn1 H14 C20 N6'
_cell_volume   651.726123576
_cell_formula_units_Z   1
loop_
 _symmetry_equiv_pos_site_id
 _symmetry_equiv_pos_as_xyz
  1  'x, y, z'
loop_
 _atom_site_label
 _atom_site_fract_x
 _atom_site_fract_y
 _atom_site_fract_z
 _atom_site_charge
 Mn 0.0 0.0 0.0   0.617655
 H 0.699 0.432 0.514   0.107374
 H 0.594 0.3937 0.9296   0.1136
 H 0.2397 0.3509 0.0497   0.10618
 H 0.5756 0.9189 0.7999   0.071911
 H 0.4259 0.7469 0.6383   0.120545
 H 0.002 0.5624 0.6609   0.128945
 H 0.1408 0.7446 0.8187   0.068384
 H 0.301 0.568 0.486   0.107415
 H 0.406 0.6063 0.0704   0.113602
 H 0.7603 0.6491 0.9503   0.106182
 H 0.4244 0.0811 0.2001   0.071909
 H 0.5741 0.2531 0.3617   0.120605
 H 0.998 0.4376 0.3391   0.128943
 H 0.8592 0.2554 0.1813   0.068383
 C 0.5606 0.1423 0.9623   0.51814
 C 0.8971 0.3433 0.9876   0.222056
 C 0.7576 0.436 0.9581   -0.183579
 C 0.1424 0.4102 0.0296   -0.157747
 C 0.6624 0.8458 0.7716   0.155609
 C 0.5692 0.7416 0.6745   -0.214455
 C 0.6916 0.6283 0.6312   0.124684
 C 0.6015 0.5073 0.5311   -0.138459
 C 0.9104 0.6333 0.6876   -0.222186
 C 0.9922 0.7432 0.783   0.16047
 C 0.4394 0.8577 0.0377   0.518143
 C 0.1029 0.6567 0.0124   0.22208
 C 0.2424 0.564 0.0419   -0.183667
 C 0.8576 0.5898 0.9704   -0.15784
 C 0.3376 0.1542 0.2284   0.155615
 C 0.4308 0.2584 0.3255   -0.214456
 C 0.3084 0.3717 0.3688   0.124683
 C 0.3985 0.4927 0.4689   -0.138361
 C 0.0896 0.3667 0.3124   -0.22219
 C 0.0078 0.2568 0.217   0.16047
 N 0.3449 0.0963 0.949   -0.553303
 N 0.7989 0.1851 0.9762   -0.4699
 N 0.8703 0.848 0.8275   -0.267116
 N 0.6551 0.9037 0.051   -0.553302
 N 0.2011 0.8149 0.0238   -0.469901
 N 0.1297 0.152 0.1725   -0.267117
