{'_ref': 'TBD', '_srcid': 'CAKYAQ_clean', 'submitters': [{'name': 'Dalar Nazarian Jeff Camp and David Sholl', 'email': 'dalar@gatech.edu jcamp6@gatech.edu'}], '_method': 'VASP DFT with PBE;DDEC'}
data_CoHC4O3
_symmetry_space_group_name_H-M   'P 1'
_cell_length_a   6.82020039
_cell_length_b   15.13160000
_cell_length_c   15.13160000
_cell_angle_alpha   117.78409852
_cell_angle_beta   98.64089544
_cell_angle_gamma   98.64090390
_symmetry_Int_Tables_number   1
_chemical_formula_structural   CoHC4O3
_chemical_formula_sum   'Co6 H6 C24 O18'
_cell_volume   1321.84995078
_cell_formula_units_Z   6
loop_
 _symmetry_equiv_pos_site_id
 _symmetry_equiv_pos_as_xyz
  1  'x, y, z'
loop_
 _atom_site_label
 _atom_site_fract_x
 _atom_site_fract_y
 _atom_site_fract_z
 _atom_site_charge
 Co 0.80208 0.26583 0.67701   1.048472
 Co 0.12507 0.32299 0.58882   1.04879
 Co 0.53625 0.41118 0.73417   1.04856
 Co 0.19792 0.73417 0.32299   1.048472
 Co 0.87493 0.67701 0.41118   1.04879
 Co 0.46375 0.58882 0.26583   1.04856
 H 0.82567 0.46886 0.44842   0.143829
 H 0.37725 0.55158 0.02044   0.143814
 H 0.35681 0.97956 0.53114   0.143894
 H 0.17433 0.53114 0.55158   0.14383
 H 0.62275 0.44842 0.97956   0.143814
 H 0.64319 0.02044 0.46886   0.143894
 C 0.74354 0.38834 0.56233   0.753818
 C 0.61501 0.4462 0.53438   -0.239926
 C 0.43165 0.46497 0.56724   0.349863
 C 0.67846 0.48158 0.47128   -0.162597
 C 0.18121 0.43767 0.82601   0.753637
 C 0.08063 0.46562 0.91182   -0.240135
 C 0.86441 0.43276 0.89773   0.349778
 C 0.20718 0.52872 0.0103   -0.162233
 C 0.3552 0.17399 0.61166   0.753085
 C 0.16881 0.08818 0.5538   -0.238906
 C 0.96668 0.10227 0.53503   0.349143
 C 0.19688 0.9897 0.51842   -0.162809
 C 0.25646 0.61166 0.43767   0.753818
 C 0.38499 0.5538 0.46562   -0.239925
 C 0.56835 0.53503 0.43276   0.349861
 C 0.32154 0.51842 0.52872   -0.162598
 C 0.81879 0.56233 0.17399   0.753637
 C 0.91937 0.53438 0.08818   -0.240134
 C 0.13559 0.56724 0.10227   0.349777
 C 0.79282 0.47128 0.9897   -0.162234
 C 0.6448 0.82601 0.38834   0.753085
 C 0.83119 0.91182 0.4462   -0.238906
 C 0.03332 0.89773 0.46497   0.349142
 C 0.80312 0.0103 0.48158   -0.16281
 O 0.69308 0.36405 0.62571   -0.656445
 O 0.90065 0.37251 0.52719   -0.600471
 O 0.35922 0.43852 0.63101   -0.636675
 O 0.06737 0.37429 0.73834   -0.656508
 O 0.37346 0.47281 0.84532   -0.600104
 O 0.72821 0.36899 0.80751   -0.636817
 O 0.32903 0.26166 0.63595   -0.656371
 O 0.52814 0.15468 0.62749   -0.599911
 O 0.9207 0.19249 0.56148   -0.636771
 O 0.30692 0.63595 0.37429   -0.656445
 O 0.09935 0.62749 0.47281   -0.600471
 O 0.64078 0.56148 0.36899   -0.636675
 O 0.93263 0.62571 0.26166   -0.656508
 O 0.62654 0.52719 0.15468   -0.600104
 O 0.27179 0.63101 0.19249   -0.636817
 O 0.67097 0.73834 0.36405   -0.656371
 O 0.47186 0.84532 0.37251   -0.599911
 O 0.0793 0.80751 0.43852   -0.636771
