{'_ref': 'TBD', '_srcid': 'CAKYAQ_clean', 'submitters': [{'name': 'Dalar Nazarian Jeff Camp and David Sholl', 'email': 'dalar@gatech.edu jcamp6@gatech.edu'}], '_method': 'VASP DFT with PBE;DDEC'}
data_Mn3H40C75N4(O2F3)6
_symmetry_space_group_name_H-M   'P 1'
_cell_length_a   13.64300008
_cell_length_b   19.75979988
_cell_length_c   22.18340000
_cell_angle_alpha   77.88819960
_cell_angle_beta   72.09109980
_cell_angle_gamma   69.80469846
_symmetry_Int_Tables_number   1
_chemical_formula_structural   Mn3H40C75N4(O2F3)6
_chemical_formula_sum   'Mn6 H80 C150 N8 O24 F36'
_cell_volume   5304.55583556
_cell_formula_units_Z   2
loop_
 _symmetry_equiv_pos_site_id
 _symmetry_equiv_pos_as_xyz
  1  'x, y, z'
loop_
 _atom_site_label
 _atom_site_fract_x
 _atom_site_fract_y
 _atom_site_fract_z
 _atom_site_charge
 Mn 0.28511 0.45281 0.47359   0.96479
 Mn 0.71151 0.04719 0.02641   0.96462
 Mn 0.71489 0.54719 0.52641   0.96479
 Mn 0.28849 0.95281 0.97359   0.96462
 Mn 0.5 0.5 0.5   1.20384
 Mn 0.0 0.0 0.0   1.203562
 H 0.1291 0.6791 0.3975   0.098166
 H 0.0631 0.8005 0.3661   0.109703
 H 0.2646 0.8432 0.439   0.109548
 H 0.3391 0.72 0.4648   0.100448
 H 0.086 0.5581 0.4149   0.077858
 H 0.9181 0.4468 0.3874   0.105177
 H 0.9727 0.3033 0.4273   0.105653
 H 0.9669 0.0167 0.2045   0.08539
 H 0.9617 0.0026 0.3102   0.097763
 H 0.2495 0.8533 0.2793   0.10923
 H 0.2605 0.8707 0.1721   0.096913
 H 0.5472 0.3875 0.2783   0.108022
 H 0.7136 0.3246 0.2204   0.112076
 H 0.8315 0.2853 0.3725   0.098177
 H 0.6658 0.3505 0.4295   0.092076
 H 0.9441 0.5516 0.385   0.114939
 H 0.3977 0.2861 0.5309   0.099523
 H 0.2501 0.153 0.5092   0.108435
 H 0.373 0.169 0.5474   0.132891
 H 0.0942 0.2097 0.4533   0.114515
 H 0.7057 0.8209 0.1025   0.097793
 H 0.7297 0.6995 0.1339   0.110228
 H 0.0468 0.6568 0.061   0.108966
 H 0.0239 0.78 0.0352   0.101602
 H 0.559 0.9419 0.0851   0.078302
 H 0.2523 0.0532 0.1126   0.105437
 H 0.2033 0.1967 0.0727   0.104685
 H 0.6881 0.4833 0.2955   0.084539
 H 0.7745 0.4974 0.1898   0.097514
 H 0.8821 0.6467 0.2207   0.110027
 H 0.8033 0.6293 0.3279   0.096327
 H 0.713 0.1125 0.2217   0.1066
 H 0.7586 0.1754 0.2796   0.11206
 H 0.9893 0.2147 0.1275   0.097395
 H 0.9458 0.1495 0.0705   0.091833
 H 0.3807 0.9484 0.115   0.116473
 H 0.7147 0.2139 0.9691   0.099275
 H 0.4123 0.347 0.9908   0.108606
 H 0.5894 0.331 0.9526   0.133937
 H 0.2572 0.2903 0.0467   0.11364
 H 0.8709 0.3209 0.6025   0.098166
 H 0.9369 0.1995 0.6339   0.109703
 H 0.7354 0.1568 0.561   0.109549
 H 0.6609 0.28 0.5352   0.100449
 H 0.914 0.4419 0.5851   0.077858
 H 0.0819 0.5532 0.6126   0.105177
 H 0.0273 0.6967 0.5727   0.105653
 H 0.0331 0.9833 0.7955   0.08539
 H 0.0383 0.9974 0.6898   0.097763
 H 0.7505 0.1467 0.7207   0.10923
 H 0.7395 0.1293 0.8279   0.096913
 H 0.4528 0.6125 0.7217   0.108022
 H 0.2864 0.6754 0.7796   0.112076
 H 0.1685 0.7147 0.6275   0.098177
 H 0.3342 0.6495 0.5705   0.092076
 H 0.0559 0.4484 0.615   0.114939
 H 0.6023 0.7139 0.4691   0.099524
 H 0.7499 0.847 0.4908   0.108436
 H 0.627 0.831 0.4526   0.132891
 H 0.9058 0.7903 0.5467   0.114515
 H 0.2943 0.1791 0.8975   0.097793
 H 0.2703 0.3005 0.8661   0.110228
 H 0.9532 0.3432 0.939   0.108967
 H 0.9761 0.22 0.9648   0.101602
 H 0.441 0.0581 0.9149   0.078302
 H 0.7477 0.9468 0.8874   0.105437
 H 0.7967 0.8033 0.9273   0.104685
 H 0.3119 0.5167 0.7045   0.084539
 H 0.2255 0.5026 0.8102   0.097514
 H 0.1179 0.3533 0.7793   0.110027
 H 0.1967 0.3707 0.6721   0.096327
 H 0.287 0.8875 0.7783   0.106599
 H 0.2414 0.8246 0.7204   0.11206
 H 0.0107 0.7853 0.8725   0.097395
 H 0.0542 0.8505 0.9295   0.091834
 H 0.6193 0.0516 0.885   0.116473
 H 0.2853 0.7861 0.0309   0.099275
 H 0.5877 0.653 0.0092   0.108606
 H 0.4106 0.669 0.0474   0.133937
 H 0.7428 0.7097 0.9533   0.11364
 C 0.289 0.60673 0.45427   0.701644
 C 0.24153 0.68656 0.43518   -0.144201
 C 0.15814 0.71172 0.4052   -0.029481
 C 0.11846 0.78458 0.3867   -0.152966
 C 0.15757 0.83432 0.39774   0.089362
 C 0.23877 0.81016 0.4291   -0.159245
 C 0.28164 0.73622 0.4459   -0.017945
 C 0.0754 0.5132 0.4188   0.190491
 C 0.974 0.448 0.4024   0.003699
 C 0.0311 0.3092 0.4364   -0.064281
 C 0.1251 0.3898 0.4474   0.157607
 C 0.1925 0.3283 0.4737   0.147691
 C 0.02512 0.98439 0.21917   -0.010794
 C 0.02146 0.97498 0.2825   -0.145
 C 0.10382 0.92594 0.30622   0.079185
 C 0.19274 0.88702 0.2641   -0.137074
 C 0.19924 0.89702 0.1999   -0.040991
 C 0.11528 0.94597 0.17667   -0.138366
 C 0.12238 0.95742 0.10702   0.6985
 C 0.1056 0.9157 0.3767   -0.307674
 C 0.99389 0.93862 0.4222   0.699972
 C 0.1664 0.9645 0.3821   0.706363
 C 0.47773 0.41064 0.3995   0.674361
 C 0.58931 0.37415 0.36043   -0.133357
 C 0.60425 0.36661 0.29749   -0.024443
 C 0.70373 0.32822 0.26312   -0.143463
 C 0.7891 0.29504 0.29096   0.078162
 C 0.77429 0.305 0.35342   -0.157097
 C 0.67498 0.34416 0.38748   -0.011096
 C 0.9556 0.304 0.2102   0.709542
 C 0.9908 0.509 0.4   -0.162591
 C 0.0397 0.3836 0.4274   -0.028633
 C 0.3424 0.28 0.5184   0.167469
 C 0.2539 0.1997 0.5069   -0.037685
 C 0.3288 0.2083 0.5273   -0.184187
 C 0.0968 0.2556 0.4554   -0.093446
 C 0.1762 0.2614 0.4804   -0.004505
 C 0.85 0.89327 0.04573   0.698906
 C 0.86327 0.81344 0.06482   -0.147611
 C 0.77506 0.78828 0.0948   -0.025755
 C 0.78974 0.71542 0.1133   -0.155506
 C 0.88963 0.66568 0.10226   0.089267
 C 0.97803 0.68984 0.0709   -0.157016
 C 0.96376 0.76378 0.0541   -0.01833
 C 0.5074 0.9868 0.0812   0.191281
 C 0.3244 0.052 0.0976   0.003499
 C 0.2767 0.1908 0.0636   -0.061451
 C 0.4623 0.1102 0.0526   0.157647
 C 0.4945 0.1717 0.0263   0.143794
 C 0.72868 0.51561 0.28083   -0.007842
 C 0.77894 0.52502 0.2175   -0.147939
 C 0.83598 0.57406 0.19378   0.083426
 C 0.84386 0.61298 0.2359   -0.140883
 C 0.79616 0.60298 0.3001   -0.037907
 C 0.73792 0.55403 0.32333   -0.139305
 C 0.68682 0.54258 0.39298   0.694356
 C 0.898 0.5843 0.1233   -0.310897
 C 0.85471 0.56138 0.0778   0.705046
 C 0.013 0.5355 0.1179   0.711896
 C 0.78787 0.08936 0.1005   0.673216
 C 0.82389 0.12585 0.13957   -0.134802
 C 0.76835 0.13339 0.20251   -0.022634
 C 0.79507 0.17178 0.23688   -0.143344
 C 0.8751 0.20496 0.20904   0.078964
 C 0.93271 0.195 0.14658   -0.15788
 C 0.90662 0.15584 0.11252   -0.009501
 C 0.9698 0.196 0.2898   0.711574
 C 0.3998 0.991 0.1   -0.165482
 C 0.3507 0.1164 0.0726   -0.027179
 C 0.6408 0.22 0.9816   0.167387
 C 0.4605 0.3003 0.9931   -0.037735
 C 0.5644 0.2917 0.9727   -0.185257
 C 0.3078 0.2444 0.0446   -0.094932
 C 0.418 0.2386 0.0196   -0.002087
 C 0.711 0.39327 0.54573   0.701644
 C 0.75847 0.31344 0.56482   -0.144201
 C 0.84186 0.28828 0.5948   -0.029481
 C 0.88154 0.21542 0.6133   -0.152966
 C 0.84243 0.16568 0.60226   0.089362
 C 0.76123 0.18984 0.5709   -0.159245
 C 0.71836 0.26378 0.5541   -0.017945
 C 0.9246 0.4868 0.5812   0.190491
 C 0.026 0.552 0.5976   0.003699
 C 0.9689 0.6908 0.5636   -0.064281
 C 0.8749 0.6102 0.5526   0.157607
 C 0.8075 0.6717 0.5263   0.147691
 C 0.97488 0.01561 0.78083   -0.010794
 C 0.97854 0.02502 0.7175   -0.145
 C 0.89618 0.07406 0.69378   0.079185
 C 0.80726 0.11298 0.7359   -0.137074
 C 0.80076 0.10298 0.8001   -0.040991
 C 0.88472 0.05403 0.82333   -0.138366
 C 0.87762 0.04258 0.89298   0.6985
 C 0.8944 0.0843 0.6233   -0.307674
 C 0.00611 0.06138 0.5778   0.699972
 C 0.8336 0.0355 0.6179   0.706363
 C 0.52227 0.58936 0.6005   0.674361
 C 0.41069 0.62585 0.63957   -0.133357
 C 0.39575 0.63339 0.70251   -0.024443
 C 0.29627 0.67178 0.73688   -0.143464
 C 0.2109 0.70496 0.70904   0.078162
 C 0.22571 0.695 0.64658   -0.157097
 C 0.32502 0.65584 0.61252   -0.011096
 C 0.0444 0.696 0.7898   0.709542
 C 0.0092 0.491 0.6   -0.162591
 C 0.9603 0.6164 0.5726   -0.028633
 C 0.6576 0.72 0.4816   0.167469
 C 0.7461 0.8003 0.4931   -0.037685
 C 0.6712 0.7917 0.4727   -0.184187
 C 0.9032 0.7444 0.5446   -0.093446
 C 0.8238 0.7386 0.5196   -0.004505
 C 0.15 0.10673 0.95427   0.698906
 C 0.13673 0.18656 0.93518   -0.147611
 C 0.22494 0.21172 0.9052   -0.025754
 C 0.21026 0.28458 0.8867   -0.155506
 C 0.11037 0.33432 0.89774   0.089267
 C 0.02197 0.31016 0.9291   -0.157017
 C 0.03624 0.23622 0.9459   -0.01833
 C 0.4926 0.0132 0.9188   0.19128
 C 0.6756 0.948 0.9024   0.003499
 C 0.7233 0.8092 0.9364   -0.061451
 C 0.5377 0.8898 0.9474   0.157647
 C 0.5055 0.8283 0.9737   0.143794
 C 0.27132 0.48439 0.71917   -0.007842
 C 0.22106 0.47498 0.7825   -0.147939
 C 0.16402 0.42594 0.80622   0.083426
 C 0.15614 0.38702 0.7641   -0.140883
 C 0.20384 0.39702 0.6999   -0.037907
 C 0.26208 0.44597 0.67667   -0.139305
 C 0.31318 0.45742 0.60702   0.694356
 C 0.102 0.4157 0.8767   -0.310897
 C 0.14529 0.43862 0.9222   0.705046
 C 0.987 0.4645 0.8821   0.711896
 C 0.21213 0.91064 0.8995   0.673216
 C 0.17611 0.87415 0.86043   -0.134802
 C 0.23165 0.86661 0.79749   -0.022634
 C 0.20493 0.82822 0.76312   -0.143344
 C 0.1249 0.79504 0.79096   0.078964
 C 0.06729 0.805 0.85342   -0.15788
 C 0.09338 0.84416 0.88748   -0.009501
 C 0.0302 0.804 0.7102   0.711574
 C 0.6002 0.009 0.9   -0.165482
 C 0.6493 0.8836 0.9274   -0.027179
 C 0.3592 0.78 0.0184   0.167387
 C 0.5395 0.6997 0.0069   -0.037735
 C 0.4356 0.7083 0.0273   -0.185258
 C 0.6922 0.7556 0.9554   -0.094932
 C 0.582 0.7614 0.9804   -0.002087
 C 0.8985 0.25 0.25   -0.312729
 C 0.1015 0.75 0.75   -0.312729
 N 0.14231 0.45438 0.4426   -0.355189
 N 0.27505 0.3373 0.4922   -0.34252
 N 0.53929 0.04562 0.0574   -0.3561
 N 0.60455 0.1627 0.0078   -0.340818
 N 0.85769 0.54562 0.5574   -0.355189
 N 0.72495 0.6627 0.5078   -0.34252
 N 0.46071 0.95438 0.9426   -0.3561
 N 0.39545 0.8373 0.9922   -0.340818
 O 0.37314 0.58838 0.47134   -0.612013
 O 0.23863 0.56527 0.45147   -0.612791
 O 0.46684 0.42131 0.45555   -0.645108
 O 0.40008 0.42641 0.37683   -0.571961
 O 0.0362 0.97882 0.09018   -0.604802
 O 0.21648 0.9443 0.07074   -0.621789
 O 0.93286 0.91162 0.02866   -0.608481
 O 0.75537 0.93473 0.04853   -0.612896
 O 0.8437 0.07869 0.04445   -0.644616
 O 0.70332 0.07359 0.12317   -0.571321
 O 0.6052 0.52118 0.40982   -0.601994
 O 0.73152 0.5557 0.42926   -0.621027
 O 0.62686 0.41162 0.52866   -0.612013
 O 0.76137 0.43473 0.54853   -0.612791
 O 0.53316 0.57869 0.54445   -0.645108
 O 0.59992 0.57359 0.62317   -0.571961
 O 0.9638 0.02118 0.90982   -0.604802
 O 0.78352 0.0557 0.92926   -0.621789
 O 0.06714 0.08838 0.97134   -0.608481
 O 0.24463 0.06527 0.95147   -0.612896
 O 0.1563 0.92131 0.95555   -0.644616
 O 0.29668 0.92641 0.87683   -0.571321
 O 0.3948 0.47882 0.59018   -0.601994
 O 0.26848 0.4443 0.57074   -0.621027
 F 0.27171 0.94092 0.35026   -0.225636
 F 0.16702 0.96781 0.44095   -0.208318
 F 0.13072 0.03219 0.35657   -0.208788
 F 0.94622 0.01078 0.41858   -0.210151
 F 0.99552 0.91691 0.48245   -0.203136
 F 0.92455 0.91115 0.41115   -0.214201
 F 0.95766 0.35092 0.24516   -0.213334
 F 0.90683 0.34487 0.16507   -0.201057
 F 0.05804 0.27411 0.17981   -0.212181
 F 0.06289 0.55908 0.14974   -0.227411
 F 0.07578 0.53219 0.05905   -0.210216
 F 0.01948 0.46781 0.14343   -0.209297
 F 0.87558 0.48922 0.08142   -0.211901
 F 0.89488 0.58309 0.01755   -0.203878
 F 0.74685 0.58885 0.08885   -0.216141
 F 0.05374 0.14908 0.25484   -0.213938
 F 0.91677 0.15513 0.33493   -0.201556
 F 0.01196 0.22589 0.32019   -0.212075
 F 0.72829 0.05908 0.64974   -0.225636
 F 0.83298 0.03219 0.55905   -0.208318
 F 0.86928 0.96781 0.64343   -0.208788
 F 0.05378 0.98922 0.58142   -0.210151
 F 0.00448 0.08309 0.51755   -0.203136
 F 0.07545 0.08885 0.58885   -0.214201
 F 0.04234 0.64908 0.75484   -0.213334
 F 0.09317 0.65513 0.83493   -0.201057
 F 0.94196 0.72589 0.82019   -0.212181
 F 0.93711 0.44092 0.85026   -0.227411
 F 0.92422 0.46781 0.94095   -0.210216
 F 0.98052 0.53219 0.85657   -0.209297
 F 0.12442 0.51078 0.91858   -0.211901
 F 0.10512 0.41691 0.98245   -0.203878
 F 0.25315 0.41115 0.91115   -0.216141
 F 0.94626 0.85092 0.74516   -0.213938
 F 0.08323 0.84487 0.66507   -0.201556
 F 0.98804 0.77411 0.67981   -0.212075
