{'_ref': 'TBD', '_srcid': 'CAKYAQ_clean', 'submitters': [{'name': 'Dalar Nazarian Jeff Camp and David Sholl', 'email': 'dalar@gatech.edu jcamp6@gatech.edu'}], '_method': 'VASP DFT with PBE;DDEC'}
data_Zn3H50C44(N2O3)4
_symmetry_space_group_name_H-M   'P 1'
_cell_length_a   8.32069999
_cell_length_b   13.11200023
_cell_length_c   13.42530000
_cell_angle_alpha   71.71599822
_cell_angle_beta   79.75799716
_cell_angle_gamma   88.05500093
_symmetry_Int_Tables_number   1
_chemical_formula_structural   Zn3H50C44(N2O3)4
_chemical_formula_sum   'Zn3 H50 C44 N8 O12'
_cell_volume   1368.22997588
_cell_formula_units_Z   1
loop_
 _symmetry_equiv_pos_site_id
 _symmetry_equiv_pos_as_xyz
  1  'x, y, z'
loop_
 _atom_site_label
 _atom_site_fract_x
 _atom_site_fract_y
 _atom_site_fract_z
 _atom_site_charge
 Zn 0.77437 0.63699 0.36084   0.836945
 Zn 0.22563 0.36301 0.63916   0.836945
 Zn 0.0 0.0 0.0   1.028745
 H 0.8341 0.518 0.2122   0.095587
 H 0.884 0.3467 0.2029   0.13834
 H 0.7312 0.2309 0.5213   0.143168
 H 0.6785 0.4048 0.5219   0.08042
 H 0.9419 0.1632 0.2935   0.059812
 H 0.7525 0.1312 0.3342   0.091284
 H 0.8076 0.9512 0.4157   0.070335
 H 0.9971 0.9805 0.3681   0.066699
 H 0.1311 0.117 0.4104   0.033451
 H 0.0318 0.1798 0.4859   0.061931
 H 0.594 0.7724 0.4823   0.0883
 H 0.5477 0.7896 0.6514   0.132458
 H 0.8311 0.5325 0.7455   0.131781
 H 0.8718 0.5226 0.5743   0.073114
 H 0.5603 0.7217 0.8342   0.0609
 H 0.7502 0.7048 0.8401   0.098751
 H 0.3753 0.5666 0.8951   0.029072
 H 0.4918 0.5038 0.8264   0.061158
 H 0.6721 0.6205 0.0282   0.081764
 H 0.4837 0.6367 0.0166   0.043899
 H 0.5752 0.9013 0.1168   0.136025
 H 0.5146 0.8072 0.0794   0.133894
 H 0.3528 0.8538 0.2671   0.097638
 H 0.3122 0.6757 0.2685   0.117842
 H 0.2475 0.7195 0.1581   0.132407
 H 0.1659 0.482 0.7878   0.095586
 H 0.116 0.6533 0.7971   0.138361
 H 0.2688 0.7691 0.4787   0.143155
 H 0.3215 0.5952 0.4781   0.080418
 H 0.0581 0.8368 0.7065   0.059814
 H 0.2475 0.8688 0.6658   0.091296
 H 0.1924 0.0488 0.5843   0.070334
 H 0.0029 0.0195 0.6319   0.066699
 H 0.8689 0.883 0.5896   0.033446
 H 0.9682 0.8202 0.5141   0.061931
 H 0.406 0.2276 0.5177   0.088297
 H 0.4523 0.2104 0.3486   0.132458
 H 0.1689 0.4675 0.2545   0.131774
 H 0.1282 0.4774 0.4257   0.073114
 H 0.4397 0.2783 0.1658   0.060908
 H 0.2498 0.2952 0.1599   0.098757
 H 0.6247 0.4334 0.1049   0.029085
 H 0.5082 0.4962 0.1736   0.061157
 H 0.3279 0.3795 0.9718   0.081767
 H 0.5163 0.3633 0.9834   0.043899
 H 0.4248 0.0987 0.8832   0.136025
 H 0.4854 0.1928 0.9206   0.133894
 H 0.6472 0.1462 0.7329   0.097628
 H 0.6878 0.3243 0.7315   0.117838
 H 0.7525 0.2805 0.8419   0.132404
 C 0.8121 0.4588 0.27579   0.186728
 C 0.8434 0.35685 0.26979   -0.236673
 C 0.8155 0.26882 0.36162   0.134608
 C 0.7529 0.28871 0.45652   -0.207228
 C 0.7225 0.39275 0.45629   0.167493
 C 0.8495 0.15783 0.35274   -0.008363
 C 0.9105 0.97395 0.43086   0.014343
 C 0.0433 0.10945 0.47279   0.013718
 C 0.6421 0.72301 0.53666   0.176931
 C 0.6141 0.73367 0.63732   -0.223519
 C 0.6832 0.66249 0.71792   0.133496
 C 0.7809 0.58258 0.69267   -0.205185
 C 0.8041 0.57699 0.59072   0.167304
 C 0.652 0.67261 0.82839   -0.003749
 C 0.4686 0.51757 0.89598   0.017252
 C 0.5757 0.58687 0.01597   0.015852
 C 0.6253 0.75083 0.21104   0.704986
 C 0.5208 0.82951 0.14258   -0.347743
 C 0.3468 0.83904 0.19916   -0.042799
 C 0.2513 0.73434 0.22559   -0.354157
 C 0.0784 0.73047 0.28536   0.708409
 C 0.2679 0.9347 0.12708   0.68956
 C 0.1879 0.5412 0.72421   0.186731
 C 0.1566 0.64315 0.73021   -0.236679
 C 0.1845 0.73118 0.63838   0.13461
 C 0.2471 0.71129 0.54348   -0.207224
 C 0.2775 0.60725 0.54371   0.167492
 C 0.1505 0.84217 0.64726   -0.008368
 C 0.0895 0.02605 0.56914   0.014343
 C 0.9567 0.89055 0.52721   0.013719
 C 0.3579 0.27699 0.46334   0.176933
 C 0.3859 0.26633 0.36268   -0.223517
 C 0.3168 0.33751 0.28208   0.133497
 C 0.2191 0.41742 0.30733   -0.205182
 C 0.1959 0.42301 0.40928   0.167304
 C 0.348 0.32739 0.17161   -0.003755
 C 0.5314 0.48243 0.10402   0.01725
 C 0.4243 0.41313 0.98403   0.015851
 C 0.3747 0.24917 0.78896   0.704986
 C 0.4792 0.17049 0.85742   -0.347744
 C 0.6532 0.16096 0.80084   -0.042796
 C 0.7487 0.26566 0.77441   -0.354155
 C 0.9216 0.26953 0.71464   0.708408
 C 0.7321 0.0653 0.87292   0.689559
 N 0.7521 0.47815 0.36745   -0.34999
 N 0.8887 0.07907 0.44947   -0.350118
 N 0.7351 0.64515 0.51293   -0.347638
 N 0.6127 0.56867 0.91158   -0.350433
 N 0.2479 0.52185 0.63255   -0.34999
 N 0.1113 0.92093 0.55053   -0.350117
 N 0.2649 0.35485 0.48707   -0.347638
 N 0.3873 0.43133 0.08842   -0.350431
 O 0.74636 0.71227 0.16768   -0.621871
 O 0.58935 0.72749 0.31208   -0.619405
 O 0.01024 0.63705 0.31773   -0.632459
 O 0.00937 0.81085 0.30077   -0.609928
 O 0.18361 0.91482 0.06593   -0.622336
 O 0.29648 0.02672 0.13089   -0.608442
 O 0.25364 0.28773 0.83232   -0.621872
 O 0.41065 0.27251 0.68792   -0.619404
 O 0.98976 0.36295 0.68227   -0.632459
 O 0.99063 0.18915 0.69923   -0.609928
 O 0.81639 0.08518 0.93407   -0.622336
 O 0.70352 0.97328 0.86911   -0.608442
