{'_ref': 'TBD', '_srcid': 'CAKYAQ_clean', 'submitters': [{'name': 'Dalar Nazarian Jeff Camp and David Sholl', 'email': 'dalar@gatech.edu jcamp6@gatech.edu'}], '_method': 'VASP DFT with PBE;DDEC'}
data_Zn2H22C27(NO)8
_symmetry_space_group_name_H-M   'P 1'
_cell_length_a   8.98499981
_cell_length_b   19.11399981
_cell_length_c   19.99470000
_cell_angle_alpha   92.37559877
_cell_angle_beta   102.98399788
_cell_angle_gamma   90.00000077
_symmetry_Int_Tables_number   1
_chemical_formula_structural   Zn2H22C27(NO)8
_chemical_formula_sum   'Zn8 H88 C108 N32 O32'
_cell_volume   3343.05241076
_cell_formula_units_Z   4
loop_
 _symmetry_equiv_pos_site_id
 _symmetry_equiv_pos_as_xyz
  1  'x, y, z'
loop_
 _atom_site_label
 _atom_site_fract_x
 _atom_site_fract_y
 _atom_site_fract_z
 _atom_site_charge
 Zn 0.40412 0.40103 0.453   0.912837
 Zn 0.95502 0.91122 0.05814   0.911309
 Zn 0.95112 0.09897 0.547   0.913208
 Zn 0.89688 0.58878 0.94186   0.910751
 Zn 0.59588 0.59897 0.547   0.912837
 Zn 0.04498 0.08878 0.94186   0.911309
 Zn 0.04888 0.90103 0.453   0.913208
 Zn 0.10312 0.41122 0.05814   0.910751
 H 0.7632 0.7981 0.402   0.118465
 H 0.7683 0.6836 0.3426   0.15444
 H 0.1911 0.7604 0.3994   0.116973
 H 0.174 0.6361 0.3556   0.119017
 H 0.0156 0.5982 0.3434   0.114852
 H 0.2695 0.5902 0.25   0.125851
 H 0.1349 0.5527 0.1976   0.111282
 H 0.3729 0.5297 0.3594   0.116789
 H 0.0631 0.3855 0.355   0.105921
 H 0.9703 0.4581 0.2564   0.156069
 H 0.1893 0.6806 0.1948   0.120467
 H 0.213 0.7162 0.268   0.110682
 H 0.9174 0.7933 0.2708   0.099033
 H 0.8325 0.8865 0.1916   0.126693
 H 0.1078 0.7666 0.1118   0.120318
 H 0.8296 0.6502 0.2368   0.106145
 H 0.8689 0.5722 0.2224   0.122972
 H 0.6633 0.6926 0.1288   0.148512
 H 0.654 0.6816 0.0062   0.109355
 H 0.0096 0.5764 0.0998   0.095488
 H 0.5465 0.9903 0.1176   0.103062
 H 0.0 0.3897 0.5408   0.078346
 H 0.3612 0.7019 0.598   0.118774
 H 0.4257 0.8164 0.6574   0.155129
 H 0.7917 0.7396 0.6006   0.117925
 H 0.8184 0.8639 0.6444   0.118453
 H 0.6722 0.9018 0.6566   0.115063
 H 0.0195 0.9098 0.75   0.125013
 H 0.9373 0.9473 0.8024   0.111083
 H 0.0135 0.9703 0.6406   0.117418
 H 0.7081 0.1145 0.645   0.105608
 H 0.7139 0.0419 0.7436   0.155554
 H 0.9945 0.8194 0.8052   0.122014
 H 0.945 0.7838 0.732   0.111782
 H 0.6466 0.7067 0.7292   0.098939
 H 0.6409 0.6135 0.8084   0.126254
 H 0.996 0.7334 0.8882   0.120619
 H 0.5928 0.8498 0.7632   0.106865
 H 0.6465 0.9278 0.7776   0.12396
 H 0.5345 0.8074 0.8712   0.148454
 H 0.6478 0.8184 0.9938   0.10854
 H 0.9098 0.9236 0.9002   0.095416
 H 0.4289 0.5097 0.8824   0.102648
 H 0.4592 0.1103 0.4592   0.078775
 H 0.2368 0.2019 0.598   0.118466
 H 0.2317 0.3164 0.6574   0.15444
 H 0.8089 0.2396 0.6006   0.116974
 H 0.826 0.3639 0.6444   0.119017
 H 0.9844 0.4018 0.6566   0.114852
 H 0.7305 0.4098 0.75   0.125851
 H 0.8651 0.4473 0.8024   0.111282
 H 0.6271 0.4703 0.6406   0.116789
 H 0.9369 0.6145 0.645   0.105922
 H 0.0297 0.5419 0.7436   0.156069
 H 0.8107 0.3194 0.8052   0.120467
 H 0.787 0.2838 0.732   0.110681
 H 0.0826 0.2067 0.7292   0.099033
 H 0.1675 0.1135 0.8084   0.126693
 H 0.8922 0.2334 0.8882   0.120318
 H 0.1704 0.3498 0.7632   0.106145
 H 0.1311 0.4278 0.7776   0.122972
 H 0.3367 0.3074 0.8712   0.148512
 H 0.346 0.3184 0.9938   0.109355
 H 0.9904 0.4236 0.9002   0.095488
 H 0.4535 0.0097 0.8824   0.103062
 H 0.0 0.6103 0.4592   0.078346
 H 0.6388 0.2981 0.402   0.118774
 H 0.5743 0.1836 0.3426   0.155129
 H 0.2083 0.2604 0.3994   0.117926
 H 0.1816 0.1361 0.3556   0.118453
 H 0.3278 0.0982 0.3434   0.115063
 H 0.9805 0.0902 0.25   0.125014
 H 0.0627 0.0527 0.1976   0.111083
 H 0.9865 0.0297 0.3594   0.117418
 H 0.2919 0.8855 0.355   0.105608
 H 0.2861 0.9581 0.2564   0.155554
 H 0.0055 0.1806 0.1948   0.122014
 H 0.055 0.2162 0.268   0.111782
 H 0.3534 0.2933 0.2708   0.098939
 H 0.3591 0.3865 0.1916   0.126254
 H 0.004 0.2666 0.1118   0.120619
 H 0.4072 0.1502 0.2368   0.106865
 H 0.3535 0.0722 0.2224   0.12396
 H 0.4655 0.1926 0.1288   0.148454
 H 0.3522 0.1816 0.0062   0.10854
 H 0.0902 0.0764 0.0998   0.095416
 H 0.5711 0.4903 0.1176   0.102648
 H 0.5408 0.8897 0.5408   0.078775
 C 0.84998 0.7761 0.39356   0.058216
 C 0.85144 0.713 0.36048   -0.150865
 C 0.08551 0.7561 0.39202   0.138898
 C 0.0676 0.6389 0.3318   -0.160334
 C 0.0597 0.634 0.2536   0.049262
 C 0.16658 0.5719 0.24436   -0.112269
 C 0.28435 0.5026 0.3461   0.158667
 C 0.11445 0.4238 0.3433   0.024321
 C 0.06187 0.4639 0.28894   -0.131267
 C 0.13605 0.6977 0.2293   -0.117594
 C 0.94483 0.7992 0.22926   -0.150615
 C 0.89876 0.8506 0.18552   0.047302
 C 0.04955 0.7849 0.1413   0.153458
 C 0.89465 0.6203 0.2155   -0.09326
 C 0.73157 0.6681 0.10814   -0.144523
 C 0.72708 0.6618 0.04056   0.037164
 C 0.92262 0.604 0.09164   0.176362
 C 0.26263 0.9491 0.06526   0.651573
 C 0.38573 0.9738 0.02986   -0.118251
 C 0.3554 0.9808 0.9586   -0.111768
 C 0.52838 0.9939 0.07016   -0.064465
 C 0.20867 0.9592 0.90994   0.715684
 C 0.27886 0.434 0.57392   0.708297
 C 0.13798 0.4689 0.53296   -0.103798
 C 0.000259999999997 0.4344 0.52412   -0.056329
 C 0.13851 0.5374 0.50822   -0.1249
 C 0.28327 0.5771 0.51114   0.647694
 C 0.45642 0.7239 0.60644   0.057681
 C 0.49096 0.787 0.63952   -0.151479
 C 0.69349 0.7439 0.60798   0.138636
 C 0.7358 0.8611 0.6682   -0.159387
 C 0.8061 0.866 0.7464   0.050776
 C 0.92222 0.9281 0.75564   -0.111542
 C 0.93825 0.9974 0.6539   0.155909
 C 0.77115 0.0762 0.6567   0.025466
 C 0.77293 0.0361 0.71106   -0.132329
 C 0.90675 0.8023 0.7707   -0.121102
 C 0.71557 0.7008 0.77074   -0.150213
 C 0.71324 0.6494 0.81448   0.046322
 C 0.90825 0.7151 0.8587   0.15272
 C 0.67915 0.8797 0.7845   -0.096888
 C 0.62343 0.8319 0.89186   -0.144561
 C 0.68652 0.8382 0.95944   0.038192
 C 0.83098 0.896 0.90836   0.175415
 C 0.19737 0.5509 0.93474   0.654885
 C 0.35587 0.5262 0.97014   -0.118587
 C 0.3968 0.5192 0.0414   -0.11104
 C 0.45822 0.5061 0.92984   -0.063535
 C 0.29873 0.5408 0.09006   0.716078
 C 0.70494 0.066 0.42608   0.709025
 C 0.60502 0.0311 0.46704   -0.102373
 C 0.47614 0.0656 0.47588   -0.059168
 C 0.63029 0.9626 0.49178   -0.124074
 C 0.77213 0.9229 0.48886   0.64983
 C 0.15002 0.2239 0.60644   0.058216
 C 0.14856 0.287 0.63952   -0.150865
 C 0.91449 0.2439 0.60798   0.138897
 C 0.9324 0.3611 0.6682   -0.160334
 C 0.9403 0.366 0.7464   0.049262
 C 0.83342 0.4281 0.75564   -0.112269
 C 0.71565 0.4974 0.6539   0.158667
 C 0.88555 0.5762 0.6567   0.024321
 C 0.93813 0.5361 0.71106   -0.131268
 C 0.86395 0.3023 0.7707   -0.117594
 C 0.05517 0.2008 0.77074   -0.150615
 C 0.10124 0.1494 0.81448   0.047301
 C 0.95045 0.2151 0.8587   0.153458
 C 0.10535 0.3797 0.7845   -0.09326
 C 0.26843 0.3319 0.89186   -0.144523
 C 0.27292 0.3382 0.95944   0.037164
 C 0.07738 0.396 0.90836   0.176362
 C 0.73737 0.0509 0.93474   0.651573
 C 0.61427 0.0262 0.97014   -0.11825
 C 0.6446 0.0192 0.0414   -0.111769
 C 0.47162 0.0061 0.92984   -0.064467
 C 0.79133 0.0408 0.09006   0.715684
 C 0.72114 0.566 0.42608   0.708297
 C 0.86202 0.5311 0.46704   -0.103798
 C 0.99974 0.5656 0.47588   -0.056328
 C 0.86149 0.4626 0.49178   -0.124899
 C 0.71673 0.4229 0.48886   0.647694
 C 0.54358 0.2761 0.39356   0.057681
 C 0.50904 0.213 0.36048   -0.151479
 C 0.30651 0.2561 0.39202   0.138635
 C 0.2642 0.1389 0.3318   -0.159387
 C 0.1939 0.134 0.2536   0.050776
 C 0.07778 0.0719 0.24436   -0.111542
 C 0.06175 0.0026 0.3461   0.155909
 C 0.22885 0.9238 0.3433   0.025465
 C 0.22707 0.9639 0.28894   -0.132329
 C 0.09325 0.1977 0.2293   -0.121102
 C 0.28443 0.2992 0.22926   -0.150213
 C 0.28676 0.3506 0.18552   0.046321
 C 0.09175 0.2849 0.1413   0.15272
 C 0.32085 0.1203 0.2155   -0.096889
 C 0.37657 0.1681 0.10814   -0.144562
 C 0.31348 0.1618 0.04056   0.038192
 C 0.16902 0.104 0.09164   0.175415
 C 0.80263 0.4491 0.06526   0.654885
 C 0.64413 0.4738 0.02986   -0.118587
 C 0.6032 0.4808 0.9586   -0.111041
 C 0.54178 0.4939 0.07016   -0.063537
 C 0.70127 0.4592 0.90994   0.716078
 C 0.29506 0.934 0.57392   0.709025
 C 0.39498 0.9689 0.53296   -0.102373
 C 0.52386 0.9344 0.52412   -0.059169
 C 0.36971 0.0374 0.50822   -0.124074
 C 0.22787 0.0771 0.51114   0.64983
 N 0.99557 0.8028 0.41274   -0.381746
 N 0.00285 0.7014 0.3589   0.069047
 N 0.25469 0.4481 0.37818   -0.390104
 N 0.17044 0.5147 0.29128   0.055412
 N 0.04017 0.7567 0.20054   0.042007
 N 0.96616 0.8415 0.13012   -0.400995
 N 0.84721 0.6217 0.03022   -0.405036
 N 0.85587 0.6313 0.14074   0.036783
 N 0.58283 0.6972 0.58726   -0.381461
 N 0.64395 0.7986 0.6411   0.068161
 N 0.87651 0.0519 0.62182   -0.389865
 N 0.87916 0.9853 0.70872   0.057912
 N 0.83963 0.7433 0.79946   0.042438
 N 0.83604 0.6585 0.86988   -0.399575
 N 0.81699 0.8783 0.96978   -0.406789
 N 0.71513 0.8687 0.85926   0.039658
 N 0.00443 0.1972 0.58726   -0.381746
 N 0.99715 0.2986 0.6411   0.069047
 N 0.74531 0.5519 0.62182   -0.390104
 N 0.82956 0.4853 0.70872   0.055412
 N 0.95983 0.2433 0.79946   0.042007
 N 0.03384 0.1585 0.86988   -0.400994
 N 0.15279 0.3783 0.96978   -0.405036
 N 0.14413 0.3687 0.85926   0.036783
 N 0.41717 0.3028 0.41274   -0.381461
 N 0.35605 0.2014 0.3589   0.068161
 N 0.12349 0.9481 0.37818   -0.389865
 N 0.12084 0.0147 0.29128   0.057912
 N 0.16037 0.2567 0.20054   0.042438
 N 0.16396 0.3415 0.13012   -0.399575
 N 0.18301 0.1217 0.03022   -0.406789
 N 0.28487 0.1313 0.14074   0.039658
 O 0.29168 0.9453 0.12796   -0.622742
 O 0.13461 0.9351 0.02542   -0.600958
 O 0.19876 0.9004 0.88252   -0.608627
 O 0.10517 0.00554 0.89494   -0.645477
 O 0.35438 0.3942 0.54156   -0.659771
 O 0.30348 0.4406 0.63676   -0.615524
 O 0.40639 0.5486 0.54298   -0.598357
 O 0.27973 0.6331 0.48346   -0.604794
 O 0.16372 0.5547 0.87204   -0.624785
 O 0.10919 0.5649 0.97458   -0.602524
 O 0.31624 0.5996 0.11748   -0.608627
 O 0.21023 0.49446 0.10506   -0.646839
 O 0.81282 0.1058 0.45844   -0.660107
 O 0.66672 0.0594 0.36324   -0.616014
 O 0.86341 0.9514 0.45702   -0.599289
 O 0.79627 0.8669 0.51654   -0.605849
 O 0.70832 0.0547 0.87204   -0.622742
 O 0.86539 0.0649 0.97458   -0.600957
 O 0.80124 0.0996 0.11748   -0.608627
 O 0.89483 0.99446 0.10506   -0.645477
 O 0.64562 0.6058 0.45844   -0.659771
 O 0.69652 0.5594 0.36324   -0.615524
 O 0.59361 0.4514 0.45702   -0.598357
 O 0.72027 0.3669 0.51654   -0.604794
 O 0.83628 0.4453 0.12796   -0.624784
 O 0.89081 0.4351 0.02542   -0.602524
 O 0.68376 0.4004 0.88252   -0.608627
 O 0.78977 0.50554 0.89494   -0.646839
 O 0.18718 0.8942 0.54156   -0.660107
 O 0.33328 0.9406 0.63676   -0.616014
 O 0.13659 0.0486 0.54298   -0.599289
 O 0.20373 0.1331 0.48346   -0.605849
