{'_ref': 'TBD', '_srcid': 'CAKYAQ_clean', 'submitters': [{'name': 'Dalar Nazarian Jeff Camp and David Sholl', 'email': 'dalar@gatech.edu jcamp6@gatech.edu'}], '_method': 'VASP DFT with PBE;DDEC'}
data_HoH17C30(NO3)2
_symmetry_space_group_name_H-M   'P 1'
_cell_length_a   10.80199965
_cell_length_b   12.14300031
_cell_length_c   12.24500000
_cell_angle_alpha   94.03100119
_cell_angle_beta   106.64100306
_cell_angle_gamma   101.35600036
_symmetry_Int_Tables_number   1
_chemical_formula_structural   HoH17C30(NO3)2
_chemical_formula_sum   'Ho2 H34 C60 N4 O12'
_cell_volume   1494.980174
_cell_formula_units_Z   2
loop_
 _symmetry_equiv_pos_site_id
 _symmetry_equiv_pos_as_xyz
  1  'x, y, z'
loop_
 _atom_site_label
 _atom_site_fract_x
 _atom_site_fract_y
 _atom_site_fract_z
 _atom_site_charge
 Ho 0.917 0.19034 0.00188   2.113745
 Ho 0.083 0.80966 0.99812   2.113745
 H 0.9781 0.1859 0.7136   0.105351
 H 0.9814 0.2104 0.5313   0.096398
 H 0.0138 0.8665 0.6609   0.10268
 H 0.1079 0.4667 0.3368   0.100394
 H 0.2384 0.6065 0.5101   0.106312
 H 0.7428 0.3026 0.3161   0.097681
 H 0.3982 0.3305 0.0918   0.105201
 H 0.6397 0.4131 0.1686   0.091722
 H 0.1793 0.4573 0.8312   0.093967
 H 0.7173 0.9333 0.9774   0.077103
 H 0.5008 0.8286 0.9072   0.128263
 H 0.3382 0.9107 0.803   0.110334
 H 0.2757 0.0796 0.7131   0.100535
 H 0.334 0.2623 0.6893   0.110726
 H 0.5147 0.4358 0.7071   0.102283
 H 0.7332 0.5241 0.7792   0.139389
 H 0.8813 0.4308 0.884   0.078067
 H 0.0219 0.8141 0.2864   0.105351
 H 0.0186 0.7896 0.4687   0.096398
 H 0.9862 0.1335 0.3391   0.10268
 H 0.8921 0.5333 0.6632   0.100393
 H 0.7616 0.3935 0.4899   0.10631
 H 0.2572 0.6974 0.6839   0.097678
 H 0.6018 0.6695 0.9082   0.1052
 H 0.3603 0.5869 0.8314   0.091718
 H 0.8207 0.5427 0.1688   0.093964
 H 0.2827 0.0667 0.0226   0.077103
 H 0.4992 0.1714 0.0928   0.128263
 H 0.6618 0.0893 0.197   0.110334
 H 0.7243 0.9204 0.2869   0.100535
 H 0.666 0.7377 0.3107   0.110726
 H 0.4853 0.5642 0.2929   0.102283
 H 0.2668 0.4759 0.2208   0.139389
 H 0.1187 0.5692 0.116   0.078067
 C 0.9916 0.006 0.8234   0.827301
 C 0.9935 0.0207 0.7033   -0.155542
 C 0.9848 0.1264 0.6651   -0.038981
 C 0.9864 0.1403 0.5561   -0.136093
 C 0.9955 0.0528 0.4804   0.037975
 C 0.0052 0.935 0.6335   -0.075119
 C 0.912 0.3175 0.1933   0.656391
 C 0.925 0.3766 0.3092   -0.110723
 C 0.0384 0.4523 0.3681   -0.073051
 C 0.0525 0.5103 0.4776   0.038773
 C 0.1681 0.5905 0.5404   -0.134854
 C 0.8207 0.3551 0.3564   -0.050656
 C 0.1497 0.3061 0.9727   0.661121
 C 0.2703 0.381 0.9642   -0.119634
 C 0.3912 0.3826 0.0394   -0.08944
 C 0.5052 0.461 0.0397   0.035147
 C 0.6309 0.4649 0.1161   -0.123582
 C 0.2609 0.4587 0.8843   -0.040554
 C 0.6519 0.9672 0.9359   0.229361
 C 0.5217 0.9034 0.8935   -0.181329
 C 0.4256 0.9521 0.8318   -0.005697
 C 0.4583 0.0629 0.8119   -0.022346
 C 0.3634 0.119 0.7456   -0.084265
 C 0.3985 0.2267 0.7295   -0.11115
 C 0.5316 0.2876 0.7722   -0.010324
 C 0.5752 0.3986 0.7506   -0.019139
 C 0.7038 0.4505 0.7926   -0.182031
 C 0.7923 0.3937 0.8561   0.247875
 C 0.6283 0.2343 0.8362   0.192581
 C 0.5897 0.1209 0.8585   0.191569
 C 0.0084 0.994 0.1766   0.827301
 C 0.0065 0.9793 0.2967   -0.155542
 C 0.0152 0.8736 0.3349   -0.038981
 C 0.0136 0.8597 0.4439   -0.136092
 C 0.0045 0.9472 0.5196   0.037974
 C 0.9948 0.065 0.3665   -0.07512
 C 0.088 0.6825 0.8067   0.656392
 C 0.075 0.6234 0.6908   -0.110728
 C 0.9616 0.5477 0.6319   -0.07305
 C 0.9475 0.4897 0.5224   0.038774
 C 0.8319 0.4095 0.4596   -0.134829
 C 0.1793 0.6449 0.6436   -0.050629
 C 0.8503 0.6939 0.0273   0.661122
 C 0.7297 0.619 0.0358   -0.119639
 C 0.6088 0.6174 0.9606   -0.089438
 C 0.4948 0.539 0.9603   0.035143
 C 0.3691 0.5351 0.8839   -0.123552
 C 0.7391 0.5413 0.1157   -0.040524
 C 0.3481 0.0328 0.0641   0.229361
 C 0.4783 0.0966 0.1065   -0.181329
 C 0.5744 0.0479 0.1682   -0.005697
 C 0.5417 0.9371 0.1881   -0.022346
 C 0.6366 0.881 0.2544   -0.084265
 C 0.6015 0.7733 0.2705   -0.11115
 C 0.4684 0.7124 0.2278   -0.010324
 C 0.4248 0.6014 0.2494   -0.019139
 C 0.2962 0.5495 0.2074   -0.182031
 C 0.2077 0.6063 0.1439   0.247876
 C 0.3717 0.7657 0.1638   0.192581
 C 0.4103 0.8791 0.1415   0.191569
 N 0.6858 0.0732 0.9197   -0.493829
 N 0.7576 0.2891 0.8798   -0.517927
 N 0.3142 0.9268 0.0803   -0.493829
 N 0.2424 0.7109 0.1202   -0.517927
 O 0.932 0.0656 0.8667   -0.753049
 O 0.0456 0.9329 0.8717   -0.754538
 O 0.0091 0.3376 0.1549   -0.684073
 O 0.8087 0.2485 0.1384   -0.666573
 O 0.038 0.3185 0.9134   -0.682539
 O 0.1567 0.23 0.0387   -0.661251
 O 0.068 0.9344 0.1333   -0.753049
 O 0.9544 0.0671 0.1283   -0.754538
 O 0.9909 0.6624 0.8451   -0.684073
 O 0.1913 0.7515 0.8616   -0.666573
 O 0.962 0.6815 0.0866   -0.682539
 O 0.8433 0.77 0.9613   -0.661251
