{'_ref': 'TBD', '_srcid': 'CAKYAQ_clean', 'submitters': [{'name': 'Dalar Nazarian Jeff Camp and David Sholl', 'email': 'dalar@gatech.edu jcamp6@gatech.edu'}], '_method': 'VASP DFT with PBE;DDEC'}
data_YbH17C30(NO3)2
_symmetry_space_group_name_H-M   'P 1'
_cell_length_a   10.87619984
_cell_length_b   12.22939987
_cell_length_c   12.33280000
_cell_angle_alpha   93.93170215
_cell_angle_beta   106.67400098
_cell_angle_gamma   101.26100069
_symmetry_Int_Tables_number   1
_chemical_formula_structural   YbH17C30(NO3)2
_chemical_formula_sum   'Yb2 H34 C60 N4 O12'
_cell_volume   1527.53891387
_cell_formula_units_Z   2
loop_
 _symmetry_equiv_pos_site_id
 _symmetry_equiv_pos_as_xyz
  1  'x, y, z'
loop_
 _atom_site_label
 _atom_site_fract_x
 _atom_site_fract_y
 _atom_site_fract_z
 _atom_site_charge
 Yb 0.91598 0.19028 0.00188   1.264105
 Yb 0.08402 0.80972 0.99812   1.264106
 H 0.7111 0.9333 0.9743   0.072204
 H 0.4956 0.8295 0.9042   0.12341
 H 0.3356 0.9111 0.8022   0.10467
 H 0.2734 0.0837 0.7138   0.094292
 H 0.3302 0.2626 0.6894   0.104038
 H 0.5121 0.4357 0.7096   0.098478
 H 0.7308 0.5243 0.7779   0.134214
 H 0.8781 0.4301 0.8837   0.076766
 H 0.7441 0.3012 0.3179   0.100371
 H 0.7604 0.3938 0.4887   0.108896
 H 0.1049 0.4674 0.3371   0.098725
 H 0.1782 0.4589 0.8347   0.094954
 H 0.3604 0.5886 0.8314   0.095916
 H 0.3965 0.3281 0.0881   0.103984
 H 0.9758 0.1851 0.7112   0.111084
 H 0.9803 0.2099 0.5294   0.098522
 H 0.0134 0.867 0.6606   0.106214
 H 0.2889 0.0667 0.0257   0.072204
 H 0.5044 0.1705 0.0958   0.123411
 H 0.6644 0.0889 0.1978   0.10467
 H 0.7266 0.9163 0.2862   0.094292
 H 0.6698 0.7374 0.3106   0.104038
 H 0.4879 0.5643 0.2904   0.098476
 H 0.2692 0.4757 0.2221   0.134213
 H 0.1219 0.5699 0.1163   0.076766
 H 0.2559 0.6988 0.6821   0.100371
 H 0.2396 0.6062 0.5113   0.108894
 H 0.8951 0.5326 0.6629   0.098725
 H 0.8218 0.5411 0.1653   0.094954
 H 0.6396 0.4114 0.1686   0.095916
 H 0.6035 0.6719 0.9119   0.103985
 H 0.0242 0.8149 0.2888   0.111084
 H 0.0197 0.7901 0.4706   0.098522
 H 0.9866 0.133 0.3394   0.106215
 C 0.6466 0.9676 0.9331   0.197485
 C 0.5164 0.9038 0.8908   -0.176749
 C 0.4223 0.9522 0.8304   -0.022171
 C 0.4539 0.0649 0.8094   -0.021075
 C 0.3608 0.1221 0.7452   -0.083142
 C 0.3948 0.2276 0.729   -0.109895
 C 0.5295 0.29 0.7712   -0.013976
 C 0.5727 0.3983 0.7515   -0.038477
 C 0.7019 0.4515 0.7921   -0.181673
 C 0.7896 0.3937 0.8555   0.204424
 C 0.6252 0.237 0.8366   0.166946
 C 0.5871 0.1219 0.8562   0.157234
 C 0.9116 0.3184 0.1942   0.603246
 C 0.9248 0.3769 0.3108   -0.109531
 C 0.8206 0.3542 0.3575   -0.05611
 C 0.8307 0.4086 0.4593   -0.122447
 C 0.0364 0.4528 0.3689   -0.065953
 C 0.9482 0.489 0.5228   0.029067
 C 0.1487 0.3064 0.9712   0.612528
 C 0.2716 0.3833 0.9656   -0.121112
 C 0.26 0.4602 0.8862   -0.030562
 C 0.3691 0.5374 0.8841   -0.092988
 C 0.3903 0.3817 0.038   -0.049657
 C 0.494 0.5401 0.9605   0.021008
 C 0.991 0.0059 0.8226   0.690682
 C 0.9944 0.022 0.7028   -0.109032
 C 0.9838 0.1263 0.6636   -0.046769
 C 0.9855 0.1406 0.5546   -0.097751
 C 0.0054 0.9351 0.6331   -0.057928
 C 0.9951 0.0529 0.4806   0.02485
 C 0.3534 0.0324 0.0669   0.197485
 C 0.4836 0.0962 0.1092   -0.176749
 C 0.5777 0.0478 0.1696   -0.022171
 C 0.5461 0.9351 0.1906   -0.021075
 C 0.6392 0.8779 0.2548   -0.083141
 C 0.6052 0.7724 0.271   -0.109895
 C 0.4705 0.71 0.2288   -0.013976
 C 0.4273 0.6017 0.2485   -0.038476
 C 0.2981 0.5485 0.2079   -0.181673
 C 0.2104 0.6063 0.1445   0.204424
 C 0.3748 0.763 0.1634   0.166946
 C 0.4129 0.8781 0.1438   0.157234
 C 0.0884 0.6816 0.8058   0.603245
 C 0.0752 0.6231 0.6892   -0.10953
 C 0.1794 0.6458 0.6425   -0.05611
 C 0.1693 0.5914 0.5407   -0.122446
 C 0.9636 0.5472 0.6311   -0.065959
 C 0.0518 0.511 0.4772   0.029061
 C 0.8513 0.6936 0.0288   0.612528
 C 0.7284 0.6167 0.0344   -0.12111
 C 0.74 0.5398 0.1138   -0.030562
 C 0.6309 0.4626 0.1159   -0.092987
 C 0.6097 0.6183 0.962   -0.049661
 C 0.506 0.4599 0.0395   0.021004
 C 0.009 0.9941 0.1774   0.690682
 C 0.0056 0.978 0.2972   -0.109031
 C 0.0162 0.8737 0.3364   -0.046769
 C 0.0145 0.8594 0.4454   -0.09775
 C 0.9946 0.0649 0.3669   -0.057932
 C 0.0049 0.9471 0.5194   0.024847
 N 0.6824 0.0731 0.9178   -0.366695
 N 0.7547 0.2899 0.878   -0.386404
 N 0.3176 0.9269 0.0822   -0.366695
 N 0.2453 0.7101 0.122   -0.386404
 O 0.8083 0.2486 0.1398   -0.560719
 O 0.0085 0.339 0.1557   -0.567814
 O 0.0391 0.3187 0.9133   -0.546545
 O 0.1573 0.2309 0.0379   -0.522677
 O 0.9307 0.0654 0.8648   -0.575061
 O 0.0467 0.9347 0.8713   -0.565393
 O 0.1917 0.7514 0.8602   -0.560719
 O 0.9915 0.661 0.8443   -0.567814
 O 0.9609 0.6813 0.0867   -0.546546
 O 0.8427 0.7691 0.9621   -0.522677
 O 0.0693 0.9346 0.1352   -0.575061
 O 0.9533 0.0653 0.1287   -0.565393
