{'_ref': 'TBD', '_srcid': 'CAKYAQ_clean', 'submitters': [{'name': 'Dalar Nazarian Jeff Camp and David Sholl', 'email': 'dalar@gatech.edu jcamp6@gatech.edu'}], '_method': 'VASP DFT with PBE;DDEC'}
data_Cd3H30C24(NO3)4
_symmetry_space_group_name_H-M   'P 1'
_cell_length_a   9.04390000
_cell_length_b   16.69500000
_cell_length_c   26.52300000
_cell_angle_alpha   90.00000000
_cell_angle_beta   90.00000000
_cell_angle_gamma   90.00000000
_symmetry_Int_Tables_number   1
_chemical_formula_structural   Cd3H30C24(NO3)4
_chemical_formula_sum   'Cd12 H120 C96 N16 O48'
_cell_volume   4004.65235019
_cell_formula_units_Z   4
loop_
 _symmetry_equiv_pos_site_id
 _symmetry_equiv_pos_as_xyz
  1  'x, y, z'
loop_
 _atom_site_label
 _atom_site_fract_x
 _atom_site_fract_y
 _atom_site_fract_z
 _atom_site_charge
 Cd 0.02251 0.58963 0.88987   1.228502
 Cd 0.47453 0.02527 0.02191   0.984081
 Cd 0.47792 0.12774 0.75529   0.991771
 Cd 0.47749 0.08963 0.88987   1.228502
 Cd 0.02547 0.52527 0.02191   0.984081
 Cd 0.02208 0.62774 0.75529   0.991771
 Cd 0.97749 0.41037 0.38987   1.228502
 Cd 0.52547 0.97473 0.52191   0.984081
 Cd 0.52208 0.87226 0.25529   0.991771
 Cd 0.52251 0.91037 0.38987   1.228502
 Cd 0.97453 0.47473 0.52191   0.984081
 Cd 0.97792 0.37226 0.25529   0.991771
 H 0.3814 0.3891 0.8926   0.110137
 H 0.5031 0.4732 0.9765   0.078386
 H 0.5065 0.505 0.9208   0.091764
 H 0.6649 0.3981 0.897   0.101407
 H 0.7532 0.3081 0.9593   0.077861
 H 0.6584 0.3514 0.000700000000002   0.083177
 H 0.5395 0.2643 0.9181   0.087351
 H 0.2996 0.2936 0.95   0.079769
 H 0.3674 0.3422 0.9951   0.065026
 H 0.6547 0.7744 0.8712   0.089594
 H 0.5074 0.7026 0.7878   0.078384
 H 0.5057 0.6674 0.8427   0.087422
 H 0.3812 0.7818 0.8722   0.094264
 H 0.3006 0.8805 0.8168   0.079394
 H 0.3748 0.8357 0.7713   0.078864
 H 0.5311 0.901 0.854   0.092177
 H 0.748 0.8681 0.8147   0.074448
 H 0.6605 0.8277 0.7705   0.070774
 H 0.5417 0.0222 0.6536   0.087389
 H 0.4062 0.0743 0.6367   0.087263
 H 0.4095 0.2164 0.649   0.086981
 H 0.5505 0.2571 0.6721   0.0957
 H 0.7637 0.0891 0.6892   0.093167
 H 0.7602 0.1826 0.6957   0.092117
 H 0.7803 0.2303 0.5687   0.07911
 H 0.7711 0.2674 0.6229   0.072846
 H 0.781 0.0888 0.5588   0.074076
 H 0.7732 0.0331 0.6062   0.071028
 H 0.4233 0.1595 0.5649   0.085377
 H 0.57 0.1648 0.5336   0.0925
 H 0.1186 0.8891 0.8926   0.110137
 H 0.9969 0.9732 0.9765   0.078386
 H 0.9935 0.005 0.9208   0.091764
 H 0.8351 0.8981 0.897   0.101407
 H 0.7468 0.8081 0.9593   0.077861
 H 0.8416 0.8514 0.000700000000002   0.083177
 H 0.9605 0.7643 0.9181   0.087351
 H 0.2004 0.7936 0.95   0.079769
 H 0.1326 0.8422 0.9951   0.065026
 H 0.8453 0.2744 0.8712   0.089594
 H 0.9926 0.2026 0.7878   0.078384
 H 0.9943 0.1674 0.8427   0.087422
 H 0.1188 0.2818 0.8722   0.094264
 H 0.1994 0.3805 0.8168   0.079394
 H 0.1252 0.3357 0.7713   0.078864
 H 0.9689 0.401 0.854   0.092177
 H 0.752 0.3681 0.8147   0.074448
 H 0.8395 0.3277 0.7705   0.070773
 H 0.9583 0.5222 0.6536   0.087389
 H 0.0938 0.5743 0.6367   0.087263
 H 0.0905 0.7164 0.649   0.086981
 H 0.9495 0.7571 0.6721   0.0957
 H 0.7363 0.5891 0.6892   0.093168
 H 0.7398 0.6826 0.6957   0.092117
 H 0.7197 0.7303 0.5687   0.07911
 H 0.7289 0.7674 0.6229   0.072846
 H 0.719 0.5888 0.5588   0.074076
 H 0.7268 0.5331 0.6062   0.071028
 H 0.0767 0.6595 0.5649   0.085377
 H 0.93 0.6648 0.5336   0.0925
 H 0.4583 0.9778 0.1536   0.087389
 H 0.5938 0.9257 0.1367   0.087263
 H 0.5905 0.7836 0.149   0.086981
 H 0.4495 0.7429 0.1721   0.0957
 H 0.2363 0.9109 0.1892   0.093167
 H 0.2398 0.8174 0.1957   0.092117
 H 0.2197 0.7697 0.0687   0.07911
 H 0.2289 0.7326 0.1229   0.072846
 H 0.219 0.9112 0.0588   0.074076
 H 0.2268 0.9669 0.1062   0.071028
 H 0.5767 0.8405 0.0649   0.085376
 H 0.43 0.8352 0.0336   0.092501
 H 0.6186 0.6109 0.3926   0.110137
 H 0.4969 0.5268 0.4765   0.078386
 H 0.4935 0.495 0.4208   0.091764
 H 0.3351 0.6019 0.397   0.101407
 H 0.2468 0.6919 0.4593   0.077861
 H 0.3416 0.6486 0.5007   0.083176
 H 0.4605 0.7357 0.4181   0.087351
 H 0.7004 0.7064 0.45   0.079769
 H 0.6326 0.6578 0.4951   0.065026
 H 0.3453 0.2256 0.3712   0.089594
 H 0.4926 0.2974 0.2878   0.078384
 H 0.4943 0.3326 0.3427   0.087422
 H 0.6188 0.2182 0.3722   0.094264
 H 0.6994 0.1195 0.3168   0.079394
 H 0.6252 0.1643 0.2713   0.078864
 H 0.4689 0.099 0.354   0.092177
 H 0.252 0.1319 0.3147   0.074449
 H 0.3395 0.1723 0.2705   0.070774
 H 0.0417 0.4778 0.1536   0.087389
 H 0.9062 0.4257 0.1367   0.087263
 H 0.9095 0.2836 0.149   0.086981
 H 0.0505 0.2429 0.1721   0.0957
 H 0.2637 0.4109 0.1892   0.093167
 H 0.2602 0.3174 0.1957   0.092117
 H 0.2803 0.2697 0.0687   0.07911
 H 0.2711 0.2326 0.1229   0.072846
 H 0.281 0.4112 0.0588   0.074076
 H 0.2732 0.4669 0.1062   0.071028
 H 0.9233 0.3405 0.0649   0.085376
 H 0.07 0.3352 0.0336   0.092501
 H 0.8814 0.1109 0.3926   0.110137
 H 0.0031 0.0268 0.4765   0.078386
 H 0.0065 0.995 0.4208   0.091764
 H 0.1649 0.1019 0.397   0.101407
 H 0.2532 0.1919 0.4593   0.077861
 H 0.1584 0.1486 0.5007   0.083176
 H 0.0395 0.2357 0.4181   0.087351
 H 0.7996 0.2064 0.45   0.079769
 H 0.8674 0.1578 0.4951   0.065026
 H 0.1547 0.7256 0.3712   0.089594
 H 0.0074 0.7974 0.2878   0.078384
 H 0.0057 0.8326 0.3427   0.087422
 H 0.8812 0.7182 0.3722   0.094264
 H 0.8006 0.6195 0.3168   0.079394
 H 0.8748 0.6643 0.2713   0.078864
 H 0.0311 0.599 0.354   0.092177
 H 0.248 0.6319 0.3147   0.074449
 H 0.1605 0.6723 0.2705   0.070774
 C 0.2413 0.4548 0.9378   0.700022
 C 0.377 0.4036 0.9283   -0.167576
 C 0.5096 0.4571 0.9414   -0.101778
 C 0.6578 0.4133 0.9326   -0.178757
 C 0.6616 0.3367 0.9654   -0.111594
 C 0.5311 0.2825 0.9531   -0.167003
 C 0.3806 0.3283 0.9599   -0.110828
 C 0.7847 0.4682 0.9455   0.726991
 C 0.529 0.21 0.9877   0.72501
 C 0.7873 0.7046 0.8263   0.729856
 C 0.6559 0.761 0.8352   -0.17579
 C 0.5101 0.7165 0.8233   -0.108064
 C 0.3768 0.769 0.8362   -0.162193
 C 0.237 0.7196 0.8268   0.717602
 C 0.383 0.8466 0.8071   -0.108545
 C 0.5286 0.8899 0.8178   -0.169774
 C 0.6585 0.8391 0.8063   -0.10309
 C 0.5318 0.9704 0.791   0.715553
 C 0.5132 0.0733 0.6392   0.126244
 C 0.5166 0.214 0.6505   0.129031
 C 0.728 0.1386 0.6744   0.128738
 C 0.7379 0.2232 0.602   0.165934
 C 0.7387 0.0834 0.5922   0.147664
 C 0.5303 0.1587 0.5674   0.154498
 C 0.2587 0.9548 0.9378   0.700022
 C 0.123 0.9036 0.9283   -0.167576
 C 0.9904 0.9571 0.9414   -0.101779
 C 0.8422 0.9133 0.9326   -0.178757
 C 0.8384 0.8367 0.9654   -0.111594
 C 0.9689 0.7825 0.9531   -0.167003
 C 0.1194 0.8283 0.9599   -0.110828
 C 0.7153 0.9682 0.9455   0.726992
 C 0.971 0.71 0.9877   0.72501
 C 0.7127 0.2046 0.8263   0.729856
 C 0.8441 0.261 0.8352   -0.17579
 C 0.9899 0.2165 0.8233   -0.108064
 C 0.1232 0.269 0.8362   -0.162193
 C 0.263 0.2196 0.8268   0.717602
 C 0.117 0.3466 0.8071   -0.108545
 C 0.9714 0.3899 0.8178   -0.169774
 C 0.8415 0.3391 0.8063   -0.10309
 C 0.9682 0.4704 0.791   0.715553
 C 0.9868 0.5733 0.6392   0.126244
 C 0.9834 0.714 0.6505   0.129031
 C 0.772 0.6386 0.6744   0.128738
 C 0.7621 0.7232 0.602   0.165934
 C 0.7613 0.5834 0.5922   0.147664
 C 0.9697 0.6587 0.5674   0.154498
 C 0.4868 0.9267 0.1392   0.126244
 C 0.4834 0.786 0.1505   0.129031
 C 0.272 0.8614 0.1744   0.128738
 C 0.2621 0.7768 0.102   0.165934
 C 0.2613 0.9166 0.0922   0.147664
 C 0.4697 0.8413 0.0674   0.154498
 C 0.7587 0.5452 0.4378   0.700022
 C 0.623 0.5964 0.4283   -0.167576
 C 0.4904 0.5429 0.4414   -0.101778
 C 0.3422 0.5867 0.4326   -0.178757
 C 0.3384 0.6633 0.4654   -0.111594
 C 0.4689 0.7175 0.4531   -0.167003
 C 0.6194 0.6717 0.4599   -0.110829
 C 0.2153 0.5318 0.4455   0.726991
 C 0.471 0.79 0.4877   0.72501
 C 0.2127 0.2954 0.3263   0.729856
 C 0.3441 0.239 0.3352   -0.17579
 C 0.4899 0.2835 0.3233   -0.108064
 C 0.6232 0.231 0.3362   -0.162193
 C 0.763 0.2804 0.3268   0.717602
 C 0.617 0.1534 0.3071   -0.108545
 C 0.4714 0.1101 0.3178   -0.169774
 C 0.3415 0.1609 0.3063   -0.10309
 C 0.4682 0.0296 0.291   0.715553
 C 0.0132 0.4267 0.1392   0.126244
 C 0.0166 0.286 0.1505   0.129031
 C 0.228 0.3614 0.1744   0.128738
 C 0.2379 0.2768 0.102   0.165934
 C 0.2387 0.4166 0.0922   0.147665
 C 0.0303 0.3413 0.0674   0.154498
 C 0.7413 0.0452 0.4378   0.700022
 C 0.877 0.0964 0.4283   -0.167576
 C 0.0096 0.0429 0.4414   -0.101778
 C 0.1578 0.0867 0.4326   -0.178757
 C 0.1616 0.1633 0.4654   -0.111594
 C 0.0311 0.2175 0.4531   -0.167003
 C 0.8806 0.1717 0.4599   -0.110829
 C 0.2847 0.0318 0.4455   0.726992
 C 0.029 0.29 0.4877   0.72501
 C 0.2873 0.7954 0.3263   0.729856
 C 0.1559 0.739 0.3352   -0.17579
 C 0.0101 0.7835 0.3233   -0.108064
 C 0.8768 0.731 0.3362   -0.162193
 C 0.737 0.7804 0.3268   0.717602
 C 0.883 0.6534 0.3071   -0.108545
 C 0.0286 0.6101 0.3178   -0.169774
 C 0.1585 0.6609 0.3063   -0.10309
 C 0.0318 0.5296 0.291   0.715553
 N 0.5615 0.1372 0.6723   -0.341439
 N 0.5785 0.2257 0.5981   -0.403008
 N 0.7915 0.1483 0.6234   -0.381288
 N 0.5776 0.0806 0.5878   -0.37208
 N 0.9385 0.6372 0.6723   -0.341439
 N 0.9215 0.7257 0.5981   -0.403008
 N 0.7085 0.6483 0.6234   -0.381288
 N 0.9224 0.5806 0.5878   -0.37208
 N 0.4385 0.8628 0.1723   -0.341439
 N 0.4215 0.7743 0.0981   -0.403008
 N 0.2085 0.8517 0.1234   -0.381288
 N 0.4224 0.9194 0.0878   -0.37208
 N 0.0615 0.3628 0.1723   -0.341439
 N 0.0785 0.2743 0.0981   -0.403008
 N 0.2915 0.3517 0.1234   -0.381288
 N 0.0776 0.4194 0.0878   -0.37208
 O 0.22 0.5139 0.909   -0.639308
 O 0.4945 0.1426 0.9712   -0.674583
 O 0.846 0.5018 0.9096   -0.624328
 O 0.8344 0.6665 0.8613   -0.62507
 O 0.4668 0.0293 0.81167   -0.672941
 O 0.1836 0.6825 0.8625   -0.627587
 O 0.1602 0.4395 0.9753   -0.639129
 O 0.815 0.4758 0.9925   -0.648131
 O 0.8348 0.7024 0.7808   -0.66952
 O 0.1907 0.7168 0.781   -0.661583
 O 0.5908 0.9774 0.749   -0.628337
 O 0.5672 0.2223 0.0321   -0.635924
 O 0.28 0.0139 0.909   -0.639308
 O 0.0055 0.6426 0.9712   -0.674583
 O 0.654 0.0018 0.9096   -0.624328
 O 0.6656 0.1665 0.8613   -0.62507
 O 0.0332 0.5293 0.81167   -0.672941
 O 0.3164 0.1825 0.8625   -0.627587
 O 0.3398 0.9395 0.9753   -0.639129
 O 0.685 0.9758 0.9925   -0.648131
 O 0.6652 0.2024 0.7808   -0.66952
 O 0.3093 0.2168 0.781   -0.661583
 O 0.9092 0.4774 0.749   -0.628337
 O 0.9328 0.7223 0.0321   -0.635924
 O 0.78 0.4861 0.409   -0.639308
 O 0.5055 0.8574 0.4712   -0.674583
 O 0.154 0.4982 0.4096   -0.624328
 O 0.1656 0.3335 0.3613   -0.62507
 O 0.5332 0.9707 0.31167   -0.672941
 O 0.8164 0.3175 0.3625   -0.627587
 O 0.8398 0.5605 0.4753   -0.639129
 O 0.185 0.5242 0.4925   -0.648131
 O 0.1652 0.2976 0.2808   -0.66952
 O 0.8093 0.2832 0.281   -0.661583
 O 0.4092 0.0226 0.249   -0.628337
 O 0.4328 0.7777 0.5321   -0.635924
 O 0.72 0.9861 0.409   -0.639308
 O 0.9945 0.3574 0.4712   -0.674583
 O 0.346 0.9982 0.4096   -0.624328
 O 0.3344 0.8335 0.3613   -0.62507
 O 0.9668 0.4707 0.31167   -0.672941
 O 0.6836 0.8175 0.3625   -0.627587
 O 0.6602 0.0605 0.4753   -0.639129
 O 0.315 0.0242 0.4925   -0.648131
 O 0.3348 0.7976 0.2808   -0.66952
 O 0.6907 0.7832 0.281   -0.661583
 O 0.0908 0.5226 0.249   -0.628337
 O 0.0672 0.2777 0.5321   -0.635924
