{'_ref': 'TBD', '_srcid': 'CAKYAQ_clean', 'submitters': [{'name': 'Dalar Nazarian Jeff Camp and David Sholl', 'email': 'dalar@gatech.edu jcamp6@gatech.edu'}], '_method': 'VASP DFT with PBE;DDEC'}
data_CoH2(CO)6
_symmetry_space_group_name_H-M   'P 1'
_cell_length_a   18.68830039
_cell_length_b   18.68830010
_cell_length_c   18.68830000
_cell_angle_alpha   60.00000017
_cell_angle_beta   60.00000068
_cell_angle_gamma   59.99999892
_symmetry_Int_Tables_number   1
_chemical_formula_structural   CoH2(CO)6
_chemical_formula_sum   'Co12 H24 C72 O72'
_cell_volume   4615.24121237
_cell_formula_units_Z   12
loop_
 _symmetry_equiv_pos_site_id
 _symmetry_equiv_pos_as_xyz
  1  'x, y, z'
loop_
 _atom_site_label
 _atom_site_fract_x
 _atom_site_fract_y
 _atom_site_fract_z
 _atom_site_charge
 Co 0.07904 0.5 0.92096   0.965567
 Co 0.5 0.07904 0.5   0.965565
 Co 0.92096 0.5 0.07904   0.965569
 Co 0.5 0.92096 0.5   0.965566
 Co 0.07904 0.92096 0.5   0.965567
 Co 0.5 0.5 0.92096   0.965565
 Co 0.92096 0.07904 0.5   0.965569
 Co 0.5 0.5 0.07904   0.965566
 Co 0.07904 0.5 0.5   0.965565
 Co 0.5 0.92096 0.07904   0.965567
 Co 0.92096 0.5 0.5   0.965566
 Co 0.5 0.07904 0.92096   0.965569
 H 0.2294 0.2294 0.0106   0.121985
 H 0.2294 0.2294 0.5306   0.121985
 H 0.0106 0.5306 0.2294   0.121985
 H 0.5306 0.0106 0.2294   0.121985
 H 0.2294 0.0106 0.5306   0.121985
 H 0.2294 0.5306 0.0106   0.121985
 H 0.0106 0.2294 0.2294   0.121985
 H 0.5306 0.2294 0.2294   0.121985
 H 0.2294 0.5306 0.2294   0.121985
 H 0.2294 0.0106 0.2294   0.121986
 H 0.0106 0.2294 0.5306   0.121985
 H 0.5306 0.2294 0.0106   0.121985
 H 0.7706 0.7706 0.9894   0.121985
 H 0.7706 0.7706 0.4694   0.121985
 H 0.4694 0.9894 0.7706   0.121985
 H 0.9894 0.4694 0.7706   0.121985
 H 0.9894 0.7706 0.4694   0.121985
 H 0.4694 0.7706 0.9894   0.121985
 H 0.7706 0.9894 0.7706   0.121985
 H 0.7706 0.4694 0.7706   0.121985
 H 0.4694 0.7706 0.7706   0.121985
 H 0.9894 0.7706 0.7706   0.121985
 H 0.7706 0.9894 0.4694   0.121985
 H 0.7706 0.4694 0.9894   0.121985
 C 0.1121 0.2433 0.1121   -0.176571
 C 0.0693 0.3359 0.0693   0.690777
 C 0.2433 0.1121 0.5325   -0.176571
 C 0.3359 0.0693 0.5255   0.690778
 C 0.1121 0.5325 0.1121   -0.176571
 C 0.0693 0.5255 0.0693   0.690777
 C 0.5325 0.1121 0.2433   -0.17657
 C 0.5255 0.0693 0.3359   0.690777
 C 0.1121 0.1121 0.5325   -0.176571
 C 0.0693 0.0693 0.5255   0.690778
 C 0.2433 0.5325 0.1121   -0.176571
 C 0.3359 0.5255 0.0693   0.690778
 C 0.1121 0.1121 0.2433   -0.17657
 C 0.0693 0.0693 0.3359   0.690777
 C 0.5325 0.2433 0.1121   -0.17657
 C 0.5255 0.3359 0.0693   0.690777
 C 0.1121 0.5325 0.2433   -0.176571
 C 0.0693 0.5255 0.3359   0.690778
 C 0.2433 0.1121 0.1121   -0.17657
 C 0.3359 0.0693 0.0693   0.690778
 C 0.1121 0.2433 0.5325   -0.17657
 C 0.0693 0.3359 0.5255   0.690777
 C 0.5325 0.1121 0.1121   -0.17657
 C 0.5255 0.0693 0.0693   0.690777
 C 0.7567 0.8879 0.8879   -0.17657
 C 0.6641 0.9307 0.9307   0.690778
 C 0.8879 0.7567 0.4675   -0.176571
 C 0.9307 0.6641 0.4745   0.690778
 C 0.4675 0.8879 0.8879   -0.17657
 C 0.4745 0.9307 0.9307   0.690778
 C 0.8879 0.4675 0.7567   -0.17657
 C 0.9307 0.4745 0.6641   0.690778
 C 0.8879 0.8879 0.4675   -0.176571
 C 0.9307 0.9307 0.4745   0.690778
 C 0.4675 0.7567 0.8879   -0.17657
 C 0.4745 0.6641 0.9307   0.690778
 C 0.8879 0.8879 0.7567   -0.17657
 C 0.9307 0.9307 0.6641   0.690777
 C 0.7567 0.4675 0.8879   -0.17657
 C 0.6641 0.4745 0.9307   0.690778
 C 0.4675 0.8879 0.7567   -0.17657
 C 0.4745 0.9307 0.6641   0.690778
 C 0.8879 0.7567 0.8879   -0.17657
 C 0.9307 0.6641 0.9307   0.690778
 C 0.7567 0.8879 0.4675   -0.17657
 C 0.6641 0.9307 0.4745   0.690778
 C 0.8879 0.4675 0.8879   -0.17657
 C 0.9307 0.4745 0.9307   0.690778
 C 0.1997 0.1997 0.0689   0.033978
 C 0.1997 0.1997 0.5317   0.033979
 C 0.0689 0.5317 0.1997   0.033979
 C 0.5317 0.0689 0.1997   0.033979
 C 0.1997 0.0689 0.5317   0.033979
 C 0.1997 0.5317 0.0689   0.033979
 C 0.0689 0.1997 0.1997   0.033978
 C 0.5317 0.1997 0.1997   0.033979
 C 0.1997 0.5317 0.1997   0.033979
 C 0.1997 0.0689 0.1997   0.033978
 C 0.0689 0.1997 0.5317   0.033979
 C 0.5317 0.1997 0.0689   0.033979
 C 0.8003 0.8003 0.9311   0.033978
 C 0.8003 0.8003 0.4683   0.033979
 C 0.4683 0.9311 0.8003   0.033979
 C 0.9311 0.4683 0.8003   0.033979
 C 0.9311 0.8003 0.4683   0.033979
 C 0.4683 0.8003 0.9311   0.033979
 C 0.8003 0.9311 0.8003   0.033978
 C 0.8003 0.4683 0.8003   0.033979
 C 0.4683 0.8003 0.8003   0.033979
 C 0.9311 0.8003 0.8003   0.033978
 C 0.8003 0.9311 0.4683   0.03398
 C 0.8003 0.4683 0.9311   0.033979
 O 0.1133 0.3715 0.9931   -0.545193
 O 0.3715 0.1133 0.5221   -0.545193
 O 0.9931 0.5221 0.1133   -0.545193
 O 0.5221 0.9931 0.3715   -0.545193
 O 0.1133 0.9931 0.5221   -0.545193
 O 0.3715 0.5221 0.9931   -0.545193
 O 0.9931 0.1133 0.3715   -0.545193
 O 0.5221 0.3715 0.1133   -0.545193
 O 0.1133 0.5221 0.3715   -0.545193
 O 0.3715 0.9931 0.1133   -0.545193
 O 0.9931 0.3715 0.5221   -0.545193
 O 0.5221 0.1133 0.9931   -0.545193
 O 0.6285 0.8867 0.0069   -0.545194
 O 0.8867 0.6285 0.4779   -0.545194
 O 0.4779 0.0069 0.8867   -0.545194
 O 0.0069 0.4779 0.6285   -0.545194
 O 0.0069 0.8867 0.4779   -0.545193
 O 0.4779 0.6285 0.0069   -0.545194
 O 0.8867 0.0069 0.6285   -0.545194
 O 0.6285 0.4779 0.8867   -0.545194
 O 0.4779 0.8867 0.6285   -0.545194
 O 0.0069 0.6285 0.8867   -0.545194
 O 0.6285 0.0069 0.4779   -0.545194
 O 0.8867 0.4779 0.0069   -0.545194
 O 0.8867 0.6285 0.0069   -0.545195
 O 0.6285 0.8867 0.4779   -0.545194
 O 0.0069 0.4779 0.8867   -0.545194
 O 0.4779 0.0069 0.6285   -0.545194
 O 0.8867 0.0069 0.4779   -0.545194
 O 0.6285 0.4779 0.0069   -0.545194
 O 0.0069 0.8867 0.6285   -0.545194
 O 0.4779 0.6285 0.8867   -0.545194
 O 0.8867 0.4779 0.6285   -0.545194
 O 0.6285 0.0069 0.8867   -0.545194
 O 0.0069 0.6285 0.4779   -0.545194
 O 0.4779 0.8867 0.0069   -0.545194
 O 0.3715 0.1133 0.9931   -0.545194
 O 0.1133 0.3715 0.5221   -0.545193
 O 0.5221 0.9931 0.1133   -0.545193
 O 0.9931 0.5221 0.3715   -0.545194
 O 0.9931 0.1133 0.5221   -0.545193
 O 0.5221 0.3715 0.9931   -0.545193
 O 0.1133 0.9931 0.3715   -0.545193
 O 0.3715 0.5221 0.1133   -0.545193
 O 0.5221 0.1133 0.3715   -0.545193
 O 0.9931 0.3715 0.1133   -0.545194
 O 0.3715 0.9931 0.5221   -0.545194
 O 0.1133 0.5221 0.9931   -0.545193
 O 0.1718 0.5232 0.7818   -0.062539
 O 0.5232 0.1718 0.5232   -0.062537
 O 0.7818 0.5232 0.1718   -0.062539
 O 0.5232 0.7818 0.5232   -0.062538
 O 0.1718 0.7818 0.5232   -0.06254
 O 0.5232 0.5232 0.7818   -0.062539
 O 0.7818 0.1718 0.5232   -0.06254
 O 0.5232 0.5232 0.1718   -0.062538
 O 0.1718 0.5232 0.5232   -0.062539
 O 0.5232 0.7818 0.1718   -0.062541
 O 0.7818 0.5232 0.5232   -0.06254
 O 0.5232 0.1718 0.7818   -0.062541
 O 0.4768 0.8282 0.2182   -0.062595
 O 0.8282 0.4768 0.4768   -0.062593
 O 0.4768 0.2182 0.8282   -0.062595
 O 0.2182 0.4768 0.4768   -0.062594
 O 0.2182 0.8282 0.4768   -0.062596
 O 0.4768 0.4768 0.2182   -0.062596
 O 0.8282 0.2182 0.4768   -0.062596
 O 0.4768 0.4768 0.8282   -0.062594
 O 0.4768 0.8282 0.4768   -0.062596
 O 0.2182 0.4768 0.8282   -0.062597
 O 0.4768 0.2182 0.4768   -0.062597
 O 0.8282 0.4768 0.2182   -0.062597
