{'_ref': 'TBD', '_srcid': 'CAKYAQ_clean', 'submitters': [{'name': 'Dalar Nazarian Jeff Camp and David Sholl', 'email': 'dalar@gatech.edu jcamp6@gatech.edu'}], '_method': 'VASP DFT with PBE;DDEC'}
data_Yb2P2H25C43O16
_symmetry_space_group_name_H-M   'P 1'
_cell_length_a   10.45480000
_cell_length_b   14.38319948
_cell_length_c   23.30570000
_cell_angle_alpha   107.34799935
_cell_angle_beta   90.00000000
_cell_angle_gamma   90.00000000
_symmetry_Int_Tables_number   1
_chemical_formula_structural   Yb2P2H25C43O16
_chemical_formula_sum   'Yb4 P4 H50 C86 O32'
_cell_volume   3345.14137295
_cell_formula_units_Z   2
loop_
 _symmetry_equiv_pos_site_id
 _symmetry_equiv_pos_as_xyz
  1  'x, y, z'
loop_
 _atom_site_label
 _atom_site_fract_x
 _atom_site_fract_y
 _atom_site_fract_z
 _atom_site_charge
 Yb 0.93217 0.84792 0.77249   1.3861
 Yb 0.93217 0.15208 0.72751   1.386099
 Yb 0.06783 0.15208 0.22751   1.3861
 Yb 0.06783 0.84792 0.27249   1.386099
 P 0.8646 0.7719 0.37716   1.051269
 P 0.8646 0.2281 0.12284   1.051269
 P 0.1354 0.2281 0.62284   1.051269
 P 0.1354 0.7719 0.87716   1.051269
 H 0.8871 0.6796 0.4709   0.088407
 H 0.9009 0.7335 0.5739   0.11609
 H 0.872 0.0095 0.5698   0.112649
 H 0.8686 0.9547 0.4663   0.097499
 H 0.6177 0.7638 0.4331   0.095841
 H 0.4084 0.7932 0.4092   0.115756
 H 0.5304 0.8202 0.2509   0.120155
 H 0.7381 0.8038 0.2779   0.098627
 H 0.096 0.665 0.3565   0.104217
 H 0.1524 0.5039 0.3243   0.114256
 H 0.7825 0.4264 0.3105   0.11211
 H 0.7237 0.5876 0.3424   0.091756
 H 0.8871 0.3204 0.0291   0.088407
 H 0.9009 0.2665 0.9261   0.11609
 H 0.872 0.9905 0.9302   0.112649
 H 0.8686 0.0453 0.0337   0.097499
 H 0.6177 0.2362 0.0669   0.095841
 H 0.4084 0.2068 0.0908   0.115756
 H 0.5304 0.1798 0.2491   0.120155
 H 0.7381 0.1962 0.2221   0.098627
 H 0.096 0.335 0.1435   0.104217
 H 0.1524 0.4961 0.1757   0.114256
 H 0.7825 0.5736 0.1895   0.11211
 H 0.7237 0.4124 0.1576   0.091757
 H 0.1129 0.3204 0.5291   0.088407
 H 0.0991 0.2665 0.4261   0.11609
 H 0.128 0.9905 0.4302   0.112649
 H 0.1314 0.0453 0.5337   0.097499
 H 0.3823 0.2362 0.5669   0.095841
 H 0.5916 0.2068 0.5908   0.115756
 H 0.4696 0.1798 0.7491   0.120155
 H 0.2619 0.1962 0.7221   0.098627
 H 0.904 0.335 0.6435   0.104217
 H 0.8476 0.4961 0.6757   0.114255
 H 0.2175 0.5736 0.6895   0.11211
 H 0.2763 0.4124 0.6576   0.091756
 H 0.1129 0.6796 0.9709   0.088407
 H 0.0991 0.7335 0.0739   0.11609
 H 0.128 0.0095 0.0698   0.112649
 H 0.1314 0.9547 0.9663   0.097499
 H 0.3823 0.7638 0.9331   0.095841
 H 0.5916 0.7932 0.9092   0.115756
 H 0.4696 0.8202 0.7509   0.120155
 H 0.2619 0.8038 0.7779   0.098627
 H 0.904 0.665 0.8565   0.104217
 H 0.8476 0.5039 0.8243   0.114256
 H 0.2175 0.4264 0.8105   0.11211
 H 0.2763 0.5876 0.8424   0.091756
 H 0.2434 0.0 0.75   0.023937
 H 0.7566 0.0 0.25   0.023937
 C 0.8742 0.8108 0.4571   -0.284942
 C 0.8847 0.7461 0.4906   -0.025283
 C 0.8917 0.7782 0.5524   -0.055094
 C 0.8852 0.8771 0.5826   -0.110046
 C 0.8758 0.943 0.55   -0.06019
 C 0.8723 0.9099 0.4879   -0.001713
 C 0.8879 0.9117 0.6501   0.681396
 C 0.7008 0.7856 0.3584   -0.291304
 C 0.5999 0.7783 0.3976   -0.02901
 C 0.4745 0.793 0.3826   -0.074631
 C 0.4485 0.8075 0.327   -0.086789
 C 0.5481 0.8109 0.2879   -0.067172
 C 0.6721 0.8006 0.304   0.017065
 C 0.3134 0.8243 0.3111   0.589366
 C 0.9048 0.6448 0.3523   -0.293722
 C 0.0326 0.6175 0.3469   0.005553
 C 0.0662 0.5206 0.3274   -0.05801
 C 0.9757 0.4477 0.3123   -0.094474
 C 0.8451 0.4745 0.3191   -0.070179
 C 0.8099 0.5708 0.3384   -0.022124
 C 0.0096 0.343 0.2867   0.590658
 C 0.8742 0.1892 0.0429   -0.284942
 C 0.8847 0.2539 0.0094   -0.025283
 C 0.8917 0.2218 0.9476   -0.055094
 C 0.8852 0.1229 0.9174   -0.110046
 C 0.8758 0.057 0.95   -0.06019
 C 0.8723 0.0901 0.0121   -0.001713
 C 0.8879 0.0883 0.8499   0.681396
 C 0.7008 0.2144 0.1416   -0.291304
 C 0.5999 0.2217 0.1024   -0.02901
 C 0.4745 0.207 0.1174   -0.074631
 C 0.4485 0.1925 0.173   -0.086789
 C 0.5481 0.1891 0.2121   -0.067172
 C 0.6721 0.1994 0.196   0.017065
 C 0.3134 0.1757 0.1889   0.589366
 C 0.9048 0.3552 0.1477   -0.293722
 C 0.0326 0.3825 0.1531   0.005553
 C 0.0662 0.4794 0.1726   -0.05801
 C 0.9757 0.5523 0.1877   -0.094473
 C 0.8451 0.5255 0.1809   -0.070179
 C 0.8099 0.4292 0.1616   -0.022124
 C 0.0096 0.657 0.2133   0.590658
 C 0.1258 0.1892 0.5429   -0.284942
 C 0.1153 0.2539 0.5094   -0.025283
 C 0.1083 0.2218 0.4476   -0.055094
 C 0.1148 0.1229 0.4174   -0.110046
 C 0.1242 0.057 0.45   -0.06019
 C 0.1277 0.0901 0.5121   -0.001713
 C 0.1121 0.0883 0.3499   0.681396
 C 0.2992 0.2144 0.6416   -0.291304
 C 0.4001 0.2217 0.6024   -0.02901
 C 0.5255 0.207 0.6174   -0.074631
 C 0.5515 0.1925 0.673   -0.086789
 C 0.4519 0.1891 0.7121   -0.067172
 C 0.3279 0.1994 0.696   0.017066
 C 0.6866 0.1757 0.6889   0.589365
 C 0.0952 0.3552 0.6477   -0.293722
 C 0.9674 0.3825 0.6531   0.005553
 C 0.9338 0.4794 0.6726   -0.05801
 C 0.0243 0.5523 0.6877   -0.094474
 C 0.1549 0.5255 0.6809   -0.070179
 C 0.1901 0.4292 0.6616   -0.022124
 C 0.9904 0.657 0.7133   0.590658
 C 0.1258 0.8108 0.9571   -0.284942
 C 0.1153 0.7461 0.9906   -0.025283
 C 0.1083 0.7782 0.0524   -0.055094
 C 0.1148 0.8771 0.0826   -0.110046
 C 0.1242 0.943 0.05   -0.06019
 C 0.1277 0.9099 0.9879   -0.001713
 C 0.1121 0.9117 0.1501   0.681396
 C 0.2992 0.7856 0.8584   -0.291304
 C 0.4001 0.7783 0.8976   -0.02901
 C 0.5255 0.793 0.8826   -0.074631
 C 0.5515 0.8075 0.827   -0.086789
 C 0.4519 0.8109 0.7879   -0.067172
 C 0.3279 0.8006 0.804   0.017066
 C 0.6866 0.8243 0.8111   0.589365
 C 0.0952 0.6448 0.8523   -0.293722
 C 0.9674 0.6175 0.8469   0.005553
 C 0.9338 0.5206 0.8274   -0.05801
 C 0.0243 0.4477 0.8123   -0.094473
 C 0.1549 0.4745 0.8191   -0.070179
 C 0.1901 0.5708 0.8384   -0.022124
 C 0.9904 0.343 0.7867   0.590658
 C 0.1544 0.0 0.75   0.657377
 C 0.8456 0.0 0.25   0.657377
 O 0.8978 0.8479 0.6767   -0.535475
 O 0.8797 0.0011 0.6762   -0.546565
 O 0.2212 0.8137 0.3427   -0.480567
 O 0.2947 0.8476 0.2628   -0.463045
 O 0.1212 0.3209 0.2707   -0.506428
 O 0.9215 0.2793 0.2798   -0.506063
 O 0.9516 0.8314 0.3506   -0.741642
 O 0.1092 0.9282 0.7591   -0.524958
 O 0.8978 0.1521 0.8233   -0.535475
 O 0.8797 0.9989 0.8238   -0.546565
 O 0.2212 0.1863 0.1573   -0.480567
 O 0.2947 0.1524 0.2372   -0.463045
 O 0.1212 0.6791 0.2293   -0.506428
 O 0.9215 0.7207 0.2202   -0.506063
 O 0.9516 0.1686 0.1494   -0.741642
 O 0.1092 0.0718 0.7409   -0.524958
 O 0.1022 0.1521 0.3233   -0.535475
 O 0.1203 0.9989 0.3238   -0.546565
 O 0.7788 0.1863 0.6573   -0.480567
 O 0.7053 0.1524 0.7372   -0.463045
 O 0.8788 0.6791 0.7293   -0.506428
 O 0.0785 0.7207 0.7202   -0.506063
 O 0.0484 0.1686 0.6494   -0.741642
 O 0.8908 0.0718 0.2409   -0.524958
 O 0.1022 0.8479 0.1767   -0.535475
 O 0.1203 0.0011 0.1762   -0.546565
 O 0.7788 0.8137 0.8427   -0.480567
 O 0.7053 0.8476 0.7628   -0.463045
 O 0.8788 0.3209 0.7707   -0.506428
 O 0.0785 0.2793 0.7798   -0.506063
 O 0.0484 0.8314 0.8506   -0.741642
 O 0.8908 0.9282 0.2591   -0.524958
