{'_ref': 'TBD', '_srcid': 'CAKYAQ_clean', 'submitters': [{'name': 'Dalar Nazarian Jeff Camp and David Sholl', 'email': 'dalar@gatech.edu jcamp6@gatech.edu'}], '_method': 'VASP DFT with PBE;DDEC'}
data_Dy2P2H25C43O16
_symmetry_space_group_name_H-M   'P 1'
_cell_length_a   10.57200000
_cell_length_b   14.61700005
_cell_length_c   23.54800000
_cell_angle_alpha   107.78699818
_cell_angle_beta   90.00000000
_cell_angle_gamma   90.00000000
_symmetry_Int_Tables_number   1
_chemical_formula_structural   Dy2P2H25C43O16
_chemical_formula_sum   'Dy4 P4 H50 C86 O32'
_cell_volume   3464.950475
_cell_formula_units_Z   2
loop_
 _symmetry_equiv_pos_site_id
 _symmetry_equiv_pos_as_xyz
  1  'x, y, z'
loop_
 _atom_site_label
 _atom_site_fract_x
 _atom_site_fract_y
 _atom_site_fract_z
 _atom_site_charge
 Dy 0.43146 0.84606 0.77203   2.283659
 Dy 0.43146 0.15394 0.72797   2.283658
 Dy 0.56854 0.15394 0.22797   2.283659
 Dy 0.56854 0.84606 0.27203   2.283658
 P 0.63842 0.77009 0.8779   1.10825
 P 0.63842 0.22991 0.6221   1.10825
 P 0.36158 0.22991 0.1221   1.10825
 P 0.36158 0.77009 0.3779   1.10825
 H 0.7616 0.8035 0.7799   0.100202
 H 0.9676 0.822 0.7534   0.121357
 H 0.0885 0.7835 0.9053   0.112392
 H 0.8836 0.7672 0.9332   0.092465
 H 0.7752 0.589 0.8449   0.086801
 H 0.7199 0.4302 0.8122   0.114228
 H 0.3545 0.5054 0.822   0.119552
 H 0.4099 0.6643 0.8558   0.103129
 H 0.6264 0.6801 0.9717   0.094276
 H 0.6154 0.7378 0.0741   0.113573
 H 0.6226 0.007 0.0688   0.111606
 H 0.6303 0.9505 0.9662   0.098285
 H 0.7616 0.1965 0.7201   0.100202
 H 0.9676 0.178 0.7466   0.121357
 H 0.0885 0.2165 0.5947   0.112392
 H 0.8836 0.2328 0.5668   0.092465
 H 0.7752 0.411 0.6551   0.086801
 H 0.7199 0.5698 0.6878   0.114228
 H 0.3545 0.4946 0.678   0.119552
 H 0.4099 0.3357 0.6442   0.103129
 H 0.6264 0.3199 0.5283   0.094276
 H 0.6154 0.2622 0.4259   0.113573
 H 0.6226 0.993 0.4312   0.111606
 H 0.6303 0.0495 0.5338   0.098285
 H 0.2384 0.1965 0.2201   0.100202
 H 0.0324 0.178 0.2466   0.121358
 H 0.9115 0.2165 0.0947   0.112393
 H 0.1164 0.2328 0.0668   0.092465
 H 0.2248 0.411 0.1551   0.086801
 H 0.2801 0.5698 0.1878   0.114228
 H 0.6455 0.4946 0.178   0.119551
 H 0.5901 0.3357 0.1442   0.103129
 H 0.3736 0.3199 0.0283   0.094276
 H 0.3846 0.2622 0.9259   0.113573
 H 0.3774 0.993 0.9312   0.111606
 H 0.3697 0.0495 0.0338   0.098285
 H 0.2384 0.8035 0.2799   0.100202
 H 0.0324 0.822 0.2534   0.121358
 H 0.9115 0.7835 0.4053   0.112393
 H 0.1164 0.7672 0.4332   0.092465
 H 0.2248 0.589 0.3449   0.086801
 H 0.2801 0.4302 0.3122   0.114228
 H 0.6455 0.5054 0.322   0.119552
 H 0.5901 0.6643 0.3558   0.103129
 H 0.3736 0.6801 0.4717   0.094276
 H 0.3846 0.7378 0.5741   0.113573
 H 0.3774 0.007 0.5688   0.111606
 H 0.3697 0.9505 0.4662   0.098285
 H 0.7454 0.0 0.75   -0.018099
 H 0.2546 0.0 0.25   -0.018099
 C 0.8006 0.7835 0.85907   -0.311723
 C 0.8273 0.8 0.80539   0.016769
 C 0.9505 0.8113 0.7896   -0.066084
 C 0.0491 0.8067 0.82746   -0.079208
 C 0.0224 0.7886 0.8804   -0.070217
 C 0.9001 0.778 0.897   -0.021055
 C 0.1835 0.8208 0.81012   0.640307
 C 0.5999 0.644 0.85349   -0.313858
 C 0.6901 0.5723 0.8403   -0.005203
 C 0.6573 0.4771 0.8207   -0.067283
 C 0.5313 0.4507 0.81357   -0.086536
 C 0.4395 0.5224 0.8268   -0.060573
 C 0.4725 0.6174 0.8467   0.003042
 C 0.4945 0.3468 0.78812   0.633888
 C 0.6284 0.8097 0.95793   -0.28734
 C 0.6249 0.746 0.99077   -0.03233
 C 0.619 0.7811 0.05225   -0.041381
 C 0.6182 0.8771 0.08193   -0.122261
 C 0.6228 0.9412 0.04943   -0.050798
 C 0.6276 0.907 0.98789   -0.007827
 C 0.6144 0.9125 0.14894   0.806099
 C 0.8006 0.2165 0.64093   -0.311723
 C 0.8273 0.2 0.69461   0.016769
 C 0.9505 0.1887 0.7104   -0.066084
 C 0.0491 0.1933 0.67254   -0.079208
 C 0.0224 0.2114 0.6196   -0.070217
 C 0.9001 0.222 0.603   -0.021055
 C 0.1835 0.1792 0.68988   0.640307
 C 0.5999 0.356 0.64651   -0.313857
 C 0.6901 0.4277 0.6597   -0.005203
 C 0.6573 0.5229 0.6793   -0.067283
 C 0.5313 0.5493 0.68643   -0.086535
 C 0.4395 0.4776 0.6732   -0.060573
 C 0.4725 0.3826 0.6533   0.003042
 C 0.4945 0.6532 0.71188   0.633888
 C 0.6284 0.1903 0.54207   -0.28734
 C 0.6249 0.254 0.50923   -0.03233
 C 0.619 0.2189 0.44775   -0.041381
 C 0.6182 0.1229 0.41807   -0.122261
 C 0.6228 0.0588 0.45057   -0.050798
 C 0.6276 0.093 0.51211   -0.007827
 C 0.6144 0.0875 0.35106   0.806099
 C 0.1994 0.2165 0.14093   -0.311723
 C 0.1727 0.2 0.19461   0.016769
 C 0.0495 0.1887 0.2104   -0.066084
 C 0.9509 0.1933 0.17254   -0.079208
 C 0.9776 0.2114 0.1196   -0.070217
 C 0.0999 0.222 0.103   -0.021055
 C 0.8165 0.1792 0.18988   0.640307
 C 0.4001 0.356 0.14651   -0.313858
 C 0.3099 0.4277 0.1597   -0.005203
 C 0.3427 0.5229 0.1793   -0.067283
 C 0.4687 0.5493 0.18643   -0.086536
 C 0.5605 0.4776 0.1732   -0.060573
 C 0.5275 0.3826 0.1533   0.003042
 C 0.5055 0.6532 0.21188   0.633888
 C 0.3716 0.1903 0.04207   -0.28734
 C 0.3751 0.254 0.00923   -0.03233
 C 0.381 0.2189 0.94775   -0.041381
 C 0.3818 0.1229 0.91807   -0.122261
 C 0.3772 0.0588 0.95057   -0.050797
 C 0.3724 0.093 0.01211   -0.007827
 C 0.3856 0.0875 0.85106   0.806099
 C 0.1994 0.7835 0.35907   -0.311723
 C 0.1727 0.8 0.30539   0.016769
 C 0.0495 0.8113 0.2896   -0.066084
 C 0.9509 0.8067 0.32746   -0.079208
 C 0.9776 0.7886 0.3804   -0.070217
 C 0.0999 0.778 0.397   -0.021055
 C 0.8165 0.8208 0.31012   0.640307
 C 0.4001 0.644 0.35349   -0.313857
 C 0.3099 0.5723 0.3403   -0.005203
 C 0.3427 0.4771 0.3207   -0.067282
 C 0.4687 0.4507 0.31357   -0.086535
 C 0.5605 0.5224 0.3268   -0.060573
 C 0.5275 0.6174 0.3467   0.003042
 C 0.5055 0.3468 0.28812   0.633888
 C 0.3716 0.8097 0.45793   -0.28734
 C 0.3751 0.746 0.49077   -0.03233
 C 0.381 0.7811 0.55225   -0.041381
 C 0.3818 0.8771 0.58193   -0.122261
 C 0.3772 0.9412 0.54943   -0.050797
 C 0.3724 0.907 0.48789   -0.007827
 C 0.3856 0.9125 0.64894   0.806099
 C 0.6574 0.0 0.75   0.79269
 C 0.3426 0.0 0.25   0.79269
 O 0.551 0.8277 0.85153   -0.846216
 O 0.2021 0.8437 0.76297   -0.60344
 O 0.2738 0.8103 0.84218   -0.608592
 O 0.5782 0.2828 0.77999   -0.633256
 O 0.3819 0.3243 0.77311   -0.636923
 O 0.6043 0.8508 0.17573   -0.718382
 O 0.6227 0.0014 0.17385   -0.763409
 O 0.6116 0.9297 0.75918   -0.713287
 O 0.551 0.1723 0.64847   -0.846216
 O 0.2021 0.1563 0.73703   -0.60344
 O 0.2738 0.1897 0.65782   -0.608592
 O 0.5782 0.7172 0.72001   -0.633256
 O 0.3819 0.6757 0.72689   -0.636923
 O 0.6043 0.1492 0.32427   -0.718382
 O 0.6227 0.9986 0.32615   -0.763409
 O 0.6116 0.0703 0.74082   -0.713287
 O 0.449 0.1723 0.14847   -0.846216
 O 0.7979 0.1563 0.23703   -0.60344
 O 0.7262 0.1897 0.15782   -0.608592
 O 0.4218 0.7172 0.22001   -0.633256
 O 0.6181 0.6757 0.22689   -0.636923
 O 0.3957 0.1492 0.82427   -0.718382
 O 0.3773 0.9986 0.82615   -0.763409
 O 0.3884 0.0703 0.24082   -0.713287
 O 0.449 0.8277 0.35153   -0.846216
 O 0.7979 0.8437 0.26297   -0.60344
 O 0.7262 0.8103 0.34218   -0.608592
 O 0.4218 0.2828 0.27999   -0.633256
 O 0.6181 0.3243 0.27311   -0.636923
 O 0.3957 0.8508 0.67573   -0.718382
 O 0.3773 0.0014 0.67385   -0.763409
 O 0.3884 0.9297 0.25918   -0.713287
