{'_ref': 'TBD', '_srcid': 'CAKYAQ_clean', 'submitters': [{'name': 'Dalar Nazarian Jeff Camp and David Sholl', 'email': 'dalar@gatech.edu jcamp6@gatech.edu'}], '_method': 'VASP DFT with PBE;DDEC'}
data_Ho2P2H25C43O16
_symmetry_space_group_name_H-M   'P 1'
_cell_length_a   10.47670000
_cell_length_b   14.45230038
_cell_length_c   23.43370000
_cell_angle_alpha   107.57699927
_cell_angle_beta   90.00000000
_cell_angle_gamma   90.00000000
_symmetry_Int_Tables_number   1
_chemical_formula_structural   Ho2P2H25C43O16
_chemical_formula_sum   'Ho4 P4 H50 C86 O32'
_cell_volume   3382.49685249
_cell_formula_units_Z   2
loop_
 _symmetry_equiv_pos_site_id
 _symmetry_equiv_pos_as_xyz
  1  'x, y, z'
loop_
 _atom_site_label
 _atom_site_fract_x
 _atom_site_fract_y
 _atom_site_fract_z
 _atom_site_charge
 Ho 0.93007 0.84764 0.77301   2.280844
 Ho 0.93007 0.15235 0.72699   2.280878
 Ho 0.06993 0.15235 0.22699   2.280878
 Ho 0.06993 0.84764 0.27301   2.280843
 P 0.86532 0.77132 0.37813   1.103313
 P 0.86532 0.22868 0.12187   1.103318
 P 0.13468 0.22868 0.62187   1.103318
 P 0.13468 0.77132 0.87813   1.103313
 H 0.8829 0.6782 0.4705   0.094278
 H 0.8927 0.7332 0.5741   0.115845
 H 0.8741 0.0065 0.5706   0.107987
 H 0.8681 0.9534 0.4672   0.103821
 H 0.6204 0.7687 0.4342   0.094259
 H 0.4102 0.7911 0.408   0.114512
 H 0.5337 0.8208 0.2526   0.120666
 H 0.7418 0.8005 0.2786   0.10298
 H 0.0963 0.6662 0.3576   0.105254
 H 0.1539 0.5052 0.322   0.123004
 H 0.7841 0.4277 0.3095   0.116539
 H 0.7263 0.5893 0.3439   0.08992
 H 0.8829 0.3218 0.0295   0.094278
 H 0.8927 0.2668 0.9259   0.115849
 H 0.8741 0.9935 0.9294   0.107984
 H 0.8681 0.0466 0.0328   0.10382
 H 0.6204 0.2313 0.0658   0.09426
 H 0.4102 0.2089 0.092   0.114508
 H 0.5337 0.1792 0.2474   0.12066
 H 0.7418 0.1995 0.2214   0.102979
 H 0.0963 0.3338 0.1424   0.105261
 H 0.1539 0.4948 0.178   0.123008
 H 0.7841 0.5723 0.1905   0.116544
 H 0.7263 0.4107 0.1561   0.089919
 H 0.1171 0.3218 0.5295   0.094278
 H 0.1073 0.2668 0.4259   0.115849
 H 0.1259 0.9935 0.4294   0.107984
 H 0.1319 0.0466 0.5328   0.10382
 H 0.3796 0.2313 0.5658   0.094259
 H 0.5898 0.2089 0.592   0.114509
 H 0.4663 0.1792 0.7474   0.12066
 H 0.2582 0.1995 0.7214   0.102979
 H 0.9037 0.3338 0.6424   0.105261
 H 0.8461 0.4948 0.678   0.123007
 H 0.2159 0.5723 0.6905   0.116544
 H 0.2737 0.4107 0.6561   0.089919
 H 0.1171 0.6782 0.9705   0.094279
 H 0.1073 0.7332 0.0741   0.115845
 H 0.1259 0.0065 0.0706   0.107987
 H 0.1319 0.9534 0.9672   0.103822
 H 0.3796 0.7687 0.9342   0.094259
 H 0.5898 0.7911 0.908   0.114512
 H 0.4663 0.8208 0.7526   0.120666
 H 0.2582 0.8005 0.7786   0.10298
 H 0.9037 0.6662 0.8576   0.105254
 H 0.8461 0.5052 0.822   0.123004
 H 0.2159 0.4277 0.8095   0.116539
 H 0.2737 0.5893 0.8439   0.089921
 H 0.2476 0.0 0.75   -0.019441
 H 0.7524 0.0 0.25   -0.019441
 C 0.8746 0.8105 0.45846   -0.284903
 C 0.8816 0.7444 0.49048   -0.034721
 C 0.8866 0.7776 0.55261   -0.040327
 C 0.8827 0.8754 0.58269   -0.125842
 C 0.8761 0.9403 0.55055   -0.041753
 C 0.8722 0.9087 0.48853   -0.012371
 C 0.8869 0.9094 0.64992   0.799701
 C 0.7012 0.785 0.35953   -0.308897
 C 0.6028 0.7803 0.3981   -0.025809
 C 0.4768 0.7931 0.3821   -0.072381
 C 0.4511 0.8089 0.32776   -0.080165
 C 0.551 0.8111 0.2893   -0.062847
 C 0.6755 0.7991 0.30473   0.012276
 C 0.3172 0.8241 0.31101   0.645855
 C 0.9042 0.6444 0.35311   -0.315711
 C 0.0337 0.6184 0.3474   0.001947
 C 0.0681 0.5223 0.32673   -0.062119
 C 0.9741 0.45 0.31278   -0.084303
 C 0.8467 0.4756 0.31898   -0.0713
 C 0.8122 0.5725 0.33937   -0.004863
 C 0.0099 0.3456 0.28686   0.630085
 C 0.8746 0.1895 0.04154   -0.284906
 C 0.8816 0.2556 0.00952   -0.034722
 C 0.8866 0.2224 0.94739   -0.040327
 C 0.8827 0.1246 0.91731   -0.125828
 C 0.8761 0.0597 0.94945   -0.041756
 C 0.8722 0.0913 0.01147   -0.012371
 C 0.8869 0.0906 0.85008   0.799689
 C 0.7012 0.215 0.14047   -0.308898
 C 0.6028 0.2197 0.1019   -0.025813
 C 0.4768 0.2069 0.1179   -0.072384
 C 0.4511 0.1911 0.17224   -0.080176
 C 0.551 0.1889 0.2107   -0.062854
 C 0.6755 0.2009 0.19527   0.012275
 C 0.3172 0.1759 0.18899   0.645864
 C 0.9042 0.3556 0.14689   -0.315701
 C 0.0337 0.3816 0.1526   0.001949
 C 0.0681 0.4777 0.17327   -0.06212
 C 0.9741 0.55 0.18722   -0.084306
 C 0.8467 0.5244 0.18102   -0.0713
 C 0.8122 0.4275 0.16063   -0.004867
 C 0.0099 0.6544 0.21314   0.630088
 C 0.1254 0.1895 0.54154   -0.284906
 C 0.1184 0.2556 0.50952   -0.034722
 C 0.1134 0.2224 0.44739   -0.040327
 C 0.1173 0.1246 0.41731   -0.125828
 C 0.1239 0.0597 0.44945   -0.041756
 C 0.1278 0.0913 0.51147   -0.012371
 C 0.1131 0.0906 0.35008   0.799689
 C 0.2988 0.215 0.64047   -0.308898
 C 0.3972 0.2197 0.6019   -0.025812
 C 0.5232 0.2069 0.6179   -0.072384
 C 0.5489 0.1911 0.67224   -0.080176
 C 0.449 0.1889 0.7107   -0.062854
 C 0.3245 0.2009 0.69527   0.012275
 C 0.6828 0.1759 0.68899   0.645864
 C 0.0958 0.3556 0.64689   -0.315701
 C 0.9663 0.3816 0.6526   0.001949
 C 0.9319 0.4777 0.67327   -0.06212
 C 0.0259 0.55 0.68722   -0.084306
 C 0.1533 0.5244 0.68102   -0.0713
 C 0.1878 0.4275 0.66063   -0.004867
 C 0.9901 0.6544 0.71314   0.630088
 C 0.1254 0.8105 0.95846   -0.284903
 C 0.1184 0.7444 0.99048   -0.034721
 C 0.1134 0.7776 0.05261   -0.040327
 C 0.1173 0.8754 0.08269   -0.125842
 C 0.1239 0.9403 0.05055   -0.041752
 C 0.1278 0.9087 0.98853   -0.012371
 C 0.1131 0.9094 0.14992   0.799701
 C 0.2988 0.785 0.85953   -0.308897
 C 0.3972 0.7803 0.8981   -0.025809
 C 0.5232 0.7931 0.8821   -0.072381
 C 0.5489 0.8089 0.82776   -0.080164
 C 0.449 0.8111 0.7893   -0.062847
 C 0.3245 0.7991 0.80473   0.012276
 C 0.6828 0.8241 0.81101   0.645855
 C 0.0958 0.6444 0.85311   -0.315711
 C 0.9663 0.6184 0.8474   0.001947
 C 0.9319 0.5223 0.82673   -0.062119
 C 0.0259 0.45 0.81278   -0.084302
 C 0.1533 0.4756 0.81898   -0.0713
 C 0.1878 0.5725 0.83937   -0.004863
 C 0.9901 0.3456 0.78686   0.630085
 C 0.1589 0.0 0.75   0.785765
 C 0.8411 0.0 0.25   0.785765
 O 0.8958 0.846 0.67619   -0.688242
 O 0.8797 0.99898 0.67556   -0.759743
 O 0.2248 0.8147 0.34321   -0.632761
 O 0.2983 0.8472 0.26333   -0.61563
 O 0.1235 0.3225 0.27069   -0.636323
 O 0.9251 0.2811 0.2791   -0.63659
 O 0.9523 0.8306 0.35183   -0.833062
 O 0.1112 0.9281 0.75889   -0.715597
 O 0.8958 0.154 0.82381   -0.688284
 O 0.8797 0.00102 0.82444   -0.759675
 O 0.2248 0.1853 0.15679   -0.632771
 O 0.2983 0.1528 0.23667   -0.615596
 O 0.1235 0.6775 0.22931   -0.636331
 O 0.9251 0.7189 0.2209   -0.636633
 O 0.9523 0.1694 0.14817   -0.83307
 O 0.1112 0.0719 0.74111   -0.715592
 O 0.1042 0.154 0.32381   -0.688284
 O 0.1203 0.00102 0.32444   -0.759675
 O 0.7752 0.1853 0.65679   -0.632771
 O 0.7017 0.1528 0.73667   -0.615596
 O 0.8765 0.6775 0.72931   -0.636331
 O 0.0749 0.7189 0.7209   -0.636633
 O 0.0477 0.1694 0.64817   -0.83307
 O 0.8888 0.0719 0.24111   -0.715592
 O 0.1042 0.846 0.17619   -0.688242
 O 0.1203 0.99898 0.17556   -0.759743
 O 0.7752 0.8147 0.84321   -0.632761
 O 0.7017 0.8472 0.76333   -0.61563
 O 0.8765 0.3225 0.77069   -0.636323
 O 0.0749 0.2811 0.7791   -0.63659
 O 0.0477 0.8306 0.85183   -0.833062
 O 0.8888 0.9281 0.25889   -0.715597
