{'_ref': 'TBD', '_srcid': 'CAKYAQ_clean', 'submitters': [{'name': 'Dalar Nazarian Jeff Camp and David Sholl', 'email': 'dalar@gatech.edu jcamp6@gatech.edu'}], '_method': 'VASP DFT with PBE;DDEC'}
data_CoH7C9N2O5
_symmetry_space_group_name_H-M   'P 1'
_cell_length_a   6.62000000
_cell_length_b   7.66700000
_cell_length_c   26.28200000
_cell_angle_alpha   90.00000000
_cell_angle_beta   90.00000000
_cell_angle_gamma   90.00000000
_symmetry_Int_Tables_number   1
_chemical_formula_structural   CoH7C9N2O5
_chemical_formula_sum   'Co4 H28 C36 N8 O20'
_cell_volume   1333.95710228
_cell_formula_units_Z   4
loop_
 _symmetry_equiv_pos_site_id
 _symmetry_equiv_pos_as_xyz
  1  'x, y, z'
loop_
 _atom_site_label
 _atom_site_fract_x
 _atom_site_fract_y
 _atom_site_fract_z
 _atom_site_charge
 Co 0.98584 0.25071 0.28336   1.114151
 Co 0.01416 0.25071 0.71664   1.11415
 Co 0.48584 0.74929 0.21664   1.114151
 Co 0.51416 0.74929 0.78336   1.11415
 H 0.9724 0.4117 0.1483   0.071398
 H 0.0829 0.1352 0.1351   0.139202
 H 0.2752 0.251 0.1421   0.151837
 H 0.9666 0.3829 0.3949   0.078755
 H 0.1626 0.4 0.4672   0.137496
 H 0.6186 0.1834 0.389   0.1485
 H 0.4039 0.1662 0.3202   0.086143
 H 0.0276 0.4117 0.8517   0.071398
 H 0.9171 0.1352 0.8649   0.139202
 H 0.7248 0.251 0.8579   0.151837
 H 0.0334 0.3829 0.6051   0.078755
 H 0.8374 0.4 0.5328   0.137497
 H 0.3814 0.1834 0.611   0.1485
 H 0.5961 0.1662 0.6798   0.086143
 H 0.4724 0.5883 0.3517   0.071398
 H 0.5829 0.8648 0.3649   0.139201
 H 0.7752 0.749 0.3579   0.151837
 H 0.4666 0.6171 0.1051   0.078756
 H 0.6626 0.6 0.0328   0.137494
 H 0.1186 0.8166 0.111   0.1485
 H 0.9039 0.8338 0.1798   0.086143
 H 0.5276 0.5883 0.6483   0.071398
 H 0.4171 0.8648 0.6351   0.139201
 H 0.2248 0.749 0.6421   0.151837
 H 0.5334 0.6171 0.8949   0.078756
 H 0.3374 0.6 0.9672   0.137496
 H 0.8814 0.8166 0.889   0.148499
 H 0.0961 0.8338 0.8202   0.086143
 C 0.1499 0.4836 0.2084   0.622167
 C 0.0278 0.3523 0.1782   0.097178
 C 0.1596 0.2022 0.1597   -0.385131
 C 0.237 0.0774 0.2006   0.761442
 C 0.0977 0.3394 0.394   0.186228
 C 0.2143 0.3501 0.4377   -0.247935
 C 0.4083 0.2851 0.4365   0.243021
 C 0.4853 0.2206 0.3916   -0.233624
 C 0.3542 0.2138 0.3503   0.204429
 C 0.8501 0.4836 0.7916   0.622167
 C 0.9722 0.3523 0.8218   0.097178
 C 0.8404 0.2022 0.8403   -0.385131
 C 0.763 0.0774 0.7994   0.761442
 C 0.9023 0.3394 0.606   0.186227
 C 0.7857 0.3501 0.5623   -0.247933
 C 0.5917 0.2851 0.5635   0.243012
 C 0.5147 0.2206 0.6084   -0.233625
 C 0.6458 0.2138 0.6497   0.204429
 C 0.6499 0.5164 0.2916   0.622167
 C 0.5278 0.6477 0.3218   0.097178
 C 0.6596 0.7978 0.3403   -0.385131
 C 0.737 0.9226 0.2994   0.761442
 C 0.5977 0.6606 0.106   0.186228
 C 0.7143 0.6499 0.0623   -0.247935
 C 0.9083 0.7149 0.0635   0.243021
 C 0.9853 0.7794 0.1084   -0.233624
 C 0.8542 0.7862 0.1497   0.204428
 C 0.3501 0.5164 0.7084   0.622167
 C 0.4722 0.6477 0.6782   0.097178
 C 0.3404 0.7978 0.6597   -0.385131
 C 0.263 0.9226 0.7006   0.761442
 C 0.4023 0.6606 0.894   0.186227
 C 0.2857 0.6499 0.9377   -0.247932
 C 0.0917 0.7149 0.9365   0.243011
 C 0.0147 0.7794 0.8916   -0.233625
 C 0.1458 0.7862 0.8503   0.204429
 N 0.1655 0.269 0.35   -0.31998
 N 0.5421 0.2871 0.4792   -0.146557
 N 0.8345 0.269 0.65   -0.319979
 N 0.4579 0.2871 0.5208   -0.146464
 N 0.6655 0.731 0.15   -0.31998
 N 0.0421 0.7129 0.0208   -0.146557
 N 0.3345 0.731 0.85   -0.319979
 N 0.9579 0.7129 0.9792   -0.146464
 O 0.126 0.4798 0.25641   -0.524117
 O 0.8618 0.2793 0.20657   -0.431583
 O 0.2038 0.101 0.24696   -0.590211
 O 0.341 0.9537 0.18336   -0.603732
 O 0.2673 0.5795 0.1846   -0.559117
 O 0.874 0.4798 0.74359   -0.524117
 O 0.1382 0.2793 0.79343   -0.431583
 O 0.7962 0.101 0.75304   -0.590211
 O 0.659 0.9537 0.81664   -0.603732
 O 0.7327 0.5795 0.8154   -0.559117
 O 0.626 0.5202 0.24359   -0.524118
 O 0.3618 0.7207 0.29343   -0.431583
 O 0.7038 0.899 0.25304   -0.590212
 O 0.841 0.0463 0.31664   -0.603732
 O 0.7673 0.4205 0.3154   -0.559117
 O 0.374 0.5202 0.75641   -0.524118
 O 0.6382 0.7207 0.70657   -0.431583
 O 0.2962 0.899 0.74696   -0.590212
 O 0.159 0.0463 0.68336   -0.603732
 O 0.2327 0.4205 0.6846   -0.559117
