{'_ref': 'TBD', '_srcid': 'CAKYAQ_clean', 'submitters': [{'name': 'Dalar Nazarian Jeff Camp and David Sholl', 'email': 'dalar@gatech.edu jcamp6@gatech.edu'}], '_method': 'VASP DFT with PBE;DDEC'}
data_Mn3H26(C11O3)4
_symmetry_space_group_name_H-M   'P 1'
_cell_length_a   13.55200030
_cell_length_b   16.33290038
_cell_length_c   17.34690000
_cell_angle_alpha   67.29320066
_cell_angle_beta   67.00700120
_cell_angle_gamma   65.48899943
_symmetry_Int_Tables_number   1
_chemical_formula_structural   Mn3H26(C11O3)4
_chemical_formula_sum   'Mn6 H52 C88 O24'
_cell_volume   3098.94759197
_cell_formula_units_Z   2
loop_
 _symmetry_equiv_pos_site_id
 _symmetry_equiv_pos_as_xyz
  1  'x, y, z'
loop_
 _atom_site_label
 _atom_site_fract_x
 _atom_site_fract_y
 _atom_site_fract_z
 _atom_site_charge
 Mn 0.41156 0.46874 0.60204   1.122682
 Mn 0.48234 0.03126 0.89796   1.123216
 Mn 0.58844 0.53126 0.39796   1.122681
 Mn 0.51766 0.96874 0.10204   1.123216
 Mn 0.45586 0.25 0.75   1.226101
 Mn 0.54414 0.75 0.25   1.226101
 H 0.0585 0.5838 0.7496   0.096001
 H 0.8704 0.6077 0.8189   0.100984
 H 0.9235 0.3354 0.9092   0.114013
 H 0.1138 0.3117 0.8421   0.100253
 H 0.7498 0.4357 0.9745   0.104282
 H 0.7783 0.5271 0.0421   0.113136
 H 0.7078 0.6579 0.0899   0.091075
 H 0.5361 0.7927 0.9125   0.098214
 H 0.6017 0.6576 0.868   0.107886
 H 0.6104 0.3961 0.9707   0.10129
 H 0.5282 0.3648 0.8966   0.068358
 H 0.6659 0.5273 0.6773   0.098327
 H 0.7546 0.5522 0.7516   0.10261
 H 0.3919 0.9162 0.7504   0.096222
 H 0.297 0.8923 0.6811   0.101099
 H 0.1681 0.1646 0.5908   0.113266
 H 0.2676 0.1883 0.6579   0.100747
 H 0.16 0.0643 0.5255   0.104556
 H 0.3475 0.9729 0.4579   0.114147
 H 0.4556 0.8421 0.4101   0.091939
 H 0.2413 0.7073 0.5875   0.09931
 H 0.1273 0.8424 0.632   0.106942
 H 0.9772 0.1039 0.5293   0.101255
 H 0.7896 0.1352 0.6034   0.068739
 H 0.8705 0.9727 0.8227   0.097798
 H 0.0584 0.9478 0.7484   0.103209
 H 0.9415 0.4162 0.2504   0.096001
 H 0.1296 0.3923 0.1811   0.100984
 H 0.0765 0.6646 0.0908   0.114013
 H 0.8862 0.6883 0.1579   0.100253
 H 0.2502 0.5643 0.0255   0.104282
 H 0.2217 0.4729 0.9579   0.113136
 H 0.2922 0.3421 0.9101   0.091075
 H 0.4639 0.2073 0.0875   0.098214
 H 0.3983 0.3424 0.132   0.107885
 H 0.3896 0.6039 0.0293   0.10129
 H 0.4718 0.6352 0.1034   0.068358
 H 0.3341 0.4727 0.3227   0.098327
 H 0.2454 0.4478 0.2484   0.10261
 H 0.6081 0.0838 0.2496   0.096222
 H 0.703 0.1077 0.3189   0.101099
 H 0.8319 0.8354 0.4092   0.113266
 H 0.7324 0.8117 0.3421   0.100747
 H 0.84 0.9357 0.4745   0.104556
 H 0.6525 0.0271 0.5421   0.114147
 H 0.5444 0.1579 0.5899   0.091939
 H 0.7587 0.2927 0.4125   0.09931
 H 0.8727 0.1576 0.368   0.106942
 H 0.0228 0.8961 0.4707   0.101255
 H 0.2104 0.8648 0.3966   0.068739
 H 0.1295 0.0273 0.1773   0.097798
 H 0.9416 0.0522 0.2516   0.103209
 C 0.22729 0.42812 0.7433   0.72201
 C 0.10571 0.44521 0.78917   -0.171426
 C 0.03231 0.53278 0.7826   -0.016948
 C 0.91936 0.54688 0.8244   -0.163484
 C 0.87689 0.47453 0.87349   0.092553
 C 0.95007 0.38646 0.8782   -0.172569
 C 0.06445 0.3724 0.8369   -0.0123
 C 0.75266 0.48723 0.92117   -0.098504
 C 0.69837 0.57817 0.94985   0.090305
 C 0.72855 0.5804 0.0159   -0.157053
 C 0.68738 0.65887 0.04417   0.012143
 C 0.61617 0.73883 0.00523   -0.185842
 C 0.58444 0.73875 0.93917   -0.002447
 C 0.62472 0.65768 0.91188   -0.159982
 C 0.57303 0.82431 0.03523   0.760071
 C 0.69281 0.477 0.86878   0.083405
 C 0.62378 0.42174 0.9109   -0.169615
 C 0.57376 0.40338 0.8663   -0.008864
 C 0.59026 0.44086 0.77782   -0.155109
 C 0.65593 0.49849 0.73645   -0.026337
 C 0.70805 0.51457 0.78173   -0.16131
 C 0.53689 0.41638 0.73224   0.728626
 C 0.39871 0.07188 0.7567   0.721672
 C 0.34009 0.05479 0.71083   -0.171922
 C 0.34769 0.96722 0.7174   -0.016446
 C 0.29064 0.95312 0.6756   -0.16391
 C 0.22491 0.02547 0.62651   0.092655
 C 0.21473 0.11354 0.6218   -0.170597
 C 0.27375 0.1276 0.6631   -0.01367
 C 0.16106 0.01277 0.57883   -0.100209
 C 0.22639 0.92183 0.55015   0.090172
 C 0.32485 0.9196 0.4841   -0.157975
 C 0.39042 0.84113 0.45583   0.010731
 C 0.36023 0.76117 0.49477   -0.183864
 C 0.26236 0.76125 0.56083   -0.005854
 C 0.19428 0.84232 0.58812   -0.157676
 C 0.43257 0.67569 0.46477   0.759257
 C 0.03859 0.023 0.63122   0.084907
 C 0.95642 0.07826 0.5891   -0.170334
 C 0.84344 0.09662 0.6337   -0.008881
 C 0.80894 0.05914 0.72218   -0.156118
 C 0.89087 0.00151 0.76355   -0.024866
 C 0.00435 0.98543 0.71827   -0.162967
 C 0.68551 0.08362 0.76776   0.730069
 C 0.77271 0.57188 0.2567   0.72201
 C 0.89429 0.55479 0.21083   -0.171425
 C 0.96769 0.46722 0.2174   -0.016948
 C 0.08064 0.45312 0.1756   -0.163484
 C 0.12311 0.52547 0.12651   0.092553
 C 0.04993 0.61354 0.1218   -0.172569
 C 0.93555 0.6276 0.1631   -0.0123
 C 0.24734 0.51277 0.07883   -0.098504
 C 0.30163 0.42183 0.05015   0.090305
 C 0.27145 0.4196 0.9841   -0.157053
 C 0.31262 0.34113 0.95583   0.012143
 C 0.38383 0.26117 0.99477   -0.185842
 C 0.41556 0.26125 0.06083   -0.002447
 C 0.37528 0.34232 0.08812   -0.159982
 C 0.42697 0.17569 0.96477   0.760071
 C 0.30719 0.523 0.13122   0.083405
 C 0.37622 0.57826 0.0891   -0.169615
 C 0.42624 0.59662 0.1337   -0.008864
 C 0.40974 0.55914 0.22218   -0.155109
 C 0.34407 0.50151 0.26355   -0.026337
 C 0.29195 0.48543 0.21827   -0.16131
 C 0.46311 0.58362 0.26776   0.728626
 C 0.60129 0.92812 0.2433   0.721672
 C 0.65991 0.94521 0.28917   -0.171922
 C 0.65231 0.03278 0.2826   -0.016446
 C 0.70936 0.04688 0.3244   -0.16391
 C 0.77509 0.97453 0.37349   0.092655
 C 0.78527 0.88646 0.3782   -0.170597
 C 0.72625 0.8724 0.3369   -0.01367
 C 0.83894 0.98723 0.42117   -0.100209
 C 0.77361 0.07817 0.44985   0.090172
 C 0.67515 0.0804 0.5159   -0.157975
 C 0.60958 0.15887 0.54417   0.010731
 C 0.63977 0.23883 0.50523   -0.183864
 C 0.73764 0.23875 0.43917   -0.005854
 C 0.80572 0.15768 0.41188   -0.157676
 C 0.56743 0.32431 0.53523   0.759257
 C 0.96141 0.977 0.36878   0.084907
 C 0.04358 0.92174 0.4109   -0.170334
 C 0.15656 0.90338 0.3663   -0.008882
 C 0.19106 0.94086 0.27782   -0.156118
 C 0.10913 0.99849 0.23645   -0.024866
 C 0.99565 0.01457 0.28173   -0.162967
 C 0.31449 0.91638 0.23224   0.730069
 O 0.29137 0.34608 0.75512   -0.644975
 O 0.25963 0.49609 0.69491   -0.628041
 O 0.53124 0.90137 0.98843   -0.653032
 O 0.58151 0.81798 0.10744   -0.656153
 O 0.52345 0.47079 0.65931   -0.645666
 O 0.50776 0.34497 0.76885   -0.631937
 O 0.39257 0.15392 0.74488   -0.644222
 O 0.45063 0.00391 0.80509   -0.628477
 O 0.42104 0.59863 0.51157   -0.652272
 O 0.50693 0.68202 0.39256   -0.656203
 O 0.65355 0.02921 0.84069   -0.646327
 O 0.62158 0.15503 0.73115   -0.631844
 O 0.70863 0.65392 0.24488   -0.644975
 O 0.74037 0.50391 0.30509   -0.628041
 O 0.46876 0.09863 0.01157   -0.653032
 O 0.41849 0.18202 0.89256   -0.656153
 O 0.47655 0.52921 0.34069   -0.645666
 O 0.49224 0.65503 0.23115   -0.631937
 O 0.60743 0.84608 0.25512   -0.644222
 O 0.54937 0.99609 0.19491   -0.628477
 O 0.57896 0.40137 0.48843   -0.652272
 O 0.49307 0.31798 0.60744   -0.656203
 O 0.34645 0.97079 0.15931   -0.646327
 O 0.37842 0.84497 0.26885   -0.631844
