{'_ref': 'TBD', '_srcid': 'CAKYAQ_clean', 'submitters': [{'name': 'Dalar Nazarian Jeff Camp and David Sholl', 'email': 'dalar@gatech.edu jcamp6@gatech.edu'}], '_method': 'VASP DFT with PBE;DDEC'}
data_Mn3H8C16(N5O4)2
_symmetry_space_group_name_H-M   'P 1'
_cell_length_a   12.17000000
_cell_length_b   13.60100000
_cell_length_c   17.40000000
_cell_angle_alpha   90.00000000
_cell_angle_beta   90.00000000
_cell_angle_gamma   90.00000000
_symmetry_Int_Tables_number   1
_chemical_formula_structural   Mn3H8C16(N5O4)2
_chemical_formula_sum   'Mn12 H32 C64 N40 O32'
_cell_volume   2880.120558
_cell_formula_units_Z   4
loop_
 _symmetry_equiv_pos_site_id
 _symmetry_equiv_pos_as_xyz
  1  'x, y, z'
loop_
 _atom_site_label
 _atom_site_fract_x
 _atom_site_fract_y
 _atom_site_fract_z
 _atom_site_charge
 Mn 0.21266 0.75497 0.21202   1.065936
 Mn 0.28734 0.24503 0.71202   1.065936
 Mn 0.78734 0.25497 0.28798   1.065936
 Mn 0.71266 0.74503 0.78798   1.065936
 Mn 0.78734 0.24503 0.78798   1.065936
 Mn 0.71266 0.75497 0.28798   1.065936
 Mn 0.21266 0.74503 0.71202   1.065936
 Mn 0.28734 0.25497 0.21202   1.065936
 Mn 0.5 0.5 0.5   1.100176
 Mn 0.0 0.5 0.0   1.100176
 Mn 0.5 0.0 0.0   1.100176
 Mn 0.0 0.0 0.5   1.100176
 H 0.0117 0.5947 0.2764   0.079169
 H 0.3238 0.56 0.3022   0.10377
 H 0.1996 0.3486 0.3929   0.156969
 H 0.2482 0.4295 0.4478   0.139664
 H 0.4883 0.4053 0.7764   0.079169
 H 0.1762 0.44 0.8022   0.10377
 H 0.3004 0.6514 0.8929   0.156969
 H 0.2518 0.5705 0.9478   0.139664
 H 0.9883 0.0947 0.2236   0.079169
 H 0.6762 0.06 0.1978   0.10377
 H 0.8004 0.8486 0.1071   0.156969
 H 0.7518 0.9295 0.0522   0.139664
 H 0.5117 0.9053 0.7236   0.079169
 H 0.8238 0.94 0.6978   0.10377
 H 0.6996 0.1514 0.6071   0.156969
 H 0.7482 0.0705 0.5522   0.139664
 H 0.9883 0.4053 0.7236   0.079171
 H 0.6762 0.44 0.6978   0.103772
 H 0.8004 0.6514 0.6071   0.156969
 H 0.7518 0.5705 0.5522   0.139664
 H 0.5117 0.5947 0.2236   0.079171
 H 0.8238 0.56 0.1978   0.103772
 H 0.6996 0.3486 0.1071   0.156969
 H 0.7482 0.4295 0.0522   0.139664
 H 0.0117 0.9053 0.7764   0.079171
 H 0.3238 0.94 0.8022   0.103772
 H 0.1996 0.1514 0.8929   0.156969
 H 0.2482 0.0705 0.9478   0.139664
 H 0.4883 0.0947 0.2764   0.079171
 H 0.1762 0.06 0.3022   0.103772
 H 0.3004 0.8486 0.3929   0.156969
 H 0.2518 0.9295 0.4478   0.139664
 C 0.0792 0.5696 0.292   0.29075
 C 0.248 0.5523 0.3052   0.161874
 C 0.2451 0.4071 0.3949   -0.186133
 C 0.3584 0.3837 0.36693   0.410031
 C 0.4911 0.3303 0.29612   0.006738
 C 0.5356 0.2746 0.2296   0.658838
 C 0.5352 0.3854 0.35612   -0.020422
 C 0.6476 0.4193 0.3772   0.671475
 C 0.4208 0.4304 0.792   0.29075
 C 0.252 0.4477 0.8052   0.161874
 C 0.2549 0.5929 0.8949   -0.186133
 C 0.1416 0.6163 0.86693   0.410031
 C 0.0089 0.6697 0.79612   0.006738
 C 0.9644 0.7254 0.7296   0.658838
 C 0.9648 0.6146 0.85612   -0.020422
 C 0.8524 0.5807 0.8772   0.671475
 C 0.9208 0.0696 0.208   0.29075
 C 0.752 0.0523 0.1948   0.161874
 C 0.7549 0.9071 0.1051   -0.186133
 C 0.6416 0.8837 0.13307   0.410031
 C 0.5089 0.8303 0.20388   0.006738
 C 0.4644 0.7746 0.2704   0.658838
 C 0.4648 0.8854 0.14388   -0.020422
 C 0.3524 0.9193 0.1228   0.671475
 C 0.5792 0.9304 0.708   0.29075
 C 0.748 0.9477 0.6948   0.161874
 C 0.7451 0.0929 0.6051   -0.186133
 C 0.8584 0.1163 0.63307   0.410031
 C 0.9911 0.1697 0.70388   0.006738
 C 0.0356 0.2254 0.7704   0.658838
 C 0.0352 0.1146 0.64388   -0.020422
 C 0.1476 0.0807 0.6228   0.671475
 C 0.9208 0.4304 0.708   0.290749
 C 0.752 0.4477 0.6948   0.161874
 C 0.7549 0.5929 0.6051   -0.186133
 C 0.6416 0.6163 0.63307   0.41003
 C 0.5089 0.6697 0.70388   0.006738
 C 0.4644 0.7254 0.7704   0.658839
 C 0.4648 0.6146 0.64388   -0.020423
 C 0.3524 0.5807 0.6228   0.671476
 C 0.5792 0.5696 0.208   0.290749
 C 0.748 0.5523 0.1948   0.161874
 C 0.7451 0.4071 0.1051   -0.186133
 C 0.8584 0.3837 0.13307   0.41003
 C 0.9911 0.3303 0.20388   0.006738
 C 0.0356 0.2746 0.2704   0.658839
 C 0.0352 0.3854 0.14388   -0.020423
 C 0.1476 0.4193 0.1228   0.671476
 C 0.0792 0.9304 0.792   0.290749
 C 0.248 0.9477 0.8052   0.161874
 C 0.2451 0.0929 0.8949   -0.186133
 C 0.3584 0.1163 0.86693   0.41003
 C 0.4911 0.1697 0.79612   0.006738
 C 0.5356 0.2254 0.7296   0.658839
 C 0.5352 0.1146 0.85612   -0.020423
 C 0.6476 0.0807 0.8772   0.671476
 C 0.4208 0.0696 0.292   0.290749
 C 0.252 0.0523 0.3052   0.161874
 C 0.2549 0.9071 0.3949   -0.186133
 C 0.1416 0.8837 0.36693   0.41003
 C 0.0089 0.8303 0.29612   0.006738
 C 0.9644 0.7746 0.2296   0.658839
 C 0.9648 0.8854 0.35612   -0.020423
 C 0.8524 0.9193 0.3772   0.671476
 N 0.1977 0.4839 0.34624   0.197051
 N 0.0882 0.4938 0.338   -0.369012
 N 0.1759 0.6082 0.2691   -0.465701
 N 0.3783 0.3311 0.30357   -0.449561
 N 0.4493 0.4188 0.39992   -0.529757
 N 0.3023 0.5161 0.84624   0.197051
 N 0.4118 0.5062 0.838   -0.369012
 N 0.3241 0.3918 0.7691   -0.465701
 N 0.1217 0.6689 0.80357   -0.449561
 N 0.0507 0.5812 0.89992   -0.529757
 N 0.8023 0.9839 0.15376   0.197051
 N 0.9118 0.9938 0.162   -0.369012
 N 0.8241 0.1082 0.2309   -0.465701
 N 0.6217 0.8311 0.19643   -0.449561
 N 0.5507 0.9188 0.10008   -0.529757
 N 0.6977 0.0161 0.65376   0.197051
 N 0.5882 0.0062 0.662   -0.369012
 N 0.6759 0.8918 0.7309   -0.465701
 N 0.8783 0.1689 0.69643   -0.449561
 N 0.9493 0.0812 0.60008   -0.529757
 N 0.8023 0.5161 0.65376   0.197051
 N 0.9118 0.5062 0.662   -0.369013
 N 0.8241 0.3918 0.7309   -0.465701
 N 0.6217 0.6689 0.69643   -0.449561
 N 0.5507 0.5812 0.60008   -0.529757
 N 0.6977 0.4839 0.15376   0.197051
 N 0.5882 0.4938 0.162   -0.369013
 N 0.6759 0.6082 0.2309   -0.465701
 N 0.8783 0.3311 0.19643   -0.449561
 N 0.9493 0.4188 0.10008   -0.529757
 N 0.1977 0.0161 0.84624   0.197051
 N 0.0882 0.0062 0.838   -0.369013
 N 0.1759 0.8918 0.7691   -0.465701
 N 0.3783 0.1689 0.80357   -0.449561
 N 0.4493 0.0812 0.89992   -0.529757
 N 0.3023 0.9839 0.34624   0.197051
 N 0.4118 0.9938 0.338   -0.369013
 N 0.3241 0.1082 0.2691   -0.465701
 N 0.1217 0.8311 0.30357   -0.449561
 N 0.0507 0.9188 0.39992   -0.529757
 O 0.4663 0.24889 0.17913   -0.604263
 O 0.6354 0.25183 0.22624   -0.631577
 O 0.6516 0.48473 0.42944   -0.634788
 O 0.7322 0.3864 0.34552   -0.601141
 O 0.0337 0.75111 0.67913   -0.604263
 O 0.8646 0.74817 0.72624   -0.631577
 O 0.8484 0.51527 0.92944   -0.634788
 O 0.7678 0.6136 0.84552   -0.601141
 O 0.5337 0.74889 0.32087   -0.604263
 O 0.3646 0.75183 0.27376   -0.631577
 O 0.3484 0.98473 0.07056   -0.634788
 O 0.2678 0.8864 0.15448   -0.601141
 O 0.9663 0.25111 0.82087   -0.604263
 O 0.1354 0.24817 0.77376   -0.631577
 O 0.1516 0.01527 0.57056   -0.634788
 O 0.2322 0.1136 0.65448   -0.601141
 O 0.5337 0.75111 0.82087   -0.604263
 O 0.3646 0.74817 0.77376   -0.631577
 O 0.3484 0.51527 0.57056   -0.634788
 O 0.2678 0.6136 0.65448   -0.601141
 O 0.9663 0.24889 0.32087   -0.604263
 O 0.1354 0.25183 0.27376   -0.631577
 O 0.1516 0.48473 0.07056   -0.634788
 O 0.2322 0.3864 0.15448   -0.601141
 O 0.4663 0.25111 0.67913   -0.604263
 O 0.6354 0.24817 0.72624   -0.631577
 O 0.6516 0.01527 0.92944   -0.634788
 O 0.7322 0.1136 0.84552   -0.601141
 O 0.0337 0.74889 0.17913   -0.604263
 O 0.8646 0.75183 0.22624   -0.631577
 O 0.8484 0.98473 0.42944   -0.634788
 O 0.7678 0.8864 0.34552   -0.601141
