{'_ref': 'TBD', '_srcid': 'CAKYAQ_clean', 'submitters': [{'name': 'Dalar Nazarian Jeff Camp and David Sholl', 'email': 'dalar@gatech.edu jcamp6@gatech.edu'}], '_method': 'VASP DFT with PBE;DDEC'}
data_ZnH7C15O7
_symmetry_space_group_name_H-M   'P 1'
_cell_length_a   7.54500040
_cell_length_b   9.68500057
_cell_length_c   13.94300000
_cell_angle_alpha   81.67799765
_cell_angle_beta   76.87700003
_cell_angle_gamma   80.70599814
_symmetry_Int_Tables_number   1
_chemical_formula_structural   ZnH7C15O7
_chemical_formula_sum   'Zn2 H14 C30 O14'
_cell_volume   973.018074928
_cell_formula_units_Z   2
loop_
 _symmetry_equiv_pos_site_id
 _symmetry_equiv_pos_as_xyz
  1  'x, y, z'
loop_
 _atom_site_label
 _atom_site_fract_x
 _atom_site_fract_y
 _atom_site_fract_z
 _atom_site_charge
 Zn 0.77241 0.40863 0.49591   1.04987
 Zn 0.22759 0.59137 0.50409   1.049867
 H 0.1152 0.732 0.2157   0.105637
 H 0.4944 0.757 0.214   0.146632
 H 0.0354 0.5709 0.8231   0.095322
 H 0.013 0.8038 0.0684   0.135526
 H 0.8431 0.9701 0.729   0.118022
 H 0.8843 0.6058 0.9851   0.130931
 H 0.6952 0.0069 0.8915   0.132147
 H 0.8848 0.268 0.7843   0.105637
 H 0.5056 0.243 0.786   0.146632
 H 0.9646 0.4291 0.1769   0.095323
 H 0.987 0.1962 0.9316   0.135524
 H 0.1569 0.0299 0.271   0.118023
 H 0.1157 0.3942 0.0149   0.130936
 H 0.3048 0.9931 0.1085   0.132145
 C 0.7761 0.8092 0.95196   0.286744
 C 0.5306 0.7038 0.39564   0.591944
 C 0.9378 0.6596 0.39701   0.697963
 C 0.6794 0.7182 0.30371   0.048243
 C 0.0435 0.7439 0.6558   0.624286
 C 0.8665 0.7067 0.30445   -0.131664
 C 0.9882 0.7386 0.21595   0.011676
 C 0.9536 0.767 0.76062   -0.126729
 C 0.6204 0.7541 0.21498   -0.22706
 C 0.9656 0.6593 0.8369   0.007767
 C 0.7443 0.7855 0.12837   0.29347
 C 0.9285 0.7798 0.12804   -0.231801
 C 0.8519 0.8963 0.78125   0.008413
 C 0.8766 0.6797 0.9328   -0.249909
 C 0.7635 0.9183 0.87724   -0.230835
 C 0.2239 0.1908 0.04804   0.286745
 C 0.4694 0.2962 0.60436   0.591946
 C 0.0622 0.3404 0.60299   0.697963
 C 0.3206 0.2818 0.69629   0.048241
 C 0.9565 0.2561 0.3442   0.624284
 C 0.1335 0.2933 0.69555   -0.131665
 C 0.0118 0.2614 0.78405   0.011676
 C 0.0464 0.233 0.23938   -0.126731
 C 0.3796 0.2459 0.78502   -0.227063
 C 0.0344 0.3407 0.1631   0.007768
 C 0.2557 0.2145 0.87163   0.293466
 C 0.0715 0.2202 0.87196   -0.231802
 C 0.1481 0.1037 0.21875   0.008407
 C 0.1234 0.3203 0.0672   -0.249907
 C 0.2365 0.0817 0.12276   -0.230839
 O 0.8334 0.60795 0.47307   -0.598629
 O 0.4657 0.80724 0.44196   -0.387411
 O 0.0189 0.83848 0.58783   -0.385445
 O 0.4682 0.58701 0.41482   -0.53366
 O 0.1424 0.6266 0.64172   -0.567693
 O 0.102 0.67329 0.39353   -0.576261
 O 0.6712 0.8328 0.04514   -0.237475
 O 0.1666 0.39205 0.52693   -0.598629
 O 0.5343 0.19276 0.55804   -0.387429
 O 0.9811 0.16152 0.41217   -0.38545
 O 0.5318 0.41299 0.58518   -0.53366
 O 0.8576 0.3734 0.35828   -0.567693
 O 0.898 0.32671 0.60647   -0.576261
 O 0.3288 0.1672 0.95486   -0.237475
