{'_ref': 'TBD', '_srcid': 'CAKYAQ_clean', 'submitters': [{'name': 'Dalar Nazarian Jeff Camp and David Sholl', 'email': 'dalar@gatech.edu jcamp6@gatech.edu'}], '_method': 'VASP DFT with PBE;DDEC'}
data_Fe3H12C26(N6O)4
_symmetry_space_group_name_H-M   'P 1'
_cell_length_a   12.10599987
_cell_length_b   12.11799967
_cell_length_c   13.72072374
_cell_angle_alpha   81.03715481
_cell_angle_beta   63.82264581
_cell_angle_gamma   69.32000061
_symmetry_Int_Tables_number   1
_chemical_formula_structural   Fe3H12C26(N6O)4
_chemical_formula_sum   'Fe3 H12 C26 N24 O4'
_cell_volume   1689.99579495
_cell_formula_units_Z   1
loop_
 _symmetry_equiv_pos_site_id
 _symmetry_equiv_pos_as_xyz
  1  'x, y, z'
loop_
 _atom_site_label
 _atom_site_fract_x
 _atom_site_fract_y
 _atom_site_fract_z
 _atom_site_charge
 Fe 0.0 0.0 0.0   0.120368
 Fe 0.10403 0.25705 0.0   0.961136
 Fe 0.89597 0.74295 0.0   0.961135
 H 0.3372 0.9126 0.572   0.114286
 H 0.5123 0.126 0.6046   0.120849
 H 0.0908 0.0874 0.572   0.11384
 H 0.8831 0.874 0.6046   0.122551
 H 0.6628 0.0874 0.428   0.114288
 H 0.4877 0.874 0.3954   0.120852
 H 0.9092 0.9126 0.428   0.113841
 H 0.1169 0.126 0.3954   0.122554
 H 0.5295 0.3018 0.0   0.1111
 H 0.6629 0.5583 0.0   0.103745
 H 0.4705 0.6982 0.0   0.111098
 H 0.3371 0.4417 0.0   0.103743
 C 0.4041 0.9477 0.5432   -0.080971
 C 0.4091 0.0183 0.6088   -0.025098
 C 0.5081 0.0741 0.562   -0.086436
 C 0.3171 0.0433 0.7222   0.356216
 C 0.0527 0.0523 0.5432   -0.078908
 C 0.9821 0.9817 0.6088   -0.025321
 C 0.9299 0.9259 0.562   -0.089627
 C 0.9607 0.9567 0.7222   0.358424
 C 0.5959 0.0523 0.4568   -0.080946
 C 0.5909 0.9817 0.3912   -0.025106
 C 0.4919 0.9259 0.438   -0.086412
 C 0.6829 0.9567 0.2778   0.356217
 C 0.9473 0.9477 0.4568   -0.078884
 C 0.0179 0.0183 0.3912   -0.02533
 C 0.0701 0.0741 0.438   -0.089603
 C 0.0393 0.0433 0.2778   0.358425
 C 0.5189 0.3833 0.0   -0.086687
 C 0.6144 0.4146 0.0   -0.016235
 C 0.5971 0.5329 0.0   -0.087436
 C 0.7366 0.3324 0.0   0.362615
 C 0.4811 0.6167 0.0   -0.086677
 C 0.3856 0.5854 0.0   -0.016238
 C 0.4029 0.4671 0.0   -0.087427
 C 0.2634 0.6676 0.0   0.362616
 C 0.0318 0.5 0.9364   0.487205
 C 0.9682 0.5 0.0636   0.487205
 N 0.238 0.9799 0.7804   -0.323423
 N 0.16362 0.0358 0.87716   0.133005
 N 0.2014 0.1251 0.8756   -0.110081
 N 0.2946 0.1354 0.78   -0.295825
 N 0.9816 0.0201 0.7804   -0.325148
 N 0.95922 0.9642 0.87716   0.134811
 N 0.923 0.8749 0.8756   -0.111308
 N 0.9254 0.8646 0.78   -0.296682
 N 0.762 0.0201 0.2196   -0.323423
 N 0.83638 0.9642 0.12284   0.133005
 N 0.7986 0.8749 0.1244   -0.110081
 N 0.7054 0.8646 0.22   -0.295825
 N 0.0184 0.9799 0.2196   -0.325148
 N 0.04078 0.0358 0.12284   0.134811
 N 0.077 0.1251 0.1244   -0.111308
 N 0.0746 0.1354 0.22   -0.296682
 N 0.7694 0.212 0.0   -0.351748
 N 0.8876 0.1757 0.0   0.145576
 N 0.9214 0.2648 0.0   -0.084138
 N 0.8296 0.3645 0.0   -0.287877
 N 0.2306 0.788 0.0   -0.351748
 N 0.1124 0.8243 0.0   0.145576
 N 0.0786 0.7352 0.0   -0.084138
 N 0.1704 0.6355 0.0   -0.287877
 O 0.10611 0.4028 0.88918   -0.46132
 O 0.00471 0.5972 0.88918   -0.461328
 O 0.89389 0.5972 0.11082   -0.46132
 O 0.99529 0.4028 0.11082   -0.461328
