{'_ref': 'TBD', '_srcid': 'CAKYAQ_clean', 'submitters': [{'name': 'Dalar Nazarian Jeff Camp and David Sholl', 'email': 'dalar@gatech.edu jcamp6@gatech.edu'}], '_method': 'VASP DFT with PBE;DDEC'}
data_Fe3H12C26(N6O)4
_symmetry_space_group_name_H-M   'P 1'
_cell_length_a   12.01150005
_cell_length_b   12.10199992
_cell_length_c   13.67872910
_cell_angle_alpha   81.31665741
_cell_angle_beta   63.95660841
_cell_angle_gamma   69.88789999
_symmetry_Int_Tables_number   1
_chemical_formula_structural   Fe3H12C26(N6O)4
_chemical_formula_sum   'Fe3 H12 C26 N24 O4'
_cell_volume   1677.54958511
_cell_formula_units_Z   1
loop_
 _symmetry_equiv_pos_site_id
 _symmetry_equiv_pos_as_xyz
  1  'x, y, z'
loop_
 _atom_site_label
 _atom_site_fract_x
 _atom_site_fract_y
 _atom_site_fract_z
 _atom_site_charge
 Fe 0.0 0.0 0.0   0.128302
 Fe 0.10664 0.25873 0.0   0.972113
 Fe 0.89336 0.74127 0.0   0.972113
 H 0.3298 0.9201 0.5754   0.11315
 H 0.5269 0.1117 0.6076   0.1165
 H 0.0948 0.0799 0.5754   0.112541
 H 0.8655 0.8883 0.6076   0.115546
 H 0.6702 0.0799 0.4246   0.113152
 H 0.4731 0.8883 0.3924   0.116503
 H 0.9052 0.9201 0.4246   0.112542
 H 0.1345 0.1117 0.3924   0.115548
 H 0.5278 0.3009 0.0   0.116036
 H 0.6646 0.5592 0.0   0.102756
 H 0.4722 0.6991 0.0   0.116035
 H 0.3354 0.4408 0.0   0.102754
 C 0.39925 0.9532 0.5449   -0.087395
 C 0.41322 0.0193 0.60936   -0.024906
 C 0.51529 0.0662 0.56402   -0.083828
 C 0.31991 0.0424 0.72418   0.36009
 C 0.05585 0.0468 0.5449   -0.087401
 C 0.97742 0.9807 0.60936   -0.020494
 C 0.92069 0.9338 0.56402   -0.085541
 C 0.95591 0.9576 0.72418   0.357917
 C 0.60075 0.0468 0.4551   -0.087381
 C 0.58678 0.9807 0.39064   -0.024911
 C 0.48471 0.9338 0.43598   -0.083815
 C 0.68009 0.9576 0.27582   0.360091
 C 0.94415 0.9532 0.4551   -0.087385
 C 0.02258 0.0193 0.39064   -0.0205
 C 0.07931 0.0662 0.43598   -0.085525
 C 0.04409 0.0424 0.27582   0.357917
 C 0.5172 0.3823 0.0   -0.091815
 C 0.6145 0.4173 0.0   -0.017511
 C 0.5979 0.5339 0.0   -0.081384
 C 0.7365 0.3306 0.0   0.35951
 C 0.4828 0.6177 0.0   -0.091802
 C 0.3855 0.5827 0.0   -0.017515
 C 0.4021 0.4661 0.0   -0.081372
 C 0.2635 0.6694 0.0   0.359511
 C 0.03136 0.5 0.93728   0.48853
 C 0.96864 0.5 0.06272   0.488525
 N 0.23941 0.9802 0.78198   -0.318788
 N 0.16532 0.0363 0.87716   0.136726
 N 0.20166 0.1283 0.87528   -0.123304
 N 0.29906 0.1351 0.77968   -0.296337
 N 0.97861 0.0198 0.78198   -0.316987
 N 0.95752 0.9637 0.87716   0.134699
 N 0.92306 0.8717 0.87528   -0.123331
 N 0.92126 0.8649 0.77968   -0.295089
 N 0.76059 0.0198 0.21802   -0.318788
 N 0.83468 0.9637 0.12284   0.136726
 N 0.79834 0.8717 0.12472   -0.123304
 N 0.70094 0.8649 0.22032   -0.296337
 N 0.02139 0.9802 0.21802   -0.316987
 N 0.04248 0.0363 0.12284   0.134699
 N 0.07694 0.1283 0.12472   -0.123331
 N 0.07874 0.1351 0.22032   -0.295089
 N 0.7665 0.2127 0.0   -0.341104
 N 0.8862 0.1737 0.0   0.133352
 N 0.9239 0.2631 0.0   -0.085253
 N 0.8315 0.3641 0.0   -0.285042
 N 0.2335 0.7873 0.0   -0.341104
 N 0.1138 0.8263 0.0   0.133352
 N 0.0761 0.7369 0.0   -0.085253
 N 0.1685 0.6359 0.0   -0.285042
 O 0.10665 0.40361 0.89032   -0.459137
 O 0.00303 0.59639 0.89032   -0.459006
 O 0.89335 0.59639 0.10968   -0.459137
 O 0.99697 0.40361 0.10968   -0.459006
