{'_ref': 'TBD', '_srcid': 'CAKYAQ_clean', 'submitters': [{'name': 'Dalar Nazarian Jeff Camp and David Sholl', 'email': 'dalar@gatech.edu jcamp6@gatech.edu'}], '_method': 'VASP DFT with PBE;DDEC'}
data_ZnH4(C2O)4
_symmetry_space_group_name_H-M   'P 1'
_cell_length_a   7.98899994
_cell_length_b   8.95320035
_cell_length_c   8.95320000
_cell_angle_alpha   103.08200045
_cell_angle_beta   100.06299744
_cell_angle_gamma   100.06300285
_symmetry_Int_Tables_number   1
_chemical_formula_structural   ZnH4(C2O)4
_chemical_formula_sum   'Zn2 H8 C16 O8'
_cell_volume   598.654342339
_cell_formula_units_Z   2
loop_
 _symmetry_equiv_pos_site_id
 _symmetry_equiv_pos_as_xyz
  1  'x, y, z'
loop_
 _atom_site_label
 _atom_site_fract_x
 _atom_site_fract_y
 _atom_site_fract_z
 _atom_site_charge
 Zn 0.57861 0.39521 0.39521   1.153684
 Zn 0.42139 0.60479 0.60479   1.153684
 H 0.7308 0.0456 0.5282   0.104519
 H 0.0481 0.7473 0.4639   0.092677
 H 0.2692 0.4718 0.9544   0.104521
 H 0.9519 0.5361 0.2527   0.092677
 H 0.2692 0.9544 0.4718   0.104516
 H 0.9519 0.2527 0.5361   0.092675
 H 0.7308 0.5282 0.0456   0.104519
 H 0.0481 0.4639 0.7473   0.092675
 C 0.867 0.8755 0.4963   -0.111271
 C 0.8418 0.0265 0.5167   -0.064803
 C 0.0274 0.8505 0.4789   -0.060606
 C 0.7239 0.7396 0.4924   0.726249
 C 0.133 0.5037 0.1245   -0.111268
 C 0.1582 0.4833 0.9735   -0.064805
 C 0.9726 0.5211 0.1495   -0.060605
 C 0.2761 0.5076 0.2604   0.72624
 C 0.133 0.1245 0.5037   -0.111275
 C 0.1582 0.9735 0.4833   -0.064786
 C 0.9726 0.1495 0.5211   -0.06059
 C 0.2761 0.2604 0.5076   0.72625
 C 0.867 0.4963 0.8755   -0.111273
 C 0.8418 0.5167 0.0265   -0.064788
 C 0.0274 0.4789 0.8505   -0.060589
 C 0.7239 0.4924 0.7396   0.726241
 O 0.729 0.6064 0.4122   -0.631008
 O 0.3906 0.4338 0.2314   -0.632613
 O 0.271 0.5878 0.3936   -0.631
 O 0.6094 0.7686 0.5662   -0.632614
 O 0.271 0.3936 0.5878   -0.631008
 O 0.6094 0.5662 0.7686   -0.632612
 O 0.729 0.4122 0.6064   -0.631
 O 0.3906 0.2314 0.4338   -0.632614
