{'_ref': 'TBD', '_srcid': 'CAKYAQ_clean', 'submitters': [{'name': 'Dalar Nazarian Jeff Camp and David Sholl', 'email': 'dalar@gatech.edu jcamp6@gatech.edu'}], '_method': 'VASP DFT with PBE;DDEC'}
data_Al3P2C6O13
_symmetry_space_group_name_H-M   'P 1'
_cell_length_a   7.89510000
_cell_length_b   10.32710000
_cell_length_c   10.54069955
_cell_angle_alpha   109.81899868
_cell_angle_beta   90.00000000
_cell_angle_gamma   90.00000000
_symmetry_Int_Tables_number   1
_chemical_formula_structural   Al3P2C6O13
_chemical_formula_sum   'Al6 P4 C12 O26'
_cell_volume   808.515166629
_cell_formula_units_Z   2
loop_
 _symmetry_equiv_pos_site_id
 _symmetry_equiv_pos_as_xyz
  1  'x, y, z'
loop_
 _atom_site_label
 _atom_site_fract_x
 _atom_site_fract_y
 _atom_site_fract_z
 _atom_site_charge
 Al 0.5702 0.2907 0.6806   1.762553
 Al 0.5702 0.2093 0.3194   1.762555
 Al 0.4298 0.7093 0.3194   1.762556
 Al 0.4298 0.7907 0.6806   1.762557
 Al 0.5 0.0 0.0   1.745759
 Al 0.5 0.5 0.0   1.745758
 P 0.6915 0.03481 0.7537   1.483136
 P 0.6915 0.46519 0.2463   1.483135
 P 0.3085 0.96519 0.2463   1.483136
 P 0.3085 0.53481 0.7537   1.483136
 C 0.8974 0.9622 0.7643   -0.171754
 C 0.0173 0.0723 0.841   -0.047721
 C 0.1913 0.0132 0.8419   0.738031
 C 0.8974 0.5378 0.2357   -0.171752
 C 0.0173 0.4277 0.159   -0.04772
 C 0.1913 0.4868 0.1581   0.738031
 C 0.1026 0.0378 0.2357   -0.171752
 C 0.9827 0.9277 0.159   -0.047719
 C 0.8087 0.9868 0.1581   0.738031
 C 0.1026 0.4622 0.7643   -0.17175
 C 0.9827 0.5723 0.841   -0.047718
 C 0.8087 0.5132 0.8419   0.738031
 O 0.6096 0.0872 0.8938   -0.744464
 O 0.7153 0.154 0.6974   -0.779282
 O 0.5831 0.9191 0.6533   -0.861717
 O 0.251 0.9312 0.7364   -0.55526
 O 0.2742 0.0492 0.9476   -0.582452
 O 0.5032 0.8333 0.8624   -0.726907
 O 0.6096 0.4128 0.1062   -0.744464
 O 0.7153 0.346 0.3026   -0.779282
 O 0.5831 0.5809 0.3467   -0.861717
 O 0.251 0.5688 0.2636   -0.55526
 O 0.2742 0.4508 0.0524   -0.582453
 O 0.5032 0.6667 0.1376   -0.726907
 O 0.3904 0.9128 0.1062   -0.744467
 O 0.2847 0.846 0.3026   -0.779282
 O 0.4169 0.0809 0.3467   -0.861717
 O 0.749 0.0688 0.2636   -0.55526
 O 0.7258 0.9508 0.0524   -0.582454
 O 0.4968 0.1667 0.1376   -0.726911
 O 0.3904 0.5872 0.8938   -0.744467
 O 0.2847 0.654 0.6974   -0.779282
 O 0.4169 0.4191 0.6533   -0.861717
 O 0.749 0.4312 0.7364   -0.55526
 O 0.7258 0.5492 0.9476   -0.582455
 O 0.4968 0.3333 0.8624   -0.726911
 O 0.6474 0.25 0.5   -0.774085
 O 0.3526 0.75 0.5   -0.774086
