{'_ref': 'TBD', '_srcid': 'CAKYAQ_clean', 'submitters': [{'name': 'Dalar Nazarian Jeff Camp and David Sholl', 'email': 'dalar@gatech.edu jcamp6@gatech.edu'}], '_method': 'VASP DFT with PBE;DDEC'}
data_CuH4C6N5
_symmetry_space_group_name_H-M   'P 1'
_cell_length_a   5.81450000
_cell_length_b   8.96630018
_cell_length_c   16.88000000
_cell_angle_alpha   90.00000000
_cell_angle_beta   90.00000000
_cell_angle_gamma   94.07799680
_symmetry_Int_Tables_number   1
_chemical_formula_structural   CuH4C6N5
_chemical_formula_sum   'Cu4 H16 C24 N20'
_cell_volume   877.803151787
_cell_formula_units_Z   4
loop_
 _symmetry_equiv_pos_site_id
 _symmetry_equiv_pos_as_xyz
  1  'x, y, z'
loop_
 _atom_site_label
 _atom_site_fract_x
 _atom_site_fract_y
 _atom_site_fract_z
 _atom_site_charge
 Cu 0.75209 0.47175 0.5649   0.215085
 Cu 0.24791 0.02825 0.0649   0.215085
 Cu 0.24791 0.52825 0.4351   0.215084
 Cu 0.75209 0.97175 0.9351   0.215084
 H 0.712 0.144 0.6483   0.130833
 H 0.8852 0.04 0.7567   0.079371
 H 0.2459 0.3064 0.7979   0.132573
 H 0.4345 0.2005 0.9013   0.068341
 H 0.288 0.356 0.1483   0.130832
 H 0.1148 0.46 0.2567   0.079371
 H 0.7541 0.1936 0.2979   0.132574
 H 0.5655 0.2995 0.4013   0.068341
 H 0.288 0.856 0.3517   0.130833
 H 0.1148 0.96 0.2433   0.079372
 H 0.7541 0.6936 0.2021   0.132575
 H 0.5655 0.7995 0.0987   0.068341
 H 0.712 0.644 0.8517   0.130832
 H 0.8852 0.54 0.7433   0.079372
 H 0.2459 0.8064 0.7021   0.132575
 H 0.4345 0.7005 0.5987   0.068341
 C 0.3346 0.3051 0.645   0.296867
 C 0.4584 0.2374 0.7101   0.046488
 C 0.6505 0.1567 0.6998   -0.179886
 C 0.753 0.0945 0.7649   0.142945
 C 0.3774 0.2522 0.7877   -0.182725
 C 0.4902 0.1876 0.849   0.142157
 C 0.6654 0.1949 0.145   0.296867
 C 0.5416 0.2626 0.2101   0.046488
 C 0.3495 0.3433 0.1998   -0.179886
 C 0.247 0.4055 0.2649   0.142945
 C 0.6226 0.2478 0.2877   -0.182725
 C 0.5098 0.3124 0.349   0.142157
 C 0.6654 0.6949 0.355   0.296867
 C 0.5416 0.7626 0.2899   0.046488
 C 0.3495 0.8433 0.3002   -0.179885
 C 0.247 0.9055 0.2351   0.142944
 C 0.6226 0.7478 0.2123   -0.182725
 C 0.5098 0.8124 0.151   0.142157
 C 0.3346 0.8051 0.855   0.296867
 C 0.4584 0.7374 0.7899   0.046488
 C 0.6505 0.6567 0.8002   -0.179885
 C 0.753 0.5945 0.7351   0.142944
 C 0.3774 0.7522 0.7123   -0.182725
 C 0.4902 0.6876 0.651   0.142157
 N 0.4275 0.3592 0.5776   -0.261462
 N 0.2475 0.4131 0.5383   -0.028164
 N 0.0591 0.3918 0.5826   0.009587
 N 0.1101 0.3247 0.6504   -0.331697
 N 0.6735 0.1079 0.8393   -0.280313
 N 0.5725 0.1408 0.0776   -0.261462
 N 0.7525 0.0869 0.0383   -0.028164
 N 0.9409 0.1082 0.0826   0.009587
 N 0.8899 0.1753 0.1504   -0.331697
 N 0.3265 0.3921 0.3393   -0.280313
 N 0.5725 0.6408 0.4224   -0.261462
 N 0.7525 0.5869 0.4617   -0.028164
 N 0.9409 0.6082 0.4174   0.009587
 N 0.8899 0.6753 0.3496   -0.331697
 N 0.3265 0.8921 0.1607   -0.280313
 N 0.4275 0.8592 0.9224   -0.261462
 N 0.2475 0.9131 0.9617   -0.028164
 N 0.0591 0.8918 0.9174   0.009587
 N 0.1101 0.8247 0.8496   -0.331697
 N 0.6735 0.6079 0.6607   -0.280313
