{'_ref': 'TBD', '_srcid': 'CAKYAQ_clean', 'submitters': [{'name': 'Dalar Nazarian Jeff Camp and David Sholl', 'email': 'dalar@gatech.edu jcamp6@gatech.edu'}], '_method': 'VASP DFT with PBE;DDEC'}
data_CoBH12(C3N2)4
_symmetry_space_group_name_H-M   'P 1'
_cell_length_a   8.37800000
_cell_length_b   14.95890002
_cell_length_c   17.57200000
_cell_angle_alpha   90.00000000
_cell_angle_beta   90.00000000
_cell_angle_gamma   98.34750102
_symmetry_Int_Tables_number   1
_chemical_formula_structural   CoBH12(C3N2)4
_chemical_formula_sum   'Co4 B4 H48 C48 N32'
_cell_volume   2178.89172289
_cell_formula_units_Z   4
loop_
 _symmetry_equiv_pos_site_id
 _symmetry_equiv_pos_as_xyz
  1  'x, y, z'
loop_
 _atom_site_label
 _atom_site_fract_x
 _atom_site_fract_y
 _atom_site_fract_z
 _atom_site_charge
 Co 0.63013 0.27524 0.07816   0.217855
 Co 0.86987 0.22476 0.57816   0.217855
 Co 0.36987 0.72476 0.92184   0.217855
 Co 0.13013 0.77524 0.42184   0.217855
 B 0.3411 0.1495 0.3641   0.457036
 B 0.1589 0.3505 0.8641   0.457036
 B 0.6589 0.8505 0.6359   0.457036
 B 0.8411 0.6495 0.1359   0.457036
 H 0.1411 0.229 0.2581   0.119847
 H 0.619 0.0538 0.3403   0.124409
 H 0.046 0.08 0.297   0.113733
 H 0.254 0.268 0.129   0.095155
 H 0.127 0.116 0.484   0.073613
 H 0.303 0.343 0.38   0.126167
 H 0.937 0.92 0.32   0.083131
 H 0.852 0.086 0.428   0.079568
 H 0.101 0.377 0.479   0.110921
 H 0.59 0.182 0.248   0.05721
 H 0.503 0.234 0.492   0.0856
 H 0.354 0.971 0.424   0.064105
 H 0.3589 0.271 0.7581   0.119847
 H 0.881 0.4462 0.8403   0.124409
 H 0.454 0.42 0.797   0.113733
 H 0.246 0.232 0.629   0.095157
 H 0.373 0.384 0.984   0.073613
 H 0.197 0.157 0.88   0.126167
 H 0.563 0.58 0.82   0.083131
 H 0.648 0.414 0.928   0.079568
 H 0.399 0.123 0.979   0.110921
 H 0.91 0.318 0.748   0.05721
 H 0.997 0.266 0.992   0.085601
 H 0.146 0.529 0.924   0.064105
 H 0.8589 0.771 0.7419   0.119848
 H 0.381 0.9462 0.6597   0.12441
 H 0.954 0.92 0.703   0.113732
 H 0.746 0.732 0.871   0.095157
 H 0.873 0.884 0.516   0.073612
 H 0.697 0.657 0.62   0.126166
 H 0.063 0.08 0.68   0.083132
 H 0.148 0.914 0.572   0.079567
 H 0.899 0.623 0.521   0.110917
 H 0.41 0.818 0.752   0.05721
 H 0.497 0.766 0.508   0.0856
 H 0.646 0.029 0.576   0.064105
 H 0.6411 0.729 0.2419   0.119847
 H 0.119 0.5538 0.1597   0.12441
 H 0.546 0.58 0.203   0.113732
 H 0.754 0.768 0.371   0.095158
 H 0.627 0.616 0.016   0.073613
 H 0.803 0.843 0.12   0.126166
 H 0.437 0.42 0.18   0.083132
 H 0.352 0.586 0.072   0.079567
 H 0.601 0.877 0.021   0.110917
 H 0.09 0.682 0.252   0.05721
 H 0.003 0.734 0.008   0.085601
 H 0.854 0.471 0.076   0.064105
 C 0.2396 0.2995 0.4127   -0.119519
 C 0.2451 0.2241 0.2418   -0.106611
 C 0.3068 0.2464 0.1719   -0.001141
 C 0.4943 0.1984 0.237   0.1803
 C 0.1384 0.1759 0.4698   0.152908
 C 0.5665 0.1917 0.4656   0.128428
 C 0.0946 0.034 0.3211   -0.123603
 C 0.0337 0.947 0.3376   0.02116
 C 0.7471 0.1112 0.4312   -0.004417
 C 0.6238 0.0931 0.3816   -0.100544
 C 0.1328 0.3181 0.4671   -0.047821
 C 0.2617 0.9766 0.3942   0.148438
 C 0.2604 0.2005 0.9127   -0.119519
 C 0.2549 0.2759 0.7418   -0.10661
 C 0.1932 0.2536 0.6719   -0.001143
 C 0.0057 0.3016 0.737   0.1803
 C 0.3616 0.3241 0.9698   0.152908
 C 0.9335 0.3083 0.9656   0.128428
 C 0.4054 0.466 0.8211   -0.123603
 C 0.4663 0.553 0.8376   0.02116
 C 0.7529 0.3888 0.9312   -0.004417
 C 0.8762 0.4069 0.8816   -0.100544
 C 0.3672 0.1819 0.9671   -0.047823
 C 0.2383 0.5234 0.8942   0.148438
 C 0.7604 0.7005 0.5873   -0.11952
 C 0.7549 0.7759 0.7582   -0.106611
 C 0.6932 0.7536 0.8281   -0.001141
 C 0.5057 0.8016 0.763   0.1803
 C 0.8616 0.8241 0.5302   0.152908
 C 0.4335 0.8083 0.5344   0.128428
 C 0.9054 0.966 0.6789   -0.123603
 C 0.9663 0.053 0.6624   0.02116
 C 0.2529 0.8888 0.5688   -0.004417
 C 0.3762 0.9069 0.6184   -0.100545
 C 0.8672 0.6819 0.5329   -0.04782
 C 0.7383 0.0234 0.6058   0.148438
 C 0.7396 0.7995 0.0873   -0.11952
 C 0.7451 0.7241 0.2582   -0.10661
 C 0.8068 0.7464 0.3281   -0.001143
 C 0.9943 0.6984 0.263   0.1803
 C 0.6384 0.6759 0.0302   0.152908
 C 0.0665 0.6917 0.0344   0.128428
 C 0.5946 0.534 0.1789   -0.123603
 C 0.5337 0.447 0.1624   0.02116
 C 0.2471 0.6112 0.0688   -0.004417
 C 0.1238 0.5931 0.1184   -0.100545
 C 0.6328 0.8181 0.0329   -0.047822
 C 0.7617 0.4766 0.1058   0.148438
 N 0.2421 0.2075 0.414   -0.192076
 N 0.5053 0.1441 0.4033   -0.186122
 N 0.2422 0.0537 0.3578   -0.198888
 N 0.4657 0.2298 0.1687   -0.320528
 N 0.3647 0.1927 0.2847   -0.197932
 N 0.7133 0.1743 0.4841   -0.29491
 N 0.0688 0.2389 0.5029   -0.252006
 N 0.1393 0.9101 0.3832   -0.293465
 N 0.2579 0.2925 0.914   -0.192076
 N 0.9947 0.3559 0.9033   -0.186122
 N 0.2578 0.4463 0.8578   -0.198888
 N 0.0343 0.2702 0.6687   -0.320528
 N 0.1353 0.3073 0.7847   -0.197932
 N 0.7867 0.3257 0.9841   -0.29491
 N 0.4312 0.2611 0.0029   -0.252006
 N 0.3607 0.5899 0.8832   -0.293465
 N 0.7579 0.7925 0.586   -0.192076
 N 0.4947 0.8559 0.5967   -0.186122
 N 0.7578 0.9463 0.6422   -0.198888
 N 0.5343 0.7702 0.8313   -0.320528
 N 0.6353 0.8073 0.7153   -0.197932
 N 0.2867 0.8257 0.5159   -0.29491
 N 0.9312 0.7611 0.4971   -0.252006
 N 0.8607 0.0899 0.6168   -0.293465
 N 0.7421 0.7075 0.086   -0.192076
 N 0.0053 0.6441 0.0967   -0.186122
 N 0.7422 0.5537 0.1422   -0.198888
 N 0.9657 0.7298 0.3313   -0.320527
 N 0.8647 0.6927 0.2153   -0.197932
 N 0.2133 0.6743 0.0159   -0.29491
 N 0.5688 0.7389 0.9971   -0.252006
 N 0.6393 0.4101 0.1168   -0.293465
