{'_ref': 'TBD', '_srcid': 'CAKYAQ_clean', 'submitters': [{'name': 'Dalar Nazarian Jeff Camp and David Sholl', 'email': 'dalar@gatech.edu jcamp6@gatech.edu'}], '_method': 'VASP DFT with PBE;DDEC'}
data_MnH16C24N2O5
_symmetry_space_group_name_H-M   'P 1'
_cell_length_a   9.31699996
_cell_length_b   11.74200000
_cell_length_c   13.25100000
_cell_angle_alpha   90.00000000
_cell_angle_beta   90.19499790
_cell_angle_gamma   90.00000000
_symmetry_Int_Tables_number   1
_chemical_formula_structural   MnH16C24N2O5
_chemical_formula_sum   'Mn2 H32 C48 N4 O10'
_cell_volume   1449.65383368
_cell_formula_units_Z   2
loop_
 _symmetry_equiv_pos_site_id
 _symmetry_equiv_pos_as_xyz
  1  'x, y, z'
loop_
 _atom_site_label
 _atom_site_fract_x
 _atom_site_fract_y
 _atom_site_fract_z
 _atom_site_charge
 Mn 0.25 0.05513 0.0   1.054188
 Mn 0.75 0.94487 0.0   1.054189
 H 0.5698 0.7934 0.7387   0.093064
 H 0.4739 0.7072 0.5957   0.138905
 H 0.1615 0.9417 0.5895   0.132906
 H 0.2583 0.0276 0.7317   0.090818
 H 0.3529 0.8359 0.1275   0.073623
 H 0.3579 0.6422 0.1312   0.134752
 H 0.4265 0.466 0.0862   0.122953
 H 0.4238 0.2724 0.0806   0.068897
 H 0.9302 0.7934 0.2613   0.093064
 H 0.0261 0.7072 0.4043   0.138906
 H 0.3385 0.9417 0.4105   0.132906
 H 0.2417 0.0276 0.2683   0.090818
 H 0.1471 0.8359 0.8725   0.073623
 H 0.1421 0.6422 0.8688   0.134752
 H 0.0735 0.466 0.9138   0.122953
 H 0.0762 0.2724 0.9194   0.068897
 H 0.4302 0.2066 0.2613   0.093063
 H 0.5261 0.2928 0.4043   0.138911
 H 0.8385 0.0583 0.4105   0.132905
 H 0.7417 0.9724 0.2683   0.090816
 H 0.6471 0.1641 0.8725   0.073623
 H 0.6421 0.3578 0.8688   0.134752
 H 0.5735 0.534 0.9138   0.122953
 H 0.5762 0.7276 0.9194   0.068897
 H 0.0698 0.2066 0.7387   0.093062
 H 0.9739 0.2928 0.5957   0.138912
 H 0.6615 0.0583 0.5895   0.132905
 H 0.7583 0.9724 0.7317   0.090816
 H 0.8529 0.1641 0.1275   0.073623
 H 0.8579 0.3578 0.1312   0.134752
 H 0.9265 0.534 0.0862   0.122953
 H 0.9238 0.7276 0.0806   0.068897
 C 0.4808 0.9718 0.8456   0.68405
 C 0.4238 0.9185 0.7506   -0.210789
 C 0.4875 0.8233 0.709   0.007066
 C 0.4306 0.7713 0.6235   -0.254568
 C 0.3083 0.8172 0.5808   0.300184
 C 0.2435 0.9119 0.6197   -0.255228
 C 0.3016 0.963 0.7049   0.027152
 C 0.3104 0.7962 0.0745   0.199238
 C 0.3135 0.6794 0.0775   -0.216902
 C 0.3544 0.4287 0.0504   -0.221075
 C 0.3512 0.312 0.0475   0.179994
 C 0.0192 0.9718 0.1544   0.68405
 C 0.0762 0.9185 0.2494   -0.210789
 C 0.0125 0.8233 0.291   0.007066
 C 0.0694 0.7713 0.3765   -0.254568
 C 0.1917 0.8172 0.4192   0.300184
 C 0.2565 0.9119 0.3803   -0.255229
 C 0.1984 0.963 0.2951   0.027152
 C 0.1896 0.7962 0.9255   0.199238
 C 0.1865 0.6794 0.9225   -0.216902
 C 0.1456 0.4287 0.9496   -0.221075
 C 0.1488 0.312 0.9525   0.179995
 C 0.5192 0.0282 0.1544   0.684049
 C 0.5762 0.0815 0.2494   -0.210789
 C 0.5125 0.1767 0.291   0.007067
 C 0.5694 0.2287 0.3765   -0.254571
 C 0.6917 0.1828 0.4192   0.300185
 C 0.7565 0.0881 0.3803   -0.255229
 C 0.6984 0.037 0.2951   0.027151
 C 0.6896 0.2038 0.9255   0.199238
 C 0.6865 0.3206 0.9225   -0.216901
 C 0.6456 0.5713 0.9496   -0.221075
 C 0.6488 0.688 0.9525   0.179996
 C 0.9808 0.0282 0.8456   0.684049
 C 0.9238 0.0815 0.7506   -0.21079
 C 0.9875 0.1767 0.709   0.007067
 C 0.9306 0.2287 0.6235   -0.254572
 C 0.8083 0.1828 0.5808   0.300185
 C 0.7435 0.0881 0.6197   -0.25523
 C 0.8016 0.037 0.7049   0.027152
 C 0.8104 0.2038 0.0745   0.199238
 C 0.8135 0.3206 0.0775   -0.216901
 C 0.8544 0.5713 0.0504   -0.221075
 C 0.8512 0.688 0.0475   0.179997
 C 0.25 0.6167 0.0   0.08729
 C 0.25 0.4914 0.0   0.094772
 C 0.75 0.3833 0.0   0.08729
 C 0.75 0.5086 0.0   0.094772
 N 0.25 0.8564 0.0   -0.357026
 N 0.25 0.252 0.0   -0.313993
 N 0.75 0.1436 0.0   -0.357026
 N 0.75 0.748 0.0   -0.313993
 O 0.4126 0.05218 0.88403   -0.622777
 O 0.5966 0.93081 0.87942   -0.608197
 O 0.0874 0.05218 0.11597   -0.622777
 O 0.9034 0.93081 0.12058   -0.608197
 O 0.5874 0.94782 0.11597   -0.622777
 O 0.4034 0.06919 0.12058   -0.608197
 O 0.9126 0.94782 0.88403   -0.622777
 O 0.0966 0.06919 0.87942   -0.608197
 O 0.25 0.7567 0.5   -0.293365
 O 0.75 0.2433 0.5   -0.293366
