{'_ref': 'TBD', '_srcid': 'CAKYAQ_clean', 'submitters': [{'name': 'Dalar Nazarian Jeff Camp and David Sholl', 'email': 'dalar@gatech.edu jcamp6@gatech.edu'}], '_method': 'VASP DFT with PBE;DDEC'}
data_V2NiH10C12N2O5
_symmetry_space_group_name_H-M   'P 1'
_cell_length_a   7.70859980
_cell_length_b   11.40070034
_cell_length_c   13.49900000
_cell_angle_alpha   96.39499904
_cell_angle_beta   105.61899797
_cell_angle_gamma   99.33900256
_symmetry_Int_Tables_number   1
_chemical_formula_structural   V2NiH10C12N2O5
_chemical_formula_sum   'V4 Ni2 H20 C24 N4 O10'
_cell_volume   1112.27579311
_cell_formula_units_Z   2
loop_
 _symmetry_equiv_pos_site_id
 _symmetry_equiv_pos_as_xyz
  1  'x, y, z'
loop_
 _atom_site_label
 _atom_site_fract_x
 _atom_site_fract_y
 _atom_site_fract_z
 _atom_site_charge
 V 0.85707 0.67711 0.97466   2.138555
 V 0.79402 0.4204 0.85922   1.331812
 V 0.14293 0.32289 0.02534   2.138553
 V 0.20598 0.5796 0.14078   1.331811
 Ni 0.5 0.5 0.0   1.009071
 Ni 0.0 0.0 0.0   0.573204
 H 0.0914 0.8672 0.8229   0.089168
 H 0.0956 0.8778 0.6547   0.122578
 H 0.8702 0.1714 0.6676   0.107881
 H 0.8633 0.1477 0.8338   0.060618
 H 0.9573 0.1117 0.5111   0.103867
 H 0.6515 0.6545 0.2178   0.06741
 H 0.8205 0.6453 0.3841   0.124134
 H 0.9159 0.3274 0.2747   0.126656
 H 0.7355 0.342 0.1125   0.09859
 H 0.0614 0.4061 0.4574   0.108924
 H 0.9086 0.1328 0.1771   0.089166
 H 0.9044 0.1222 0.3453   0.122577
 H 0.1298 0.8286 0.3324   0.107881
 H 0.1367 0.8523 0.1662   0.060618
 H 0.0427 0.8883 0.4889   0.10386
 H 0.3485 0.3455 0.7822   0.06741
 H 0.1795 0.3547 0.6159   0.124132
 H 0.0841 0.6726 0.7253   0.126654
 H 0.2645 0.658 0.8875   0.098589
 H 0.9386 0.5939 0.5426   0.108918
 C 0.0457 0.92856 0.79082   0.158768
 C 0.0494 0.93448 0.68963   -0.224689
 C 0.9828 0.02681 0.64043   0.12505
 C 0.9144 0.10815 0.69705   -0.214797
 C 0.9128 0.09417 0.79773   0.164423
 C 0.983 0.04053 0.53358   -0.131281
 C 0.7023 0.58693 0.22992   0.151861
 C 0.8053 0.58242 0.33037   -0.230261
 C 0.8864 0.48297 0.35076   0.115923
 C 0.8607 0.39367 0.26571   -0.198144
 C 0.7528 0.40355 0.16766   0.201202
 C 0.9946 0.46727 0.45471   -0.132614
 C 0.9543 0.07144 0.20918   0.158768
 C 0.9506 0.06552 0.31037   -0.224687
 C 0.0172 0.97319 0.35957   0.125042
 C 0.0856 0.89185 0.30295   -0.214797
 C 0.0872 0.90583 0.20227   0.164423
 C 0.017 0.95947 0.46642   -0.131224
 C 0.2977 0.41307 0.77008   0.15186
 C 0.1947 0.41758 0.66963   -0.230259
 C 0.1136 0.51703 0.64924   0.115915
 C 0.1393 0.60633 0.73429   -0.198143
 C 0.2472 0.59645 0.83234   0.201202
 C 0.0054 0.53273 0.54529   -0.132567
 N 0.9794 0.00687 0.84495   -0.277501
 N 0.67236 0.49793 0.14906   -0.309845
 N 0.0206 0.99313 0.15505   -0.277501
 N 0.32764 0.50207 0.85094   -0.309845
 O 0.65299 0.40436 0.93245   -0.749295
 O 0.64692 0.66458 0.9891   -0.88709
 O 0.99959 0.6317 0.08418   -0.978851
 O 0.94085 0.81669 0.967   -0.908775
 O 0.84751 0.58034 0.85778   -0.945447
 O 0.34701 0.59564 0.06755   -0.749295
 O 0.35308 0.33542 0.0109   -0.887091
 O 0.000410000000002 0.3683 0.91582   -0.978851
 O 0.05915 0.18331 0.033   -0.908775
 O 0.15249 0.41966 0.14222   -0.945447
