{'_ref': 'TBD', '_srcid': 'CAKYAQ_clean', 'submitters': [{'name': 'Dalar Nazarian Jeff Camp and David Sholl', 'email': 'dalar@gatech.edu jcamp6@gatech.edu'}], '_method': 'VASP DFT with PBE;DDEC'}
data_MnH5C9N7
_symmetry_space_group_name_H-M   'P 1'
_cell_length_a   17.14533265
_cell_length_b   17.14540000
_cell_length_c   17.14539978
_cell_angle_alpha   108.65099999
_cell_angle_beta   109.88284146
_cell_angle_gamma   109.88284365
_symmetry_Int_Tables_number   1
_chemical_formula_structural   MnH5C9N7
_chemical_formula_sum   'Mn8 H40 C72 N56'
_cell_volume   3879.29706745
_cell_formula_units_Z   8
loop_
 _symmetry_equiv_pos_site_id
 _symmetry_equiv_pos_as_xyz
  1  'x, y, z'
loop_
 _atom_site_label
 _atom_site_fract_x
 _atom_site_fract_y
 _atom_site_fract_z
 _atom_site_charge
 Mn 0.8771 0.95782 0.87064   0.818044
 Mn 0.6229 0.49354 0.08072   0.816861
 Mn 0.91282 0.37064 0.99354   0.815764
 Mn 0.58718 0.58072 0.45782   0.817987
 Mn 0.1229 0.04218 0.12936   0.818044
 Mn 0.3771 0.50646 0.91928   0.816861
 Mn 0.08718 0.62936 0.00646   0.815765
 Mn 0.41282 0.41928 0.54218   0.817987
 H 0.5449 0.6237 0.7558   0.05997
 H 0.9341 0.9555 0.5942   0.137247
 H 0.0803 0.0941 0.6774   0.104325
 H 0.1597 0.1787 0.8422   0.129225
 H 0.085 0.1272 0.9188   0.078396
 H 0.9551 0.7109 0.0788   0.05979
 H 0.5659 0.1601 0.0214   0.137152
 H 0.4197 0.0971 0.0138   0.104228
 H 0.3403 0.1825 0.019   0.129128
 H 0.415 0.3338 0.0422   0.078318
 H 0.1321 0.2558 0.2109   0.059887
 H 0.6387 0.0942 0.6601   0.137096
 H 0.5833 0.1774 0.5971   0.104158
 H 0.6635 0.3422 0.6825   0.129095
 H 0.7916 0.4188 0.8338   0.078347
 H 0.3679 0.5788 0.1237   0.059934
 H 0.8613 0.5214 0.4555   0.13727
 H 0.9167 0.5138 0.5941   0.10433
 H 0.8365 0.519 0.6787   0.129243
 H 0.7084 0.5422 0.6272   0.078362
 H 0.4551 0.3763 0.2442   0.05997
 H 0.0659 0.0445 0.4058   0.137246
 H 0.9197 0.9059 0.3226   0.104324
 H 0.8403 0.8213 0.1578   0.129225
 H 0.915 0.8728 0.0812   0.078397
 H 0.0449 0.2891 0.9212   0.05979
 H 0.4341 0.8399 0.9786   0.137152
 H 0.5803 0.9029 0.9862   0.104228
 H 0.6597 0.8175 0.981   0.129128
 H 0.585 0.6662 0.9578   0.078318
 H 0.8679 0.7442 0.7891   0.059887
 H 0.3613 0.9058 0.3399   0.137097
 H 0.4167 0.8226 0.4029   0.104159
 H 0.3365 0.6578 0.3175   0.129095
 H 0.2084 0.5812 0.1662   0.078347
 H 0.6321 0.4212 0.8763   0.059934
 H 0.1387 0.4786 0.5445   0.137268
 H 0.0833 0.4862 0.4059   0.104329
 H 0.1635 0.481 0.3213   0.129243
 H 0.2916 0.4578 0.3728   0.078362
 C 0.5672 0.6354 0.716   0.291184
 C 0.64649 0.70223 0.66478   0.299265
 C 0.71572 0.76536 0.65112   0.274903
 C 0.83364 0.87314 0.6651   0.29073
 C 0.9252 0.9612 0.711   0.196596
 C 0.9656 0.9908 0.6604   -0.168527
 C 0.0526 0.0728 0.71   0.010663
 C 0.0996 0.1242 0.8078   -0.185289
 C 0.0545 0.092 0.8527   0.156095
 C 0.9328 0.6488 0.0682   0.290817
 C 0.85351 0.51829 0.05574   0.299106
 C 0.78428 0.4354 0.04964   0.274834
 C 0.66636 0.33146 0.0395   0.290561
 C 0.5748 0.2858 0.036   0.196576
 C 0.5344 0.1948 0.0252   -0.168584
 C 0.4474 0.1574 0.0202   0.010616
 C 0.4004 0.2082 0.0246   -0.185587
 C 0.4455 0.2982 0.0375   0.155993
 C 0.0806 0.216 0.1488   0.291044
 C 0.96255 0.16478 0.01829   0.299406
 C 0.88576 0.15112 0.9354   0.274687
 C 0.79196 0.1651 0.83146   0.290743
 C 0.7498 0.211 0.7858   0.196431
 C 0.6696 0.1604 0.6948   -0.16861
 C 0.6372 0.21 0.6574   0.010551
 C 0.6836 0.3078 0.7082   -0.185463
 C 0.7607 0.3527 0.7982   0.15596
 C 0.4194 0.5682 0.1354   0.291068
 C 0.53745 0.55574 0.20223   0.299104
 C 0.61424 0.54964 0.26536   0.274906
 C 0.70804 0.5395 0.37314   0.290601
 C 0.7502 0.536 0.4612   0.196664
 C 0.8304 0.5252 0.4908   -0.168574
 C 0.8628 0.5202 0.5728   0.010734
 C 0.8164 0.5246 0.6242   -0.185389
 C 0.7393 0.5375 0.592   0.156039
 C 0.4328 0.3646 0.284   0.291184
 C 0.35351 0.29777 0.33522   0.299265
 C 0.28428 0.23464 0.34888   0.274903
 C 0.16636 0.12686 0.3349   0.29073
 C 0.0748 0.0388 0.289   0.196596
 C 0.0344 0.0092 0.3396   -0.168527
 C 0.9474 0.9272 0.29   0.010664
 C 0.9004 0.8758 0.1922   -0.185289
 C 0.9455 0.908 0.1473   0.156095
 C 0.0672 0.3512 0.9318   0.290819
 C 0.14649 0.48171 0.94426   0.299106
 C 0.21572 0.5646 0.95036   0.274834
 C 0.33364 0.66854 0.9605   0.290561
 C 0.4252 0.7142 0.964   0.196576
 C 0.4656 0.8052 0.9748   -0.168584
 C 0.5526 0.8426 0.9798   0.010616
 C 0.5996 0.7918 0.9754   -0.185587
 C 0.5545 0.7018 0.9625   0.155993
 C 0.9194 0.784 0.8512   0.291045
 C 0.03745 0.83522 0.98171   0.299406
 C 0.11424 0.84888 0.0646   0.274687
 C 0.20804 0.8349 0.16854   0.290743
 C 0.2502 0.789 0.2142   0.196432
 C 0.3304 0.8396 0.3052   -0.16861
 C 0.3628 0.79 0.3426   0.010551
 C 0.3164 0.6922 0.2918   -0.185463
 C 0.2393 0.6473 0.2018   0.15596
 C 0.5806 0.4318 0.8646   0.291069
 C 0.46255 0.44426 0.79777   0.299104
 C 0.38576 0.45036 0.73464   0.274906
 C 0.29196 0.4605 0.62686   0.290601
 C 0.2498 0.464 0.5388   0.196663
 C 0.1696 0.4748 0.5092   -0.168574
 C 0.1372 0.4798 0.4272   0.010735
 C 0.1836 0.4754 0.3758   -0.185389
 C 0.2607 0.4625 0.408   0.156039
 N 0.64161 0.71932 0.74471   -0.529961
 N 0.58057 0.61455 0.59238   -0.312902
 N 0.52838 0.57075 0.62591   -0.28802
 N 0.79336 0.85186 0.71718   -0.440354
 N 0.78481 0.80643 0.5744   -0.320719
 N 0.70714 0.73609 0.56539   -0.258769
 N 0.96841 0.01222 0.80611   -0.34045
 N 0.85839 0.6031 0.07771   -0.530366
 N 0.91943 0.51181 0.03398   -0.312586
 N 0.97162 0.59753 0.04237   -0.287753
 N 0.70664 0.42382 0.0585   -0.440316
 N 0.71519 0.28959 0.02162   -0.321065
 N 0.79286 0.35825 0.02895   -0.25848
 N 0.53159 0.3377 0.04381   -0.34034
 N 0.02539 0.24471 0.1031   -0.52984
 N 0.97783 0.09238 0.01181   -0.312969
 N 0.05516 0.12591 0.09753   -0.288161
 N 0.86532 0.21718 0.92382   -0.439882
 N 0.76797 0.0744 0.78959   -0.32095
 N 0.8293 0.06539 0.85825   -0.258969
 N 0.79389 0.30611 0.8377   -0.340065
 N 0.47461 0.57771 0.21932   -0.530216
 N 0.52217 0.53398 0.11455   -0.312712
 N 0.44484 0.54237 0.07075   -0.28783
 N 0.63468 0.5585 0.35186   -0.440498
 N 0.73203 0.52162 0.30643   -0.320799
 N 0.6707 0.52895 0.23609   -0.258514
 N 0.70611 0.54381 0.51222   -0.340531
 N 0.35839 0.28068 0.25529   -0.529961
 N 0.41943 0.38545 0.40762   -0.312902
 N 0.47162 0.42925 0.37409   -0.288021
 N 0.20664 0.14814 0.28282   -0.440354
 N 0.21519 0.19357 0.4256   -0.320719
 N 0.29286 0.26391 0.43461   -0.258769
 N 0.03159 0.98778 0.19389   -0.34045
 N 0.14161 0.3969 0.92229   -0.530367
 N 0.08057 0.48819 0.96602   -0.312586
 N 0.02838 0.40247 0.95763   -0.287753
 N 0.29336 0.57618 0.9415   -0.440316
 N 0.28481 0.71041 0.97838   -0.321065
 N 0.20714 0.64175 0.97105   -0.25848
 N 0.46841 0.6623 0.95619   -0.34034
 N 0.97461 0.75529 0.8969   -0.52984
 N 0.02217 0.90762 0.98819   -0.312969
 N 0.94484 0.87409 0.90247   -0.288161
 N 0.13468 0.78282 0.07618   -0.439882
 N 0.23203 0.9256 0.21041   -0.32095
 N 0.1707 0.93461 0.14175   -0.258969
 N 0.20611 0.69389 0.1623   -0.340066
 N 0.52539 0.42229 0.78068   -0.530216
 N 0.47783 0.46602 0.88545   -0.312712
 N 0.55516 0.45763 0.92925   -0.28783
 N 0.36532 0.4415 0.64814   -0.440498
 N 0.26797 0.47838 0.69357   -0.320799
 N 0.3293 0.47105 0.76391   -0.258514
 N 0.29389 0.45619 0.48778   -0.34053
