{'_ref': 'TBD', '_srcid': 'CAKYAQ_clean', 'submitters': [{'name': 'Dalar Nazarian Jeff Camp and David Sholl', 'email': 'dalar@gatech.edu jcamp6@gatech.edu'}], '_method': 'VASP DFT with PBE;DDEC'}
data_DyCuH8C16N5O8
_symmetry_space_group_name_H-M   'P 1'
_cell_length_a   10.67609990
_cell_length_b   10.73559986
_cell_length_c   11.96370000
_cell_angle_alpha   69.99100002
_cell_angle_beta   77.56199880
_cell_angle_gamma   60.84120057
_symmetry_Int_Tables_number   1
_chemical_formula_structural   DyCuH8C16N5O8
_chemical_formula_sum   'Dy2 Cu2 H16 C32 N10 O16'
_cell_volume   1123.18187767
_cell_formula_units_Z   2
loop_
 _symmetry_equiv_pos_site_id
 _symmetry_equiv_pos_as_xyz
  1  'x, y, z'
loop_
 _atom_site_label
 _atom_site_fract_x
 _atom_site_fract_y
 _atom_site_fract_z
 _atom_site_charge
 Dy 0.54863 0.99837 0.16145   2.256768
 Dy 0.45137 0.00163 0.83855   2.256764
 Cu 0.0 0.0 0.0   0.679331
 Cu 0.0 0.0 0.5   0.672508
 H 0.0106 0.2722 0.5147   0.097292
 H 0.9113 0.5213 0.4301   0.122636
 H 0.6926 0.4797 0.227   0.123543
 H 0.7919 0.2328 0.3209   0.074597
 H 0.9995 0.7183 0.1848   0.094703
 H 0.1328 0.4652 0.2197   0.123291
 H 0.3948 0.5314 0.935   0.133041
 H 0.2557 0.7816 0.9056   0.068499
 H 0.9894 0.7278 0.4853   0.09729
 H 0.0887 0.4787 0.5699   0.122632
 H 0.3074 0.5203 0.773   0.123544
 H 0.2081 0.7672 0.6791   0.074597
 H 0.000500000000002 0.2817 0.8152   0.094702
 H 0.8672 0.5348 0.7803   0.123291
 H 0.6052 0.4686 0.065   0.133042
 H 0.7443 0.2184 0.0944   0.068499
 C 0.1778 0.9787 0.2832   0.016548
 C 0.1716 0.9881 0.1639   -0.084354
 C 0.2826 0.9653 0.3568   0.709805
 C 0.2656 0.0044 0.0562   0.725379
 C 0.9442 0.3142 0.4572   0.140964
 C 0.8856 0.464 0.4055   -0.145718
 C 0.7882 0.533 0.3167   0.009358
 C 0.756 0.441 0.286   -0.139864
 C 0.817 0.292 0.3433   0.149904
 C 0.7233 0.6957 0.2541   0.647423
 C 0.0777 0.6795 0.1334   0.142889
 C 0.158 0.5286 0.1549   -0.135414
 C 0.276 0.4712 0.0802   0.00072
 C 0.3141 0.5674 0.9853   -0.134577
 C 0.2299 0.7164 0.9681   0.1669
 C 0.3714 0.3035 0.1082   0.627153
 C 0.8222 0.0213 0.7168   0.016547
 C 0.8284 0.0119 0.8361   -0.084354
 C 0.7174 0.0347 0.6432   0.709803
 C 0.7344 0.9956 0.9438   0.72538
 C 0.0558 0.6858 0.5428   0.140963
 C 0.1144 0.536 0.5945   -0.145717
 C 0.2118 0.467 0.6833   0.009358
 C 0.244 0.559 0.714   -0.139864
 C 0.183 0.708 0.6567   0.149902
 C 0.2767 0.3043 0.7459   0.647423
 C 0.9223 0.3205 0.8666   0.14289
 C 0.842 0.4714 0.8451   -0.135413
 C 0.724 0.5288 0.9198   0.00072
 C 0.6859 0.4326 0.0147   -0.134578
 C 0.7701 0.2836 0.0319   0.1669
 C 0.6286 0.6965 0.8918   0.627153
 N 0.0594 0.9783 0.3372   -0.142157
 N 0.9791 0.9786 0.2598   -0.157858
 N 0.0471 0.9918 0.1553   -0.07414
 N 0.9093 0.2267 0.4281   -0.272329
 N 0.1123 0.7726 0.037   -0.292699
 N 0.9406 0.0217 0.6628   -0.142156
 N 0.0209 0.0214 0.7402   -0.157858
 N 0.9529 0.0082 0.8447   -0.07414
 N 0.0907 0.7733 0.5719   -0.272329
 N 0.8877 0.2274 0.963   -0.2927
 O 0.2356 0.9929 0.4558   -0.567592
 O 0.4141 0.9256 0.3149   -0.779749
 O 0.3826 0.0065 0.055   -0.77131
 O 0.2214 0.0145 0.9581   -0.728119
 O 0.7372 0.7821 0.2937   -0.689782
 O 0.6454 0.7418 0.171   -0.651566
 O 0.4875 0.2517 0.0446   -0.681274
 O 0.3335 0.2183 0.1921   -0.658826
 O 0.7644 0.0071 0.5442   -0.567592
 O 0.5859 0.0744 0.6851   -0.779749
 O 0.6174 0.9935 0.945   -0.77131
 O 0.7786 0.9855 0.0419   -0.72812
 O 0.2628 0.2179 0.7063   -0.689782
 O 0.3546 0.2582 0.829   -0.651565
 O 0.5125 0.7483 0.9554   -0.681273
 O 0.6665 0.7817 0.8079   -0.658826
