{'_ref': 'TBD', '_srcid': 'CAKYAQ_clean', 'submitters': [{'name': 'Dalar Nazarian Jeff Camp and David Sholl', 'email': 'dalar@gatech.edu jcamp6@gatech.edu'}], '_method': 'VASP DFT with PBE;DDEC'}
data_ZnH13C20NO5
_symmetry_space_group_name_H-M   'P 1'
_cell_length_a   16.24930046
_cell_length_b   16.24929973
_cell_length_c   22.99000000
_cell_angle_alpha   73.12159798
_cell_angle_beta   73.12159876
_cell_angle_gamma   66.29459996
_symmetry_Int_Tables_number   1
_chemical_formula_structural   ZnH13C20NO5
_chemical_formula_sum   'Zn4 H52 C80 N4 O20'
_cell_volume   5213.20880214
_cell_formula_units_Z   4
loop_
 _symmetry_equiv_pos_site_id
 _symmetry_equiv_pos_as_xyz
  1  'x, y, z'
loop_
 _atom_site_label
 _atom_site_fract_x
 _atom_site_fract_y
 _atom_site_fract_z
 _atom_site_charge
 Zn 0.99381 0.59657 0.48728   0.944486
 Zn 0.40343 0.00619 0.01272   0.944485
 Zn 0.00619 0.40343 0.51272   0.944486
 Zn 0.59657 0.99381 0.98728   0.944485
 H 0.2238 0.5408 0.5693   0.088532
 H 0.3389 0.5043 0.6208   0.141896
 H 0.3709 0.2355 0.6486   0.136062
 H 0.2476 0.2766 0.5985   0.099976
 H 0.586 0.2536 0.7008   0.131093
 H 0.6085 0.1585 0.7993   0.097396
 H 0.3389 0.2003 0.8484   0.09303
 H 0.3174 0.3012 0.7528   0.12581
 H 0.0801 0.7319 0.408   0.079646
 H 0.1003 0.8605 0.4077   0.138319
 H 0.9081 0.8847 0.5613   0.130024
 H 0.8884 0.7538 0.5544   0.096116
 H 0.0367 0.0111 0.4412   0.098892
 H 0.4592 0.7762 0.9307   0.088532
 H 0.4957 0.6611 0.8792   0.141895
 H 0.7645 0.6291 0.8514   0.136062
 H 0.7234 0.7524 0.9015   0.099977
 H 0.7464 0.414 0.7992   0.131093
 H 0.8415 0.3915 0.7007   0.097396
 H 0.7997 0.6611 0.6516   0.09303
 H 0.6988 0.6826 0.7472   0.125809
 H 0.2681 0.9199 0.092   0.079646
 H 0.1395 0.8997 0.0923   0.138319
 H 0.1153 0.0919 0.9387   0.130025
 H 0.2462 0.1116 0.9456   0.096116
 H 0.9889 0.9633 0.0588   0.098892
 H 0.7762 0.4592 0.4307   0.088532
 H 0.6611 0.4957 0.3792   0.141895
 H 0.6291 0.7645 0.3514   0.136062
 H 0.7524 0.7234 0.4015   0.099976
 H 0.414 0.7464 0.2992   0.131093
 H 0.3915 0.8415 0.2007   0.097396
 H 0.6611 0.7997 0.1516   0.09303
 H 0.6826 0.6988 0.2472   0.12581
 H 0.9199 0.2681 0.592   0.079646
 H 0.8997 0.1395 0.5923   0.138317
 H 0.0919 0.1153 0.4387   0.130024
 H 0.1116 0.2462 0.4456   0.096116
 H 0.9633 0.9889 0.5588   0.098868
 H 0.5408 0.2238 0.0693   0.088532
 H 0.5043 0.3389 0.1208   0.141895
 H 0.2355 0.3709 0.1486   0.136062
 H 0.2766 0.2476 0.0985   0.099976
 H 0.2536 0.586 0.2008   0.131093
 H 0.1585 0.6085 0.2993   0.097396
 H 0.2003 0.3389 0.3484   0.09303
 H 0.3012 0.3174 0.2528   0.125809
 H 0.7319 0.0801 0.908   0.079646
 H 0.8605 0.1003 0.9077   0.138317
 H 0.8847 0.9081 0.0613   0.130025
 H 0.7538 0.8884 0.0544   0.096116
 H 0.0111 0.0367 0.9412   0.098868
 C 0.1429 0.4403 0.5497   0.717449
 C 0.2226 0.4122 0.5783   -0.189488
 C 0.2535 0.4781 0.586   0.0122
 C 0.3225 0.4573 0.6156   -0.254429
 C 0.3682 0.3668 0.6376   0.305714
 C 0.3403 0.2981 0.6322   -0.280911
 C 0.2665 0.3227 0.6021   0.012494
 C 0.4503 0.2841 0.7184   0.306605
 C 0.5351 0.2435 0.7311   -0.252649
 C 0.5491 0.1859 0.7896   -0.003008
 C 0.4758 0.1706 0.8313   -0.171569
 C 0.3898 0.2116 0.8187   0.005235
 C 0.3773 0.2705 0.7615   -0.257078
 C 0.4895 0.1047 0.8931   0.69569
 C 0.0457 0.7619 0.4419   0.191297
 C 0.0563 0.8401 0.4396   -0.231178
 C 0.0033 0.8899 0.4836   0.148916
 C 0.9444 0.854 0.5281   -0.229148
 C 0.936 0.773 0.5261   0.173544
 C 0.0109 0.9821 0.4804   -0.088133
 C 0.5597 0.8571 0.9503   0.717449
 C 0.5878 0.7774 0.9217   -0.189488
 C 0.5219 0.7465 0.914   0.0122
 C 0.5427 0.6775 0.8844   -0.254429
 C 0.6332 0.6318 0.8624   0.305714
 C 0.7019 0.6597 0.8678   -0.280911
 C 0.6773 0.7335 0.8979   0.012493
 C 0.7159 0.5497 0.7816   0.306594
 C 0.7565 0.4649 0.7689   -0.252647
 C 0.8141 0.4509 0.7104   -0.003008
 C 0.8294 0.5242 0.6687   -0.171569
 C 0.7884 0.6102 0.6813   0.005235
 C 0.7295 0.6227 0.7385   -0.257069
 C 0.8953 0.5105 0.6069   0.695689
 C 0.2381 0.9543 0.0581   0.191297
 C 0.1599 0.9437 0.0604   -0.231178
 C 0.1101 0.9967 0.0164   0.148916
 C 0.146 0.0556 0.9719   -0.229149
 C 0.227 0.064 0.9739   0.173545
 C 0.0179 0.9891 0.0196   -0.088133
 C 0.8571 0.5597 0.4503   0.717449
 C 0.7774 0.5878 0.4217   -0.189488
 C 0.7465 0.5219 0.414   0.0122
 C 0.6775 0.5427 0.3844   -0.254429
 C 0.6318 0.6332 0.3624   0.305714
 C 0.6597 0.7019 0.3678   -0.280911
 C 0.7335 0.6773 0.3979   0.012494
 C 0.5497 0.7159 0.2816   0.306605
 C 0.4649 0.7565 0.2689   -0.25265
 C 0.4509 0.8141 0.2104   -0.003007
 C 0.5242 0.8294 0.1687   -0.171569
 C 0.6102 0.7884 0.1813   0.005235
 C 0.6227 0.7295 0.2385   -0.257078
 C 0.5105 0.8953 0.1069   0.69569
 C 0.9543 0.2381 0.5581   0.191298
 C 0.9437 0.1599 0.5604   -0.231175
 C 0.9967 0.1101 0.5164   0.148881
 C 0.0556 0.146 0.4719   -0.229141
 C 0.064 0.227 0.4739   0.173543
 C 0.9891 0.0179 0.5196   -0.087869
 C 0.4403 0.1429 0.0497   0.717449
 C 0.4122 0.2226 0.0783   -0.189488
 C 0.4781 0.2535 0.086   0.0122
 C 0.4573 0.3225 0.1156   -0.254428
 C 0.3668 0.3682 0.1376   0.305714
 C 0.2981 0.3403 0.1322   -0.280911
 C 0.3227 0.2665 0.1021   0.012494
 C 0.2841 0.4503 0.2184   0.306594
 C 0.2435 0.5351 0.2311   -0.252647
 C 0.1859 0.5491 0.2896   -0.003008
 C 0.1706 0.4758 0.3313   -0.171569
 C 0.2116 0.3898 0.3187   0.005235
 C 0.2705 0.3773 0.2615   -0.257069
 C 0.1047 0.4895 0.3931   0.695689
 C 0.7619 0.0457 0.9419   0.191298
 C 0.8401 0.0563 0.9396   -0.231175
 C 0.8899 0.0033 0.9836   0.148881
 C 0.854 0.9444 0.0281   -0.229141
 C 0.773 0.936 0.0261   0.173544
 C 0.9821 0.0109 0.9804   -0.087869
 N 0.9941 0.7217 0.4847   -0.279985
 N 0.2783 0.0059 0.0153   -0.279985
 N 0.0059 0.2783 0.5153   -0.279985
 N 0.7217 0.9941 0.9847   -0.279985
 O 0.1051 0.5233 0.5287   -0.626113
 O 0.1162 0.3778 0.5489   -0.623387
 O 0.4425 0.3453 0.662   -0.26878
 O 0.5682 0.0752 0.9062   -0.60876
 O 0.4214 0.0868 0.9276   -0.605915
 O 0.4767 0.8949 0.9713   -0.626113
 O 0.6222 0.8838 0.9511   -0.623387
 O 0.6547 0.5575 0.838   -0.268778
 O 0.9248 0.4318 0.5938   -0.60876
 O 0.9132 0.5786 0.5724   -0.605915
 O 0.8949 0.4767 0.4713   -0.626113
 O 0.8838 0.6222 0.4511   -0.623387
 O 0.5575 0.6547 0.338   -0.26878
 O 0.4318 0.9248 0.0938   -0.60876
 O 0.5786 0.9132 0.0724   -0.605915
 O 0.5233 0.1051 0.0287   -0.626113
 O 0.3778 0.1162 0.0489   -0.623387
 O 0.3453 0.4425 0.162   -0.268778
 O 0.0752 0.5682 0.4062   -0.60876
 O 0.0868 0.4214 0.4276   -0.605915
