{'_ref': 'TBD', '_srcid': 'CAKYAQ_clean', 'submitters': [{'name': 'Dalar Nazarian Jeff Camp and David Sholl', 'email': 'dalar@gatech.edu jcamp6@gatech.edu'}], '_method': 'VASP DFT with PBE;DDEC'}
data_Co3H8C14(NO5)2
_symmetry_space_group_name_H-M   'P 1'
_cell_length_a   11.15749941
_cell_length_b   11.26060027
_cell_length_c   11.42400000
_cell_angle_alpha   76.76200154
_cell_angle_beta   65.81400094
_cell_angle_gamma   80.68000165
_symmetry_Int_Tables_number   1
_chemical_formula_structural   Co3H8C14(NO5)2
_chemical_formula_sum   'Co6 H16 C28 N4 O20'
_cell_volume   1270.77256034
_cell_formula_units_Z   2
loop_
 _symmetry_equiv_pos_site_id
 _symmetry_equiv_pos_as_xyz
  1  'x, y, z'
loop_
 _atom_site_label
 _atom_site_fract_x
 _atom_site_fract_y
 _atom_site_fract_z
 _atom_site_charge
 Co 0.89718 0.60708 0.50068   1.001891
 Co 0.97084 0.4282 0.28977   1.209846
 Co 0.00718 0.64072 0.99133   1.130755
 Co 0.10282 0.39292 0.49932   1.001891
 Co 0.02916 0.5718 0.71023   1.209846
 Co 0.99282 0.35928 0.00867   1.130755
 H 0.1268 0.4761 0.0781   0.445724
 H 0.1466 0.6275 0.461   0.446021
 H 0.0319 0.9644 0.1393   0.144327
 H 0.8659 0.07 0.4914   0.130474
 H 0.8271 0.8665 0.5895   0.095214
 H 0.4535 0.5858 0.861   0.141562
 H 0.4284 0.6442 0.5071   0.131322
 H 0.6549 0.6559 0.41   0.09142
 H 0.8732 0.5239 0.9219   0.445724
 H 0.8534 0.3725 0.539   0.446019
 H 0.9681 0.0356 0.8607   0.144329
 H 0.1341 0.93 0.5086   0.130473
 H 0.1729 0.1335 0.4105   0.095216
 H 0.5465 0.4142 0.139   0.141561
 H 0.5716 0.3558 0.4929   0.131323
 H 0.3451 0.3441 0.59   0.091422
 C 0.99654 0.72116 0.22542   0.6259
 C 0.96594 0.82718 0.29628   0.07923
 C 0.991 0.94619 0.23182   -0.083585
 C 0.95494 0.03848 0.30527   -0.040069
 C 0.8929 0.00831 0.43929   -0.146303
 C 0.8703 0.88647 0.49727   0.157481
 C 0.9833 0.16916 0.2415   0.683186
 C 0.7196 0.58613 0.77526   0.625915
 C 0.62752 0.60394 0.70415   0.090029
 C 0.4932 0.5986 0.76843   -0.097244
 C 0.41627 0.61231 0.69495   -0.019385
 C 0.4782 0.63376 0.55957   -0.160013
 C 0.6133 0.63973 0.50251   0.159489
 C 0.26981 0.60213 0.75965   0.674789
 C 0.00346 0.27884 0.77458   0.6259
 C 0.03406 0.17282 0.70372   0.079231
 C 0.009 0.05381 0.76818   -0.083585
 C 0.04506 0.96152 0.69473   -0.040069
 C 0.1071 0.99169 0.56071   -0.146305
 C 0.1297 0.11353 0.50273   0.15748
 C 0.0167 0.83084 0.7585   0.683188
 C 0.2804 0.41387 0.22474   0.625917
 C 0.37248 0.39606 0.29585   0.090029
 C 0.5068 0.4014 0.23157   -0.097243
 C 0.58373 0.38769 0.30505   -0.019385
 C 0.5218 0.36624 0.44043   -0.160014
 C 0.3867 0.36027 0.49749   0.159489
 C 0.73019 0.39787 0.24035   0.674789
 N 0.90711 0.79705 0.42786   -0.35303
 N 0.68774 0.62356 0.57259   -0.363796
 N 0.09289 0.20295 0.57214   -0.35303
 N 0.31226 0.37644 0.42741   -0.363796
 O 0.96096 0.61957 0.29854   -0.62169
 O 0.04994 0.74055 0.10392   -0.541747
 O 0.96144 0.24233 0.31703   -0.626243
 O 0.02686 0.19396 0.11854   -0.615703
 O 0.84106 0.59338 0.69907   -0.649966
 O 0.67642 0.56781 0.89511   -0.522961
 O 0.20896 0.64128 0.86395   -0.570921
 O 0.22264 0.55113 0.70147   -0.645815
 O 0.04948 0.4701 0.09374   -1.053826
 O 0.08278 0.5758 0.51164   -0.952282
 O 0.03904 0.38043 0.70146   -0.62169
 O 0.95006 0.25945 0.89608   -0.541746
 O 0.03856 0.75767 0.68297   -0.626243
 O 0.97314 0.80604 0.88146   -0.615702
 O 0.15894 0.40662 0.30093   -0.649967
 O 0.32358 0.43219 0.10489   -0.522961
 O 0.79104 0.35872 0.13605   -0.570921
 O 0.77736 0.44887 0.29853   -0.645815
 O 0.95052 0.5299 0.90626   -1.053826
 O 0.91722 0.4242 0.48836   -0.952281
