{'_ref': 'TBD', '_srcid': 'CAKYAQ_clean', 'submitters': [{'name': 'Dalar Nazarian Jeff Camp and David Sholl', 'email': 'dalar@gatech.edu jcamp6@gatech.edu'}], '_method': 'VASP DFT with PBE;DDEC'}
data_ZnH15C17(NO2)2
_symmetry_space_group_name_H-M   'P 1'
_cell_length_a   8.47300023
_cell_length_b   10.15399985
_cell_length_c   13.39700000
_cell_angle_alpha   68.21000256
_cell_angle_beta   78.63999802
_cell_angle_gamma   77.45999879
_symmetry_Int_Tables_number   1
_chemical_formula_structural   ZnH15C17(NO2)2
_chemical_formula_sum   'Zn2 H30 C34 N4 O8'
_cell_volume   1036.07738418
_cell_formula_units_Z   2
loop_
 _symmetry_equiv_pos_site_id
 _symmetry_equiv_pos_as_xyz
  1  'x, y, z'
loop_
 _atom_site_label
 _atom_site_fract_x
 _atom_site_fract_y
 _atom_site_fract_z
 _atom_site_charge
 Zn 0.94337 0.43515 0.15822   0.977783
 Zn 0.05663 0.56485 0.84178   0.977783
 H 0.2552 0.2523 0.0825   0.071784
 H 0.4615 0.2291 0.3237   0.145566
 H 0.193 0.3739 0.3306   0.111417
 H 0.6388 0.1864 0.1145   0.091167
 H 0.598 0.05 0.2109   0.105783
 H 0.4331 0.9187 0.2696   0.105088
 H 0.3445 0.8118 0.2498   0.125214
 H 0.5325 0.7755 0.2562   0.128307
 H 0.5863 0.3214 0.973   0.112755
 H 0.6923 0.2888 0.8724   0.120601
 H 0.5065 0.3515 0.869   0.133434
 H 0.9236 0.04 0.1633   0.106623
 H 0.0704 0.1859 0.8428   0.114795
 H 0.7523 0.5326 0.5189   0.103742
 H 0.4658 0.4577 0.3489   0.079796
 H 0.7448 0.7477 0.9175   0.071784
 H 0.5385 0.7709 0.6763   0.145567
 H 0.807 0.6261 0.6694   0.111419
 H 0.3612 0.8136 0.8855   0.091167
 H 0.402 0.95 0.7891   0.105783
 H 0.5669 0.0813 0.7304   0.105089
 H 0.6555 0.1882 0.7502   0.125215
 H 0.4675 0.2245 0.7438   0.128309
 H 0.4137 0.6786 0.027   0.112758
 H 0.3077 0.7112 0.1276   0.120603
 H 0.4935 0.6485 0.131   0.133435
 H 0.0764 0.96 0.8367   0.106622
 H 0.9296 0.8141 0.1572   0.114796
 H 0.2477 0.4674 0.4811   0.103746
 H 0.5342 0.5423 0.6511   0.079797
 C 0.2735 0.2662 0.1438   0.156336
 C 0.3872 0.2522 0.2748   -0.171729
 C 0.2385 0.3321 0.2782   0.058412
 C 0.5566 0.1262 0.1496   -0.036391
 C 0.523 0.0626 0.07105   -0.122433
 C 0.4759 0.9271 0.11222   0.042195
 C 0.5456 0.1373 0.9596   0.046425
 C 0.4435 0.8514 0.2329   -0.338922
 C 0.5865 0.2887 0.9143   -0.347525
 C 0.9865 0.28196 0.00754   0.681186
 C 0.9939 0.13484 0.00404   -0.127881
 C 0.9537 0.02368 0.09773   -0.059975
 C 0.0418 0.1114 0.90555   -0.04409
 C 0.7722 0.4884 0.33344   0.657597
 C 0.6315 0.4935 0.42035   -0.115207
 C 0.6509 0.5193 0.511   -0.070067
 C 0.4801 0.4747 0.40989   -0.065144
 C 0.7265 0.7338 0.8562   0.156336
 C 0.6128 0.7478 0.7252   -0.171729
 C 0.7615 0.6679 0.7218   0.058413
 C 0.4434 0.8738 0.8504   -0.036391
 C 0.477 0.9374 0.92895   -0.122433
 C 0.5241 0.0729 0.88778   0.042197
 C 0.4544 0.8627 0.0404   0.046427
 C 0.5565 0.1486 0.7671   -0.338923
 C 0.4135 0.7113 0.0857   -0.347527
 C 0.0135 0.71804 0.99246   0.681186
 C 0.0061 0.86516 0.99596   -0.127879
 C 0.0463 0.97632 0.90227   -0.05998
 C 0.9582 0.8886 0.09445   -0.044094
 C 0.2278 0.5116 0.66656   0.657597
 C 0.3685 0.5065 0.57965   -0.115208
 C 0.3491 0.4807 0.489   -0.070062
 C 0.5199 0.5253 0.59011   -0.065139
 N 0.1657 0.34247 0.19489   -0.410476
 N 0.4083 0.212 0.18763   0.075223
 N 0.8343 0.65753 0.80511   -0.410476
 N 0.5917 0.788 0.81237   0.075223
 O 0.89713 0.31229 0.08565   -0.601427
 O 0.07341 0.36352 0.93383   -0.608361
 O 0.75545 0.42894 0.26784   -0.628872
 O 0.896 0.53839 0.32694   -0.602742
 O 0.10287 0.68771 0.91435   -0.601427
 O 0.92659 0.63648 0.06617   -0.608361
 O 0.24455 0.57106 0.73216   -0.628872
 O 0.104 0.46161 0.67306   -0.602742
