{'_ref': 'TBD', '_srcid': 'CAKYAQ_clean', 'submitters': [{'name': 'Dalar Nazarian Jeff Camp and David Sholl', 'email': 'dalar@gatech.edu jcamp6@gatech.edu'}], '_method': 'VASP DFT with PBE;DDEC'}
data_Cu3H34C44(NO3)4
_symmetry_space_group_name_H-M   'P 1'
_cell_length_a   8.55770000
_cell_length_b   16.05420000
_cell_length_c   18.80199978
_cell_angle_alpha   99.46899923
_cell_angle_beta   90.00000000
_cell_angle_gamma   90.00000000
_symmetry_Int_Tables_number   1
_chemical_formula_structural   Cu3H34C44(NO3)4
_chemical_formula_sum   'Cu6 H68 C88 N8 O24'
_cell_volume   2547.95480461
_cell_formula_units_Z   2
loop_
 _symmetry_equiv_pos_site_id
 _symmetry_equiv_pos_as_xyz
  1  'x, y, z'
loop_
 _atom_site_label
 _atom_site_fract_x
 _atom_site_fract_y
 _atom_site_fract_z
 _atom_site_charge
 Cu 0.68478 0.73422 0.79175   0.765503
 Cu 0.68478 0.76578 0.20825   0.765503
 Cu 0.31522 0.26578 0.20825   0.765503
 Cu 0.31522 0.23422 0.79175   0.765503
 Cu 0.5548 0.75 0.5   0.849072
 Cu 0.4452 0.25 0.5   0.849072
 H 0.9981 0.7205 0.6539   0.114042
 H 0.1276 0.7251 0.5956   0.125006
 H 0.1695 0.6923 0.6674   0.138612
 H 0.4722 0.9829 0.6238   0.133868
 H 0.4754 0.038 0.7008   0.11843
 H 0.5549 0.9488 0.6877   0.133435
 H 0.9524 0.0543 0.8066   0.133702
 H 0.8691 0.9694 0.8148   0.114927
 H 0.0104 0.0019 0.8649   0.128532
 H 0.7942 0.8375 0.5986   0.077
 H 0.6723 0.8613 0.4068   0.08791
 H 0.9825 0.9382 0.5978   0.113707
 H 0.8563 0.9631 0.4019   0.117798
 H 0.4771 0.8788 0.8071   0.077136
 H 0.7406 0.797 0.9463   0.09007
 H 0.3975 0.9935 0.8894   0.130752
 H 0.6805 0.907 0.0321   0.142136
 H 0.9981 0.7795 0.3461   0.114042
 H 0.1276 0.7749 0.4044   0.125005
 H 0.1695 0.8077 0.3326   0.138612
 H 0.4722 0.5171 0.3762   0.133868
 H 0.4754 0.462 0.2992   0.11843
 H 0.5549 0.5512 0.3123   0.133435
 H 0.9524 0.4457 0.1934   0.133702
 H 0.8691 0.5306 0.1852   0.114927
 H 0.0104 0.4981 0.1351   0.128532
 H 0.7942 0.6625 0.4014   0.077
 H 0.6723 0.6387 0.5932   0.08791
 H 0.9825 0.5618 0.4022   0.113707
 H 0.8563 0.5369 0.5981   0.117797
 H 0.4771 0.6212 0.1929   0.077136
 H 0.7406 0.703 0.0537   0.090068
 H 0.3975 0.5065 0.1106   0.130752
 H 0.6805 0.593 0.9679   0.142136
 H 0.0019 0.2795 0.3461   0.114043
 H 0.8724 0.2749 0.4044   0.125006
 H 0.8305 0.3077 0.3326   0.138615
 H 0.5278 0.0171 0.3762   0.133868
 H 0.5246 0.962 0.2992   0.118431
 H 0.4451 0.0512 0.3123   0.133435
 H 0.0476 0.9457 0.1934   0.133703
 H 0.1309 0.0306 0.1852   0.114927
 H 0.9896 0.9981 0.1351   0.128531
 H 0.2058 0.1625 0.4014   0.077
 H 0.3277 0.1387 0.5932   0.08791
 H 0.0175 0.0618 0.4022   0.113706
 H 0.1437 0.0369 0.5981   0.117797
 H 0.5229 0.1212 0.1929   0.077136
 H 0.2594 0.203 0.0537   0.09007
 H 0.6025 0.0065 0.1106   0.130751
 H 0.3195 0.093 0.9679   0.142135
 H 0.0019 0.2205 0.6539   0.114042
 H 0.8724 0.2251 0.5956   0.125005
 H 0.8305 0.1923 0.6674   0.138615
 H 0.5278 0.4829 0.6238   0.133868
 H 0.5246 0.538 0.7008   0.118431
 H 0.4451 0.4488 0.6877   0.133435
 H 0.0476 0.5543 0.8066   0.133703
 H 0.1309 0.4694 0.8148   0.114927
 H 0.9896 0.5019 0.8649   0.128531
 H 0.2058 0.3375 0.5986   0.077
 H 0.3277 0.3613 0.4068   0.08791
 H 0.0175 0.4382 0.5978   0.113706
 H 0.1437 0.4631 0.4019   0.117796
 H 0.5229 0.3788 0.8071   0.077136
 H 0.2594 0.297 0.9463   0.090067
 H 0.6025 0.4935 0.8894   0.130751
 H 0.3195 0.407 0.0321   0.142135
 C 0.892 0.826 0.7512   0.643303
 C 0.1067 0.7315 0.6464   -0.372558
 C 0.3882 0.8113 0.6083   0.671309
 C 0.4687 0.9815 0.6747   -0.376549
 C 0.2474 0.0779 0.7752   0.674633
 C 0.9676 0.9984 0.8173   -0.364043
 C 0.0486 0.8673 0.7325   -0.222029
 C 0.1473 0.8244 0.6831   0.158336
 C 0.2816 0.8614 0.6637   -0.233072
 C 0.3166 0.9417 0.693   0.167563
 C 0.213 0.9872 0.7434   -0.261671
 C 0.08 0.9502 0.7626   0.168529
 C 0.8052 0.863 0.5579   0.171907
 C 0.7356 0.8775 0.4469   0.162865
 C 0.9187 0.9246 0.5575   -0.166268
 C 0.8468 0.9396 0.4438   -0.153093
 C 0.9413 0.9665 0.5002   0.102726
 C 0.515 0.8842 0.8539   0.176266
 C 0.6698 0.8368 0.9349   0.167646
 C 0.4659 0.9542 0.9034   -0.161609
 C 0.6328 0.9022 0.9872   -0.178943
 C 0.5213 0.9637 0.9739   0.089543
 C 0.892 0.674 0.2488   0.643303
 C 0.1067 0.7685 0.3536   -0.372558
 C 0.3882 0.6887 0.3917   0.671309
 C 0.4687 0.5185 0.3253   -0.376549
 C 0.2474 0.4221 0.2248   0.674633
 C 0.9676 0.5016 0.1827   -0.364043
 C 0.0486 0.6327 0.2675   -0.222029
 C 0.1473 0.6756 0.3169   0.158336
 C 0.2816 0.6386 0.3363   -0.233072
 C 0.3166 0.5583 0.307   0.167563
 C 0.213 0.5128 0.2566   -0.261671
 C 0.08 0.5498 0.2374   0.168529
 C 0.8052 0.637 0.4421   0.171906
 C 0.7356 0.6225 0.5531   0.162865
 C 0.9187 0.5754 0.4425   -0.166268
 C 0.8468 0.5604 0.5562   -0.153094
 C 0.9413 0.5335 0.4998   0.102726
 C 0.515 0.6158 0.1461   0.176266
 C 0.6698 0.6632 0.0651   0.167643
 C 0.4659 0.5458 0.0966   -0.161609
 C 0.6328 0.5978 0.0128   -0.178945
 C 0.5213 0.5363 0.0261   0.089543
 C 0.108 0.174 0.2488   0.643303
 C 0.8933 0.2685 0.3536   -0.372559
 C 0.6118 0.1887 0.3917   0.671309
 C 0.5313 0.0185 0.3253   -0.37655
 C 0.7526 0.9221 0.2248   0.674633
 C 0.0324 0.0016 0.1827   -0.364043
 C 0.9514 0.1327 0.2675   -0.222029
 C 0.8527 0.1756 0.3169   0.158336
 C 0.7184 0.1386 0.3363   -0.233072
 C 0.6834 0.0583 0.307   0.167563
 C 0.787 0.0128 0.2566   -0.261671
 C 0.92 0.0498 0.2374   0.168529
 C 0.1948 0.137 0.4421   0.171907
 C 0.2644 0.1225 0.5531   0.162865
 C 0.0813 0.0754 0.4425   -0.166268
 C 0.1532 0.0604 0.5562   -0.153093
 C 0.0587 0.0335 0.4998   0.10272
 C 0.485 0.1158 0.1461   0.176266
 C 0.3302 0.1632 0.0651   0.167645
 C 0.5341 0.0458 0.0966   -0.161609
 C 0.3672 0.0978 0.0128   -0.178942
 C 0.4787 0.0363 0.0261   0.08953
 C 0.108 0.326 0.7512   0.643303
 C 0.8933 0.2315 0.6464   -0.372559
 C 0.6118 0.3113 0.6083   0.671309
 C 0.5313 0.4815 0.6747   -0.37655
 C 0.7526 0.5779 0.7752   0.674633
 C 0.0324 0.4984 0.8173   -0.364043
 C 0.9514 0.3673 0.7325   -0.222029
 C 0.8527 0.3244 0.6831   0.158336
 C 0.7184 0.3614 0.6637   -0.233072
 C 0.6834 0.4417 0.693   0.167563
 C 0.787 0.4872 0.7434   -0.261671
 C 0.92 0.4502 0.7626   0.168529
 C 0.1948 0.363 0.5579   0.171906
 C 0.2644 0.3775 0.4469   0.162865
 C 0.0813 0.4246 0.5575   -0.166268
 C 0.1532 0.4396 0.4438   -0.153093
 C 0.0587 0.4665 0.5002   0.10272
 C 0.485 0.3842 0.8539   0.176266
 C 0.3302 0.3368 0.9349   0.167643
 C 0.5341 0.4542 0.9034   -0.161609
 C 0.3672 0.4022 0.9872   -0.178944
 C 0.4787 0.4637 0.9739   0.08953
 N 0.7147 0.8402 0.5037   -0.311409
 N 0.6122 0.8253 0.8687   -0.349533
 N 0.7147 0.6598 0.4963   -0.311409
 N 0.6122 0.6747 0.1313   -0.349533
 N 0.2853 0.1598 0.4963   -0.311409
 N 0.3878 0.1747 0.1313   -0.349533
 N 0.2853 0.3402 0.5037   -0.311409
 N 0.3878 0.3253 0.8687   -0.349533
 O 0.7717 0.8355 0.7202   -0.53682
 O 0.9057 0.7803 0.8026   -0.553904
 O 0.4719 0.7531 0.6255   -0.593503
 O 0.3957 0.8321 0.5456   -0.552809
 O 0.2428 0.1311 0.7316   -0.537614
 O 0.2817 0.1006 0.8397   -0.596286
 O 0.7717 0.6645 0.2798   -0.53682
 O 0.9057 0.7197 0.1974   -0.553904
 O 0.4719 0.7469 0.3745   -0.593503
 O 0.3957 0.6679 0.4544   -0.55281
 O 0.2428 0.3689 0.2684   -0.537614
 O 0.2817 0.3994 0.1603   -0.596286
 O 0.2283 0.1645 0.2798   -0.53682
 O 0.0943 0.2197 0.1974   -0.553904
 O 0.5281 0.2469 0.3745   -0.593503
 O 0.6043 0.1679 0.4544   -0.552809
 O 0.7572 0.8689 0.2684   -0.537614
 O 0.7183 0.8994 0.1603   -0.596286
 O 0.2283 0.3355 0.7202   -0.53682
 O 0.0943 0.2803 0.8026   -0.553904
 O 0.5281 0.2531 0.6255   -0.593503
 O 0.6043 0.3321 0.5456   -0.55281
 O 0.7572 0.6311 0.7316   -0.537614
 O 0.7183 0.6006 0.8397   -0.596286
