{'_ref': 'TBD', '_srcid': 'CAKYAQ_clean', 'submitters': [{'name': 'Dalar Nazarian Jeff Camp and David Sholl', 'email': 'dalar@gatech.edu jcamp6@gatech.edu'}], '_method': 'VASP DFT with PBE;DDEC'}
data_Cu5(CN)6
_symmetry_space_group_name_H-M   'P 1'
_cell_length_a   9.42719958
_cell_length_b   9.42719998
_cell_length_c   16.40300000
_cell_angle_alpha   88.51889790
_cell_angle_beta   88.51889784
_cell_angle_gamma   83.79549934
_symmetry_Int_Tables_number   1
_chemical_formula_structural   Cu5(CN)6
_chemical_formula_sum   'Cu10 C12 N12'
_cell_volume   1448.35604163
_cell_formula_units_Z   2
loop_
 _symmetry_equiv_pos_site_id
 _symmetry_equiv_pos_as_xyz
  1  'x, y, z'
loop_
 _atom_site_label
 _atom_site_fract_x
 _atom_site_fract_y
 _atom_site_fract_z
 _atom_site_charge
 Cu 0.86387 0.50759 0.49746   0.482174
 Cu 0.49241 0.13613 0.00254   0.482175
 Cu 0.13613 0.49241 0.50254   0.482174
 Cu 0.50759 0.86387 0.99746   0.482174
 Cu 0.0 0.0 0.5   0.479075
 Cu 0.0 0.0 0.0   0.479073
 Cu 0.60233 0.39767 0.75   0.295576
 Cu 0.39767 0.60233 0.25   0.295576
 Cu 0.63662 0.36338 0.25   0.28687
 Cu 0.36338 0.63662 0.75   0.28687
 C 0.6933 0.4633 0.6601   -0.049887
 C 0.9597 0.6835 0.4891   -0.051056
 C 0.7165 0.4279 0.3397   -0.047942
 C 0.5367 0.3067 0.8399   -0.049887
 C 0.3165 0.0403 0.0109   -0.051056
 C 0.5721 0.2835 0.1603   -0.047942
 C 0.3067 0.5367 0.3399   -0.049886
 C 0.0403 0.3165 0.5109   -0.051056
 C 0.2835 0.5721 0.6603   -0.047941
 C 0.4633 0.6933 0.1601   -0.049886
 C 0.6835 0.9597 0.9891   -0.051056
 C 0.4279 0.7165 0.8397   -0.047941
 N 0.7568 0.4842 0.6009   -0.283124
 N 0.9757 0.8009 0.4869   -0.297864
 N 0.7719 0.4585 0.3969   -0.283061
 N 0.5158 0.2432 0.8991   -0.283124
 N 0.1991 0.0243 0.0131   -0.297864
 N 0.5415 0.2281 0.1031   -0.283061
 N 0.2432 0.5158 0.3991   -0.283124
 N 0.0243 0.1991 0.5131   -0.297864
 N 0.2281 0.5415 0.6031   -0.283061
 N 0.4842 0.7568 0.1009   -0.283125
 N 0.8009 0.9757 0.9869   -0.297864
 N 0.4585 0.7719 0.8969   -0.283061
