{'_ref': 'TBD', '_srcid': 'CAKYAQ_clean', 'submitters': [{'name': 'Dalar Nazarian Jeff Camp and David Sholl', 'email': 'dalar@gatech.edu jcamp6@gatech.edu'}], '_method': 'VASP DFT with PBE;DDEC'}
data_CePH3C3O8
_symmetry_space_group_name_H-M   'P 1'
_cell_length_a   7.22600000
_cell_length_b   10.27450055
_cell_length_c   13.29180000
_cell_angle_alpha   90.00000000
_cell_angle_beta   90.00000000
_cell_angle_gamma   99.49300196
_symmetry_Int_Tables_number   1
_chemical_formula_structural   CePH3C3O8
_chemical_formula_sum   'Ce4 P4 H12 C12 O32'
_cell_volume   973.316399915
_cell_formula_units_Z   4
loop_
 _symmetry_equiv_pos_site_id
 _symmetry_equiv_pos_as_xyz
  1  'x, y, z'
loop_
 _atom_site_label
 _atom_site_fract_x
 _atom_site_fract_y
 _atom_site_fract_z
 _atom_site_charge
 Ce 0.16144 0.28177 0.90556   2.270358
 Ce 0.83856 0.21823 0.40556   2.270357
 Ce 0.83856 0.71823 0.09444   2.270352
 Ce 0.16144 0.78177 0.59444   2.270351
 P 0.78628 0.07245 0.05061   1.555564
 P 0.21372 0.42755 0.55061   1.555564
 P 0.21372 0.92755 0.94939   1.555565
 P 0.78628 0.57245 0.44939   1.555565
 H 0.5924 0.1905 0.0465   0.422336
 H 0.8705 0.0013 0.257   0.414801
 H 0.059 0.0861 0.1487   0.19201
 H 0.4076 0.3095 0.5465   0.422336
 H 0.1295 0.4987 0.757   0.414801
 H 0.941 0.4139 0.6487   0.19201
 H 0.4076 0.8095 0.9535   0.422336
 H 0.1295 0.9987 0.743   0.414801
 H 0.941 0.9139 0.8513   0.19201
 H 0.5924 0.6905 0.4535   0.422336
 H 0.8705 0.5013 0.243   0.414801
 H 0.059 0.5861 0.3513   0.19201
 C 0.9451 0.1255 0.1559   -0.388847
 C 0.9989 0.2745 0.1627   0.804899
 C 0.454 0.5549 0.9747   0.565907
 C 0.0549 0.3745 0.6559   -0.388847
 C 0.0011 0.2255 0.6627   0.804899
 C 0.546 0.9451 0.4747   0.565907
 C 0.0549 0.8745 0.8441   -0.388847
 C 0.0011 0.7255 0.8373   0.804898
 C 0.546 0.4451 0.0253   0.565909
 C 0.9451 0.6255 0.3441   -0.388847
 C 0.9989 0.7745 0.3373   0.804898
 C 0.454 0.0549 0.5253   0.565909
 O 0.6037 0.1269 0.0818   -0.681302
 O 0.8677 0.1319 0.95403   -0.929127
 O 0.7438 0.9247 0.0562   -0.918984
 O 0.8483 0.0755 0.24519   -0.600228
 O 0.0793 0.3337 0.08803   -0.726132
 O 0.9604 0.3307 0.243   -0.69895
 O 0.3087 0.5194 0.9248   -0.651275
 O 0.5324 0.6718 0.9911   -0.631028
 O 0.3963 0.3731 0.5818   -0.681302
 O 0.1323 0.3681 0.45403   -0.929127
 O 0.2562 0.5753 0.5562   -0.918984
 O 0.1517 0.4245 0.74519   -0.600228
 O 0.9207 0.1663 0.58803   -0.726132
 O 0.0396 0.1693 0.743   -0.69895
 O 0.6913 0.9806 0.4248   -0.651275
 O 0.4676 0.8282 0.4911   -0.631028
 O 0.3963 0.8731 0.9182   -0.681301
 O 0.1323 0.8681 0.04597   -0.929127
 O 0.2562 0.0753 0.9438   -0.918984
 O 0.1517 0.9245 0.75481   -0.600228
 O 0.9207 0.6663 0.91197   -0.726131
 O 0.0396 0.6693 0.757   -0.69895
 O 0.6913 0.4806 0.0752   -0.651275
 O 0.4676 0.3282 0.0089   -0.631028
 O 0.6037 0.6269 0.4182   -0.681301
 O 0.8677 0.6319 0.54597   -0.929127
 O 0.7438 0.4247 0.4438   -0.918984
 O 0.8483 0.5755 0.25481   -0.600228
 O 0.0793 0.8337 0.41197   -0.726131
 O 0.9604 0.8307 0.257   -0.69895
 O 0.3087 0.0194 0.5752   -0.651275
 O 0.5324 0.1718 0.5089   -0.631028
