{'_ref': 'TBD', '_srcid': 'CAKYAQ_clean', 'submitters': [{'name': 'Dalar Nazarian Jeff Camp and David Sholl', 'email': 'dalar@gatech.edu jcamp6@gatech.edu'}], '_method': 'VASP DFT with PBE;DDEC'}
data_PrPH3C3O8
_symmetry_space_group_name_H-M   'P 1'
_cell_length_a   7.23000000
_cell_length_b   10.25350024
_cell_length_c   13.22390000
_cell_angle_alpha   90.00000000
_cell_angle_beta   90.00000000
_cell_angle_gamma   99.86900145
_symmetry_Int_Tables_number   1
_chemical_formula_structural   PrPH3C3O8
_chemical_formula_sum   'Pr4 P4 H12 C12 O32'
_cell_volume   965.818172879
_cell_formula_units_Z   4
loop_
 _symmetry_equiv_pos_site_id
 _symmetry_equiv_pos_as_xyz
  1  'x, y, z'
loop_
 _atom_site_label
 _atom_site_fract_x
 _atom_site_fract_y
 _atom_site_fract_z
 _atom_site_charge
 Pr 0.16239 0.28166 0.90546   2.197304
 Pr 0.83761 0.21834 0.40546   2.197303
 Pr 0.83761 0.71834 0.09454   2.197301
 Pr 0.16239 0.78166 0.59454   2.197301
 P 0.78692 0.07166 0.04994   1.553755
 P 0.21308 0.42834 0.54994   1.553755
 P 0.21308 0.92834 0.95006   1.553754
 P 0.78692 0.57166 0.45006   1.553754
 H 0.5917 0.1889 0.0454   0.423517
 H 0.8685 0.0012 0.2584   0.413633
 H 0.0578 0.086 0.1488   0.194925
 H 0.4083 0.3111 0.5454   0.423517
 H 0.1315 0.4988 0.7584   0.413633
 H 0.9422 0.414 0.6488   0.194925
 H 0.4083 0.8111 0.9546   0.423517
 H 0.1315 0.9988 0.7416   0.413633
 H 0.9422 0.914 0.8512   0.194925
 H 0.5917 0.6889 0.4546   0.423517
 H 0.8685 0.5012 0.2416   0.413633
 H 0.0578 0.586 0.3512   0.194925
 C 0.9439 0.1251 0.1557   -0.385015
 C 0.9982 0.2743 0.1633   0.797453
 C 0.4522 0.5542 0.9757   0.565824
 C 0.0561 0.3749 0.6557   -0.385015
 C 0.0018 0.2257 0.6633   0.797453
 C 0.5478 0.9458 0.4757   0.565824
 C 0.0561 0.8749 0.8443   -0.385015
 C 0.0018 0.7257 0.8367   0.797453
 C 0.5478 0.4458 0.0243   0.565825
 C 0.9439 0.6251 0.3443   -0.385015
 C 0.9982 0.7743 0.3367   0.797453
 C 0.4522 0.0542 0.5243   0.565825
 O 0.6029 0.125 0.0808   -0.68097
 O 0.8687 0.1315 0.9531   -0.917067
 O 0.7448 0.9235 0.0554   -0.906023
 O 0.8468 0.0755 0.2462   -0.60028
 O 0.0806 0.3337 0.0876   -0.718179
 O 0.9604 0.331 0.2435   -0.680075
 O 0.3067 0.519 0.9264   -0.633506
 O 0.532 0.6717 0.9913   -0.625293
 O 0.3971 0.375 0.5808   -0.68097
 O 0.1313 0.3685 0.4531   -0.917067
 O 0.2552 0.5765 0.5554   -0.906023
 O 0.1532 0.4245 0.7462   -0.60028
 O 0.9194 0.1663 0.5876   -0.718179
 O 0.0396 0.169 0.7435   -0.680075
 O 0.6933 0.981 0.4264   -0.633506
 O 0.468 0.8283 0.4913   -0.625293
 O 0.3971 0.875 0.9192   -0.680969
 O 0.1313 0.8685 0.0469   -0.917067
 O 0.2552 0.0765 0.9446   -0.906023
 O 0.1532 0.9245 0.7538   -0.60028
 O 0.9194 0.6663 0.9124   -0.718179
 O 0.0396 0.669 0.7565   -0.680075
 O 0.6933 0.481 0.0736   -0.633506
 O 0.468 0.3283 0.0087   -0.625293
 O 0.6029 0.625 0.4192   -0.680969
 O 0.8687 0.6315 0.5469   -0.917067
 O 0.7448 0.4235 0.4446   -0.906023
 O 0.8468 0.5755 0.2538   -0.60028
 O 0.0806 0.8337 0.4124   -0.718179
 O 0.9604 0.831 0.2565   -0.680075
 O 0.3067 0.019 0.5736   -0.633506
 O 0.532 0.1717 0.5087   -0.625293
