{'_ref': 'TBD', '_srcid': 'CAKYAQ_clean', 'submitters': [{'name': 'Dalar Nazarian Jeff Camp and David Sholl', 'email': 'dalar@gatech.edu jcamp6@gatech.edu'}], '_method': 'VASP DFT with PBE;DDEC'}
data_MnH10C14(NO2)2
_symmetry_space_group_name_H-M   'P 1'
_cell_length_a   8.64800000
_cell_length_b   11.66120020
_cell_length_c   18.49300000
_cell_angle_alpha   102.03699869
_cell_angle_beta   90.00000000
_cell_angle_gamma   90.00000000
_symmetry_Int_Tables_number   1
_chemical_formula_structural   MnH10C14(NO2)2
_chemical_formula_sum   'Mn4 H40 C56 N8 O16'
_cell_volume   1823.94186092
_cell_formula_units_Z   4
loop_
 _symmetry_equiv_pos_site_id
 _symmetry_equiv_pos_as_xyz
  1  'x, y, z'
loop_
 _atom_site_label
 _atom_site_fract_x
 _atom_site_fract_y
 _atom_site_fract_z
 _atom_site_charge
 Mn 0.79378 0.94163 0.1658   1.015914
 Mn 0.29378 0.05837 0.3342   1.015914
 Mn 0.20622 0.05837 0.8342   1.015914
 Mn 0.70622 0.94163 0.6658   1.015914
 H 0.651 0.88 0.886   0.103705
 H 0.908 0.017 0.937   0.134809
 H 0.638 0.703 0.0962   0.075768
 H 0.638 0.509 0.0976   0.125235
 H 0.97 0.564 0.243   0.113592
 H 0.967 0.752 0.24   0.08027
 H 0.65 0.128 0.078   0.099546
 H 0.645 0.325 0.0836   0.130785
 H 0.95 0.372 0.2496   0.103547
 H 0.947 0.175 0.248   0.08474
 H 0.151 0.12 0.614   0.103705
 H 0.408 0.983 0.563   0.134809
 H 0.138 0.297 0.4038   0.075768
 H 0.138 0.491 0.4024   0.125234
 H 0.47 0.436 0.257   0.113592
 H 0.467 0.248 0.26   0.08027
 H 0.15 0.872 0.422   0.099546
 H 0.145 0.675 0.4164   0.130785
 H 0.45 0.628 0.2504   0.103547
 H 0.447 0.825 0.252   0.08474
 H 0.349 0.12 0.114   0.103705
 H 0.092 0.983 0.063   0.134809
 H 0.362 0.297 0.9038   0.075768
 H 0.362 0.491 0.9024   0.125233
 H 0.03 0.436 0.757   0.113592
 H 0.033 0.248 0.76   0.08027
 H 0.35 0.872 0.922   0.099546
 H 0.355 0.675 0.9164   0.130785
 H 0.05 0.628 0.7504   0.103547
 H 0.053 0.825 0.752   0.08474
 H 0.849 0.88 0.386   0.103705
 H 0.592 0.017 0.437   0.134809
 H 0.862 0.703 0.5962   0.075768
 H 0.862 0.509 0.5976   0.125233
 H 0.53 0.564 0.743   0.113593
 H 0.533 0.752 0.74   0.08027
 H 0.85 0.128 0.578   0.099546
 H 0.855 0.325 0.5836   0.130785
 H 0.55 0.372 0.7496   0.103547
 H 0.553 0.175 0.748   0.08474
 C 0.6959 0.8863 0.998   0.684096
 C 0.7242 0.9096 0.92312   -0.15981
 C 0.833 0.9766 0.9044   -0.218015
 C 0.8428 0.0035 0.82892   0.698593
 C 0.7076 0.6727 0.1269   0.177711
 C 0.7025 0.5547 0.1261   -0.185892
 C 0.8015 0.5065 0.16958   0.089207
 C 0.9005 0.584 0.2139   -0.192074
 C 0.8987 0.7012 0.2111   0.187709
 C 0.7135 0.1826 0.1193   0.16799
 C 0.7098 0.2999 0.1193   -0.177335
 C 0.8008 0.3786 0.16831   0.077929
 C 0.8907 0.3296 0.2157   -0.174768
 C 0.8869 0.2107 0.2133   0.161948
 C 0.1959 0.1137 0.502   0.684096
 C 0.2242 0.0904 0.57688   -0.15981
 C 0.333 0.0234 0.5956   -0.218015
 C 0.3428 0.9965 0.67108   0.698593
 C 0.2076 0.3273 0.3731   0.177711
 C 0.2025 0.4453 0.3739   -0.185892
 C 0.3015 0.4935 0.33042   0.089207
 C 0.4005 0.416 0.2861   -0.192074
 C 0.3987 0.2988 0.2889   0.187709
 C 0.2135 0.8174 0.3807   0.16799
 C 0.2098 0.7001 0.3807   -0.177335
 C 0.3008 0.6214 0.33169   0.077929
 C 0.3907 0.6704 0.2843   -0.174768
 C 0.3869 0.7893 0.2867   0.161948
 C 0.3041 0.1137 0.002   0.684095
 C 0.2758 0.0904 0.07688   -0.159809
 C 0.167 0.0234 0.0956   -0.218015
 C 0.1572 0.9965 0.17108   0.698593
 C 0.2924 0.3273 0.8731   0.177711
 C 0.2975 0.4453 0.8739   -0.185893
 C 0.1985 0.4935 0.83042   0.089206
 C 0.0995 0.416 0.7861   -0.192074
 C 0.1013 0.2988 0.7889   0.187709
 C 0.2865 0.8174 0.8807   0.16799
 C 0.2902 0.7001 0.8807   -0.177335
 C 0.1992 0.6214 0.83169   0.077929
 C 0.1093 0.6704 0.7843   -0.174767
 C 0.1131 0.7893 0.7867   0.161948
 C 0.8041 0.8863 0.498   0.684095
 C 0.7758 0.9096 0.42312   -0.159809
 C 0.667 0.9766 0.4044   -0.218015
 C 0.6572 0.0035 0.32892   0.698593
 C 0.7924 0.6727 0.6269   0.177711
 C 0.7975 0.5547 0.6261   -0.185893
 C 0.6985 0.5065 0.66958   0.089206
 C 0.5995 0.584 0.7139   -0.192074
 C 0.6013 0.7012 0.7111   0.187709
 C 0.7865 0.1826 0.6193   0.16799
 C 0.7902 0.2999 0.6193   -0.177335
 C 0.6992 0.3786 0.66831   0.077929
 C 0.6093 0.3296 0.7157   -0.174767
 C 0.6131 0.2107 0.7133   0.161948
 N 0.8034 0.7469 0.16812   -0.347706
 N 0.7989 0.1369 0.16616   -0.34143
 N 0.3034 0.2531 0.33188   -0.347705
 N 0.2989 0.8631 0.33384   -0.34143
 N 0.1966 0.2531 0.83188   -0.347705
 N 0.2011 0.8631 0.83384   -0.34143
 N 0.6966 0.7469 0.66812   -0.347705
 N 0.7011 0.1369 0.66616   -0.34143
 O 0.8025 0.90866 0.04601   -0.646218
 O 0.5656 0.8459 0.00891   -0.632718
 O 0.7296 0.97577 0.78589   -0.621508
 O 0.9626 0.05279 0.81215   -0.61562
 O 0.3025 0.09134 0.45399   -0.646218
 O 0.0656 0.1541 0.49109   -0.632718
 O 0.2296 0.02423 0.71411   -0.621508
 O 0.4626 0.94721 0.68785   -0.61562
 O 0.1975 0.09134 0.95399   -0.646218
 O 0.4344 0.1541 0.99109   -0.632718
 O 0.2704 0.02423 0.21411   -0.621508
 O 0.0374 0.94721 0.18785   -0.61562
 O 0.6975 0.90866 0.54601   -0.646218
 O 0.9344 0.8459 0.50891   -0.632718
 O 0.7704 0.97577 0.28589   -0.621508
 O 0.5374 0.05279 0.31215   -0.61562
