{'_ref': 'TBD', '_srcid': 'CAKYAQ_clean', 'submitters': [{'name': 'Dalar Nazarian Jeff Camp and David Sholl', 'email': 'dalar@gatech.edu jcamp6@gatech.edu'}], '_method': 'VASP DFT with PBE;DDEC'}
data_MgH4C4O5
_symmetry_space_group_name_H-M   'P 1'
_cell_length_a   7.94300000
_cell_length_b   7.94300000
_cell_length_c   12.81250000
_cell_angle_alpha   90.00000000
_cell_angle_beta   90.00000000
_cell_angle_gamma   90.00000000
_symmetry_Int_Tables_number   1
_chemical_formula_structural   MgH4C4O5
_chemical_formula_sum   'Mg4 H16 C16 O20'
_cell_volume   808.356627812
_cell_formula_units_Z   4
loop_
 _symmetry_equiv_pos_site_id
 _symmetry_equiv_pos_as_xyz
  1  'x, y, z'
loop_
 _atom_site_label
 _atom_site_fract_x
 _atom_site_fract_y
 _atom_site_fract_z
 _atom_site_charge
 Mg 0.46953 0.11794 0.787   1.558873
 Mg 0.53047 0.88206 0.287   1.558873
 Mg 0.88206 0.46953 0.037   1.558872
 Mg 0.11794 0.53047 0.537   1.558872
 H 0.4055 0.0737 0.9796   0.426269
 H 0.2979 0.8409 0.9952   0.07825
 H 0.6176 0.7409 0.9149   0.149414
 H 0.4833 0.6064 0.9473   0.166564
 H 0.5945 0.9263 0.4796   0.426269
 H 0.7021 0.1591 0.4952   0.07825
 H 0.3824 0.2591 0.4149   0.149414
 H 0.5167 0.3936 0.4473   0.166564
 H 0.9263 0.4055 0.2296   0.426269
 H 0.1591 0.2979 0.2452   0.078252
 H 0.2591 0.6176 0.1649   0.149416
 H 0.3936 0.4833 0.1973   0.166564
 H 0.0737 0.5945 0.7296   0.426269
 H 0.8409 0.7021 0.7452   0.078252
 H 0.7409 0.3824 0.6649   0.149416
 H 0.6064 0.5167 0.6973   0.166564
 C 0.3 0.8037 0.8351   0.625428
 C 0.3824 0.847 0.9396   0.16882
 C 0.5247 0.7188 0.9621   -0.447627
 C 0.5895 0.7234 0.0725   0.865791
 C 0.7 0.1963 0.3351   0.625428
 C 0.6176 0.153 0.4396   0.16882
 C 0.4753 0.2812 0.4621   -0.447627
 C 0.4105 0.2766 0.5725   0.865791
 C 0.1963 0.3 0.0851   0.625428
 C 0.153 0.3824 0.1896   0.16882
 C 0.2812 0.5247 0.2121   -0.447627
 C 0.2766 0.5895 0.3225   0.865791
 C 0.8037 0.7 0.5851   0.625428
 C 0.847 0.6176 0.6896   0.16882
 C 0.7188 0.4753 0.7121   -0.447627
 C 0.7234 0.4105 0.8225   0.865791
 O 0.3315 0.8966 0.7577   -0.744124
 O 0.2106 0.6742 0.8332   -0.596427
 O 0.6999 0.6181 0.0993   -0.801795
 O 0.5252 0.8287 0.1341   -0.750131
 O 0.4504 0.0151 0.9349   -0.699308
 O 0.6685 0.1034 0.2577   -0.744124
 O 0.7894 0.3258 0.3332   -0.596427
 O 0.3001 0.3819 0.5993   -0.801795
 O 0.4748 0.1713 0.6341   -0.750131
 O 0.5496 0.9849 0.4349   -0.699308
 O 0.1034 0.3315 0.0077   -0.744124
 O 0.3258 0.2106 0.0832   -0.596427
 O 0.3819 0.6999 0.3493   -0.801795
 O 0.1713 0.5252 0.3841   -0.750131
 O 0.9849 0.4504 0.1849   -0.699307
 O 0.8966 0.6685 0.5077   -0.744124
 O 0.6742 0.7894 0.5832   -0.596427
 O 0.6181 0.3001 0.8493   -0.801795
 O 0.8287 0.4748 0.8841   -0.750131
 O 0.0151 0.5496 0.6849   -0.699307
