{'_ref': 'TBD', '_srcid': 'CAKYAQ_clean', 'submitters': [{'name': 'Dalar Nazarian Jeff Camp and David Sholl', 'email': 'dalar@gatech.edu jcamp6@gatech.edu'}], '_method': 'VASP DFT with PBE;DDEC'}
data_CuH2(C3O2)2
_symmetry_space_group_name_H-M   'P 1'
_cell_length_a   18.57919984
_cell_length_b   18.57919976
_cell_length_c   18.57920000
_cell_angle_alpha   59.99999957
_cell_angle_beta   59.99999972
_cell_angle_gamma   59.99999966
_symmetry_Int_Tables_number   1
_chemical_formula_structural   CuH2(C3O2)2
_chemical_formula_sum   'Cu12 H24 C72 O48'
_cell_volume   4534.88229046
_cell_formula_units_Z   12
loop_
 _symmetry_equiv_pos_site_id
 _symmetry_equiv_pos_as_xyz
  1  'x, y, z'
loop_
 _atom_site_label
 _atom_site_fract_x
 _atom_site_fract_y
 _atom_site_fract_z
 _atom_site_charge
 Cu 0.43285 0.56715 0.0   0.922691
 Cu 0.56715 0.43285 0.0   0.92269
 Cu 0.0 0.0 0.43285   0.92269
 Cu 0.0 0.0 0.56715   0.92269
 Cu 0.43285 0.0 0.0   0.92269
 Cu 0.56715 0.0 0.0   0.92269
 Cu 0.0 0.43285 0.56715   0.922691
 Cu 0.0 0.56715 0.43285   0.922691
 Cu 0.43285 0.0 0.56715   0.922691
 Cu 0.56715 0.0 0.43285   0.922691
 Cu 0.0 0.56715 0.0   0.92269
 Cu 0.0 0.43285 0.0   0.92269
 H 0.4888 0.2706 0.97   0.117921
 H 0.2706 0.4888 0.2706   0.117921
 H 0.97 0.2706 0.4888   0.117921
 H 0.2706 0.97 0.2706   0.117921
 H 0.4888 0.97 0.2706   0.117921
 H 0.2706 0.2706 0.97   0.117921
 H 0.97 0.4888 0.2706   0.117921
 H 0.2706 0.2706 0.4888   0.117921
 H 0.4888 0.2706 0.2706   0.117921
 H 0.2706 0.97 0.4888   0.117921
 H 0.97 0.2706 0.2706   0.117921
 H 0.2706 0.4888 0.97   0.117921
 H 0.7294 0.5112 0.03   0.117921
 H 0.5112 0.7294 0.7294   0.117921
 H 0.7294 0.03 0.5112   0.117921
 H 0.03 0.7294 0.7294   0.117921
 H 0.03 0.5112 0.7294   0.117921
 H 0.7294 0.7294 0.03   0.117921
 H 0.5112 0.03 0.7294   0.117921
 H 0.7294 0.7294 0.5112   0.117921
 H 0.7294 0.5112 0.7294   0.117921
 H 0.03 0.7294 0.5112   0.117921
 H 0.7294 0.03 0.7294   0.117921
 H 0.5112 0.7294 0.03   0.117921
 C 0.38642 0.38642 0.97058   -0.162079
 C 0.43105 0.43105 0.97577   0.673813
 C 0.38642 0.38642 0.25658   -0.162079
 C 0.43105 0.43105 0.16213   0.673812
 C 0.97058 0.25658 0.38642   -0.162079
 C 0.97577 0.16213 0.43105   0.673813
 C 0.25658 0.97058 0.38642   -0.162079
 C 0.16213 0.97577 0.43105   0.673813
 C 0.38642 0.97058 0.25658   -0.162079
 C 0.43105 0.97577 0.16213   0.673813
 C 0.38642 0.25658 0.97058   -0.162079
 C 0.43105 0.16213 0.97577   0.673813
 C 0.97058 0.38642 0.38642   -0.162079
 C 0.97577 0.43105 0.43105   0.673813
 C 0.25658 0.38642 0.38642   -0.162079
 C 0.16213 0.43105 0.43105   0.673813
 C 0.38642 0.25658 0.38642   -0.162079
 C 0.43105 0.16213 0.43105   0.673813
 C 0.38642 0.97058 0.38642   -0.162079
 C 0.43105 0.97577 0.43105   0.673813
 C 0.97058 0.38642 0.25658   -0.162079
 C 0.97577 0.43105 0.16213   0.673813
 C 0.25658 0.38642 0.97058   -0.162079
 C 0.16213 0.43105 0.97577   0.673813
 C 0.61358 0.61358 0.02942   -0.162079
 C 0.56895 0.56895 0.02423   0.673813
 C 0.61358 0.61358 0.74342   -0.162079
 C 0.56895 0.56895 0.83787   0.673812
 C 0.74342 0.02942 0.61358   -0.162079
 C 0.83787 0.02423 0.56895   0.673813
 C 0.02942 0.74342 0.61358   -0.162079
 C 0.02423 0.83787 0.56895   0.673813
 C 0.02942 0.61358 0.74342   -0.162079
 C 0.02423 0.56895 0.83787   0.673813
 C 0.74342 0.61358 0.02942   -0.162079
 C 0.83787 0.56895 0.02423   0.673813
 C 0.61358 0.02942 0.61358   -0.162079
 C 0.56895 0.02423 0.56895   0.673813
 C 0.61358 0.74342 0.61358   -0.162079
 C 0.56895 0.83787 0.56895   0.673812
 C 0.74342 0.61358 0.61358   -0.162079
 C 0.83787 0.56895 0.56895   0.673812
 C 0.02942 0.61358 0.61358   -0.162079
 C 0.02423 0.56895 0.56895   0.673813
 C 0.61358 0.02942 0.74342   -0.162079
 C 0.56895 0.02423 0.83787   0.673813
 C 0.61358 0.74342 0.02942   -0.162079
 C 0.56895 0.83787 0.02423   0.673813
 C 0.42961 0.30001 0.97037   0.029663
 C 0.30001 0.42961 0.30001   0.029662
 C 0.97037 0.30001 0.42961   0.029663
 C 0.30001 0.97037 0.30001   0.029663
 C 0.42961 0.97037 0.30001   0.029663
 C 0.30001 0.30001 0.97037   0.029663
 C 0.97037 0.42961 0.30001   0.029663
 C 0.30001 0.30001 0.42961   0.029662
 C 0.42961 0.30001 0.30001   0.029662
 C 0.30001 0.97037 0.42961   0.029663
 C 0.97037 0.30001 0.30001   0.029663
 C 0.30001 0.42961 0.97037   0.029663
 C 0.69999 0.57039 0.02963   0.029663
 C 0.57039 0.69999 0.69999   0.029662
 C 0.69999 0.02963 0.57039   0.029663
 C 0.02963 0.69999 0.69999   0.029663
 C 0.02963 0.57039 0.69999   0.029663
 C 0.69999 0.69999 0.02963   0.029663
 C 0.57039 0.02963 0.69999   0.029663
 C 0.69999 0.69999 0.57039   0.029662
 C 0.69999 0.57039 0.69999   0.029662
 C 0.02963 0.69999 0.57039   0.029663
 C 0.69999 0.02963 0.69999   0.029663
 C 0.57039 0.69999 0.02963   0.029663
 O 0.38739 0.50817 0.97927   -0.560332
 O 0.50817 0.38739 0.12517   -0.560331
 O 0.97927 0.12517 0.38739   -0.560331
 O 0.12517 0.97927 0.50817   -0.560331
 O 0.38739 0.97927 0.12517   -0.560331
 O 0.50817 0.12517 0.97927   -0.560331
 O 0.97927 0.38739 0.50817   -0.560332
 O 0.12517 0.50817 0.38739   -0.560331
 O 0.38739 0.12517 0.50817   -0.560331
 O 0.50817 0.97927 0.38739   -0.560332
 O 0.97927 0.50817 0.12517   -0.560331
 O 0.12517 0.38739 0.97927   -0.560331
 O 0.49183 0.61261 0.02073   -0.560332
 O 0.61261 0.49183 0.87483   -0.560331
 O 0.87483 0.02073 0.61261   -0.560331
 O 0.02073 0.87483 0.49183   -0.560331
 O 0.02073 0.61261 0.87483   -0.560331
 O 0.87483 0.49183 0.02073   -0.560331
 O 0.61261 0.02073 0.49183   -0.560332
 O 0.49183 0.87483 0.61261   -0.560331
 O 0.87483 0.61261 0.49183   -0.560331
 O 0.02073 0.49183 0.61261   -0.560332
 O 0.49183 0.02073 0.87483   -0.560331
 O 0.61261 0.87483 0.02073   -0.560331
 O 0.61261 0.49183 0.02073   -0.560332
 O 0.49183 0.61261 0.87483   -0.560331
 O 0.02073 0.87483 0.61261   -0.560331
 O 0.87483 0.02073 0.49183   -0.560331
 O 0.61261 0.02073 0.87483   -0.560331
 O 0.49183 0.87483 0.02073   -0.560331
 O 0.02073 0.61261 0.49183   -0.560332
 O 0.87483 0.49183 0.61261   -0.560331
 O 0.61261 0.87483 0.49183   -0.560331
 O 0.49183 0.02073 0.61261   -0.560332
 O 0.02073 0.49183 0.87483   -0.560331
 O 0.87483 0.61261 0.02073   -0.560331
 O 0.50817 0.38739 0.97927   -0.560332
 O 0.38739 0.50817 0.12517   -0.560331
 O 0.12517 0.97927 0.38739   -0.560331
 O 0.97927 0.12517 0.50817   -0.560331
 O 0.97927 0.38739 0.12517   -0.560331
 O 0.12517 0.50817 0.97927   -0.560331
 O 0.38739 0.97927 0.50817   -0.560332
 O 0.50817 0.12517 0.38739   -0.560331
 O 0.12517 0.38739 0.50817   -0.560331
 O 0.97927 0.50817 0.38739   -0.560332
 O 0.50817 0.97927 0.12517   -0.560331
 O 0.38739 0.12517 0.97927   -0.560331
