{'_ref': 'TBD', '_srcid': 'CAKYAQ_clean', 'submitters': [{'name': 'Dalar Nazarian Jeff Camp and David Sholl', 'email': 'dalar@gatech.edu jcamp6@gatech.edu'}], '_method': 'VASP DFT with PBE;DDEC'}
data_CuH2(C3O2)2
_symmetry_space_group_name_H-M   'P 1'
_cell_length_a   18.55620035
_cell_length_b   18.55620025
_cell_length_c   18.55620000
_cell_angle_alpha   60.00000045
_cell_angle_beta   60.00000062
_cell_angle_gamma   59.99999922
_symmetry_Int_Tables_number   1
_chemical_formula_structural   CuH2(C3O2)2
_chemical_formula_sum   'Cu12 H24 C72 O48'
_cell_volume   4518.06163653
_cell_formula_units_Z   12
loop_
 _symmetry_equiv_pos_site_id
 _symmetry_equiv_pos_as_xyz
  1  'x, y, z'
loop_
 _atom_site_label
 _atom_site_fract_x
 _atom_site_fract_y
 _atom_site_fract_z
 _atom_site_charge
 Cu 0.43246 0.56754 0.0   0.933988
 Cu 0.56754 0.43246 0.0   0.933988
 Cu 0.0 0.0 0.43246   0.933987
 Cu 0.0 0.0 0.56754   0.933987
 Cu 0.43246 0.0 0.0   0.933987
 Cu 0.56754 0.0 0.0   0.933987
 Cu 0.0 0.43246 0.56754   0.933988
 Cu 0.0 0.56754 0.43246   0.933988
 Cu 0.43246 0.0 0.56754   0.933988
 Cu 0.56754 0.0 0.43246   0.933988
 Cu 0.0 0.56754 0.0   0.933988
 Cu 0.0 0.43246 0.0   0.933988
 H 0.4884 0.271 0.9696   0.116096
 H 0.271 0.4884 0.271   0.116096
 H 0.9696 0.271 0.4884   0.116096
 H 0.271 0.9696 0.271   0.116095
 H 0.4884 0.9696 0.271   0.116096
 H 0.271 0.271 0.9696   0.116095
 H 0.9696 0.4884 0.271   0.116096
 H 0.271 0.271 0.4884   0.116096
 H 0.4884 0.271 0.271   0.116096
 H 0.271 0.9696 0.4884   0.116096
 H 0.9696 0.271 0.271   0.116096
 H 0.271 0.4884 0.9696   0.116096
 H 0.729 0.5116 0.0304   0.116096
 H 0.5116 0.729 0.729   0.116096
 H 0.729 0.0304 0.5116   0.116096
 H 0.0304 0.729 0.729   0.116095
 H 0.0304 0.5116 0.729   0.116096
 H 0.729 0.729 0.0304   0.116095
 H 0.5116 0.0304 0.729   0.116096
 H 0.729 0.729 0.5116   0.116096
 H 0.729 0.5116 0.729   0.116096
 H 0.0304 0.729 0.5116   0.116096
 H 0.729 0.0304 0.729   0.116095
 H 0.5116 0.729 0.0304   0.116096
 C 0.38618 0.38618 0.97084   -0.162249
 C 0.43087 0.43087 0.97515   0.681555
 C 0.38618 0.38618 0.2568   -0.162248
 C 0.43087 0.43087 0.16311   0.681555
 C 0.97084 0.2568 0.38618   -0.162249
 C 0.97515 0.16311 0.43087   0.681555
 C 0.2568 0.97084 0.38618   -0.162249
 C 0.16311 0.97515 0.43087   0.681555
 C 0.38618 0.97084 0.2568   -0.162249
 C 0.43087 0.97515 0.16311   0.681555
 C 0.38618 0.2568 0.97084   -0.162249
 C 0.43087 0.16311 0.97515   0.681555
 C 0.97084 0.38618 0.38618   -0.162249
 C 0.97515 0.43087 0.43087   0.681555
 C 0.2568 0.38618 0.38618   -0.162248
 C 0.16311 0.43087 0.43087   0.681555
 C 0.38618 0.2568 0.38618   -0.162248
 C 0.43087 0.16311 0.43087   0.681555
 C 0.38618 0.97084 0.38618   -0.162249
 C 0.43087 0.97515 0.43087   0.681555
 C 0.97084 0.38618 0.2568   -0.162249
 C 0.97515 0.43087 0.16311   0.681555
 C 0.2568 0.38618 0.97084   -0.162249
 C 0.16311 0.43087 0.97515   0.681555
 C 0.61382 0.61382 0.02916   -0.162249
 C 0.56913 0.56913 0.02485   0.681555
 C 0.61382 0.61382 0.7432   -0.162248
 C 0.56913 0.56913 0.83689   0.681555
 C 0.7432 0.02916 0.61382   -0.162249
 C 0.83689 0.02485 0.56913   0.681555
 C 0.02916 0.7432 0.61382   -0.162249
 C 0.02485 0.83689 0.56913   0.681555
 C 0.02916 0.61382 0.7432   -0.162249
 C 0.02485 0.56913 0.83689   0.681555
 C 0.7432 0.61382 0.02916   -0.162249
 C 0.83689 0.56913 0.02485   0.681555
 C 0.61382 0.02916 0.61382   -0.162249
 C 0.56913 0.02485 0.56913   0.681555
 C 0.61382 0.7432 0.61382   -0.162248
 C 0.56913 0.83689 0.56913   0.681555
 C 0.7432 0.61382 0.61382   -0.162248
 C 0.83689 0.56913 0.56913   0.681555
 C 0.02916 0.61382 0.61382   -0.162249
 C 0.02485 0.56913 0.56913   0.681555
 C 0.61382 0.02916 0.7432   -0.162249
 C 0.56913 0.02485 0.83689   0.681555
 C 0.61382 0.7432 0.02916   -0.162249
 C 0.56913 0.83689 0.02485   0.681555
 C 0.42894 0.30036 0.97034   0.031816
 C 0.30036 0.42894 0.30036   0.031815
 C 0.97034 0.30036 0.42894   0.031816
 C 0.30036 0.97034 0.30036   0.031816
 C 0.42894 0.97034 0.30036   0.031816
 C 0.30036 0.30036 0.97034   0.031816
 C 0.97034 0.42894 0.30036   0.031816
 C 0.30036 0.30036 0.42894   0.031815
 C 0.42894 0.30036 0.30036   0.031815
 C 0.30036 0.97034 0.42894   0.031816
 C 0.97034 0.30036 0.30036   0.031816
 C 0.30036 0.42894 0.97034   0.031816
 C 0.69964 0.57106 0.02966   0.031815
 C 0.57106 0.69964 0.69964   0.031815
 C 0.69964 0.02966 0.57106   0.031815
 C 0.02966 0.69964 0.69964   0.031816
 C 0.02966 0.57106 0.69964   0.031815
 C 0.69964 0.69964 0.02966   0.031816
 C 0.57106 0.02966 0.69964   0.031815
 C 0.69964 0.69964 0.57106   0.031815
 C 0.69964 0.57106 0.69964   0.031815
 C 0.02966 0.69964 0.57106   0.031816
 C 0.69964 0.02966 0.69964   0.031816
 C 0.57106 0.69964 0.02966   0.031816
 O 0.38762 0.5078 0.9792   -0.567106
 O 0.5078 0.38762 0.12538   -0.567106
 O 0.9792 0.12538 0.38762   -0.567106
 O 0.12538 0.9792 0.5078   -0.567106
 O 0.38762 0.9792 0.12538   -0.567106
 O 0.5078 0.12538 0.9792   -0.567106
 O 0.9792 0.38762 0.5078   -0.567106
 O 0.12538 0.5078 0.38762   -0.567106
 O 0.38762 0.12538 0.5078   -0.567106
 O 0.5078 0.9792 0.38762   -0.567106
 O 0.9792 0.5078 0.12538   -0.567106
 O 0.12538 0.38762 0.9792   -0.567106
 O 0.4922 0.61238 0.0208   -0.567106
 O 0.61238 0.4922 0.87462   -0.567106
 O 0.87462 0.0208 0.61238   -0.567106
 O 0.0208 0.87462 0.4922   -0.567106
 O 0.0208 0.61238 0.87462   -0.567106
 O 0.87462 0.4922 0.0208   -0.567106
 O 0.61238 0.0208 0.4922   -0.567106
 O 0.4922 0.87462 0.61238   -0.567106
 O 0.87462 0.61238 0.4922   -0.567106
 O 0.0208 0.4922 0.61238   -0.567106
 O 0.4922 0.0208 0.87462   -0.567106
 O 0.61238 0.87462 0.0208   -0.567106
 O 0.61238 0.4922 0.0208   -0.567106
 O 0.4922 0.61238 0.87462   -0.567106
 O 0.0208 0.87462 0.61238   -0.567106
 O 0.87462 0.0208 0.4922   -0.567106
 O 0.61238 0.0208 0.87462   -0.567106
 O 0.4922 0.87462 0.0208   -0.567106
 O 0.0208 0.61238 0.4922   -0.567106
 O 0.87462 0.4922 0.61238   -0.567106
 O 0.61238 0.87462 0.4922   -0.567106
 O 0.4922 0.0208 0.61238   -0.567106
 O 0.0208 0.4922 0.87462   -0.567106
 O 0.87462 0.61238 0.0208   -0.567106
 O 0.5078 0.38762 0.9792   -0.567106
 O 0.38762 0.5078 0.12538   -0.567106
 O 0.12538 0.9792 0.38762   -0.567106
 O 0.9792 0.12538 0.5078   -0.567106
 O 0.9792 0.38762 0.12538   -0.567106
 O 0.12538 0.5078 0.9792   -0.567106
 O 0.38762 0.9792 0.5078   -0.567106
 O 0.5078 0.12538 0.38762   -0.567106
 O 0.12538 0.38762 0.5078   -0.567106
 O 0.9792 0.5078 0.38762   -0.567106
 O 0.5078 0.9792 0.12538   -0.567106
 O 0.38762 0.12538 0.9792   -0.567106
