{'_ref': 'TBD', '_srcid': 'CAKYAQ_clean', 'submitters': [{'name': 'Dalar Nazarian Jeff Camp and David Sholl', 'email': 'dalar@gatech.edu jcamp6@gatech.edu'}], '_method': 'VASP DFT with PBE;DDEC'}
data_CuH2(C3O2)2
_symmetry_space_group_name_H-M   'P 1'
_cell_length_a   18.57100020
_cell_length_b   18.57100002
_cell_length_c   18.57100000
_cell_angle_alpha   60.00000003
_cell_angle_beta   60.00000035
_cell_angle_gamma   59.99999992
_symmetry_Int_Tables_number   1
_chemical_formula_structural   CuH2(C3O2)2
_chemical_formula_sum   'Cu12 H24 C72 O48'
_cell_volume   4528.8806741
_cell_formula_units_Z   12
loop_
 _symmetry_equiv_pos_site_id
 _symmetry_equiv_pos_as_xyz
  1  'x, y, z'
loop_
 _atom_site_label
 _atom_site_fract_x
 _atom_site_fract_y
 _atom_site_fract_z
 _atom_site_charge
 Cu 0.43271 0.56729 0.0   0.932485
 Cu 0.56729 0.43271 0.0   0.932484
 Cu 0.0 0.0 0.43271   0.932484
 Cu 0.0 0.0 0.56729   0.932484
 Cu 0.43271 0.0 0.0   0.932484
 Cu 0.56729 0.0 0.0   0.932484
 Cu 0.0 0.43271 0.56729   0.932485
 Cu 0.0 0.56729 0.43271   0.932485
 Cu 0.43271 0.0 0.56729   0.932485
 Cu 0.56729 0.0 0.43271   0.932485
 Cu 0.0 0.56729 0.0   0.932484
 Cu 0.0 0.43271 0.0   0.932484
 H 0.4871 0.2713 0.9703   0.113939
 H 0.2713 0.4871 0.2713   0.113939
 H 0.9703 0.2713 0.4871   0.113939
 H 0.2713 0.9703 0.2713   0.113939
 H 0.4871 0.9703 0.2713   0.113939
 H 0.2713 0.2713 0.9703   0.113939
 H 0.9703 0.4871 0.2713   0.113939
 H 0.2713 0.2713 0.4871   0.113939
 H 0.4871 0.2713 0.2713   0.113939
 H 0.2713 0.9703 0.4871   0.113939
 H 0.9703 0.2713 0.2713   0.113939
 H 0.2713 0.4871 0.9703   0.113939
 H 0.7287 0.5129 0.0297   0.113939
 H 0.5129 0.7287 0.7287   0.113939
 H 0.7287 0.0297 0.5129   0.113939
 H 0.0297 0.7287 0.7287   0.113939
 H 0.0297 0.5129 0.7287   0.113939
 H 0.7287 0.7287 0.0297   0.113939
 H 0.5129 0.0297 0.7287   0.113939
 H 0.7287 0.7287 0.5129   0.113939
 H 0.7287 0.5129 0.7287   0.113939
 H 0.0297 0.7287 0.5129   0.113939
 H 0.7287 0.0297 0.7287   0.113939
 H 0.5129 0.7287 0.0297   0.113939
 C 0.38627 0.38627 0.97099   -0.167935
 C 0.43088 0.43088 0.97546   0.68099
 C 0.38627 0.38627 0.25647   -0.167935
 C 0.43088 0.43088 0.16278   0.680989
 C 0.97099 0.25647 0.38627   -0.167935
 C 0.97546 0.16278 0.43088   0.680989
 C 0.25647 0.97099 0.38627   -0.167935
 C 0.16278 0.97546 0.43088   0.680989
 C 0.38627 0.97099 0.25647   -0.167935
 C 0.43088 0.97546 0.16278   0.680989
 C 0.38627 0.25647 0.97099   -0.167935
 C 0.43088 0.16278 0.97546   0.680989
 C 0.97099 0.38627 0.38627   -0.167935
 C 0.97546 0.43088 0.43088   0.68099
 C 0.25647 0.38627 0.38627   -0.167935
 C 0.16278 0.43088 0.43088   0.680989
 C 0.38627 0.25647 0.38627   -0.167935
 C 0.43088 0.16278 0.43088   0.680989
 C 0.38627 0.97099 0.38627   -0.167935
 C 0.43088 0.97546 0.43088   0.68099
 C 0.97099 0.38627 0.25647   -0.167935
 C 0.97546 0.43088 0.16278   0.680989
 C 0.25647 0.38627 0.97099   -0.167935
 C 0.16278 0.43088 0.97546   0.680989
 C 0.61373 0.61373 0.02901   -0.167935
 C 0.56912 0.56912 0.02454   0.680989
 C 0.61373 0.61373 0.74353   -0.167935
 C 0.56912 0.56912 0.83722   0.680989
 C 0.74353 0.02901 0.61373   -0.167935
 C 0.83722 0.02454 0.56912   0.680989
 C 0.02901 0.74353 0.61373   -0.167935
 C 0.02454 0.83722 0.56912   0.680989
 C 0.02901 0.61373 0.74353   -0.167935
 C 0.02454 0.56912 0.83722   0.680989
 C 0.74353 0.61373 0.02901   -0.167935
 C 0.83722 0.56912 0.02454   0.680989
 C 0.61373 0.02901 0.61373   -0.167935
 C 0.56912 0.02454 0.56912   0.680989
 C 0.61373 0.74353 0.61373   -0.167935
 C 0.56912 0.83722 0.56912   0.680989
 C 0.74353 0.61373 0.61373   -0.167935
 C 0.83722 0.56912 0.56912   0.680989
 C 0.02901 0.61373 0.61373   -0.167935
 C 0.02454 0.56912 0.56912   0.680989
 C 0.61373 0.02901 0.74353   -0.167935
 C 0.56912 0.02454 0.83722   0.680989
 C 0.61373 0.74353 0.02901   -0.167935
 C 0.56912 0.83722 0.02454   0.680989
 C 0.42911 0.30009 0.97071   0.038121
 C 0.30009 0.42911 0.30009   0.03812
 C 0.97071 0.30009 0.42911   0.038121
 C 0.30009 0.97071 0.30009   0.038121
 C 0.42911 0.97071 0.30009   0.038121
 C 0.30009 0.30009 0.97071   0.038121
 C 0.97071 0.42911 0.30009   0.038121
 C 0.30009 0.30009 0.42911   0.03812
 C 0.42911 0.30009 0.30009   0.03812
 C 0.30009 0.97071 0.42911   0.038121
 C 0.97071 0.30009 0.30009   0.038121
 C 0.30009 0.42911 0.97071   0.038121
 C 0.69991 0.57089 0.02929   0.038121
 C 0.57089 0.69991 0.69991   0.03812
 C 0.69991 0.02929 0.57089   0.038121
 C 0.02929 0.69991 0.69991   0.038121
 C 0.02929 0.57089 0.69991   0.038121
 C 0.69991 0.69991 0.02929   0.038121
 C 0.57089 0.02929 0.69991   0.038121
 C 0.69991 0.69991 0.57089   0.03812
 C 0.69991 0.57089 0.69991   0.03812
 C 0.02929 0.69991 0.57089   0.038121
 C 0.69991 0.02929 0.69991   0.038121
 C 0.57089 0.69991 0.02929   0.038121
 O 0.3877 0.5079 0.97926   -0.565678
 O 0.5079 0.3877 0.12514   -0.565678
 O 0.97926 0.12514 0.3877   -0.565678
 O 0.12514 0.97926 0.5079   -0.565678
 O 0.3877 0.97926 0.12514   -0.565678
 O 0.5079 0.12514 0.97926   -0.565678
 O 0.97926 0.3877 0.5079   -0.565678
 O 0.12514 0.5079 0.3877   -0.565678
 O 0.3877 0.12514 0.5079   -0.565678
 O 0.5079 0.97926 0.3877   -0.565678
 O 0.97926 0.5079 0.12514   -0.565678
 O 0.12514 0.3877 0.97926   -0.565678
 O 0.4921 0.6123 0.02074   -0.565678
 O 0.6123 0.4921 0.87486   -0.565678
 O 0.87486 0.02074 0.6123   -0.565678
 O 0.02074 0.87486 0.4921   -0.565678
 O 0.02074 0.6123 0.87486   -0.565678
 O 0.87486 0.4921 0.02074   -0.565678
 O 0.6123 0.02074 0.4921   -0.565678
 O 0.4921 0.87486 0.6123   -0.565678
 O 0.87486 0.6123 0.4921   -0.565678
 O 0.02074 0.4921 0.6123   -0.565678
 O 0.4921 0.02074 0.87486   -0.565678
 O 0.6123 0.87486 0.02074   -0.565678
 O 0.6123 0.4921 0.02074   -0.565678
 O 0.4921 0.6123 0.87486   -0.565678
 O 0.02074 0.87486 0.6123   -0.565678
 O 0.87486 0.02074 0.4921   -0.565678
 O 0.6123 0.02074 0.87486   -0.565678
 O 0.4921 0.87486 0.02074   -0.565678
 O 0.02074 0.6123 0.4921   -0.565678
 O 0.87486 0.4921 0.6123   -0.565678
 O 0.6123 0.87486 0.4921   -0.565678
 O 0.4921 0.02074 0.6123   -0.565678
 O 0.02074 0.4921 0.87486   -0.565678
 O 0.87486 0.6123 0.02074   -0.565678
 O 0.5079 0.3877 0.97926   -0.565678
 O 0.3877 0.5079 0.12514   -0.565678
 O 0.12514 0.97926 0.3877   -0.565678
 O 0.97926 0.12514 0.5079   -0.565678
 O 0.97926 0.3877 0.12514   -0.565678
 O 0.12514 0.5079 0.97926   -0.565678
 O 0.3877 0.97926 0.5079   -0.565678
 O 0.5079 0.12514 0.3877   -0.565678
 O 0.12514 0.3877 0.5079   -0.565678
 O 0.97926 0.5079 0.3877   -0.565678
 O 0.5079 0.97926 0.12514   -0.565678
 O 0.3877 0.12514 0.97926   -0.565678
