{'_ref': 'TBD', '_srcid': 'CAKYAQ_clean', 'submitters': [{'name': 'Dalar Nazarian Jeff Camp and David Sholl', 'email': 'dalar@gatech.edu jcamp6@gatech.edu'}], '_method': 'VASP DFT with PBE;DDEC'}
data_CuH2(C3O2)2
_symmetry_space_group_name_H-M   'P 1'
_cell_length_a   18.55770032
_cell_length_b   18.55770046
_cell_length_c   18.55770000
_cell_angle_alpha   60.00000082
_cell_angle_beta   60.00000056
_cell_angle_gamma   59.99999960
_symmetry_Int_Tables_number   1
_chemical_formula_structural   CuH2(C3O2)2
_chemical_formula_sum   'Cu12 H24 C72 O48'
_cell_volume   4519.15745
_cell_formula_units_Z   12
loop_
 _symmetry_equiv_pos_site_id
 _symmetry_equiv_pos_as_xyz
  1  'x, y, z'
loop_
 _atom_site_label
 _atom_site_fract_x
 _atom_site_fract_y
 _atom_site_fract_z
 _atom_site_charge
 Cu 0.43128 0.56872 0.0   0.954018
 Cu 0.56872 0.43128 0.0   0.954018
 Cu 0.0 0.0 0.43128   0.954018
 Cu 0.0 0.0 0.56872   0.954018
 Cu 0.43128 0.0 0.0   0.95402
 Cu 0.56872 0.0 0.0   0.95402
 Cu 0.0 0.43128 0.56872   0.954019
 Cu 0.0 0.56872 0.43128   0.954019
 Cu 0.43128 0.0 0.56872   0.954021
 Cu 0.56872 0.0 0.43128   0.954021
 Cu 0.0 0.56872 0.0   0.95402
 Cu 0.0 0.43128 0.0   0.95402
 H 0.4874 0.2728 0.967   0.110655
 H 0.2728 0.4874 0.2728   0.110655
 H 0.967 0.2728 0.4874   0.110655
 H 0.2728 0.967 0.2728   0.110655
 H 0.4874 0.967 0.2728   0.110655
 H 0.2728 0.2728 0.967   0.110655
 H 0.967 0.4874 0.2728   0.110655
 H 0.2728 0.2728 0.4874   0.110655
 H 0.4874 0.2728 0.2728   0.110655
 H 0.2728 0.967 0.4874   0.110655
 H 0.967 0.2728 0.2728   0.110655
 H 0.2728 0.4874 0.967   0.110655
 H 0.7272 0.5126 0.033   0.110655
 H 0.5126 0.7272 0.7272   0.110655
 H 0.7272 0.033 0.5126   0.110655
 H 0.033 0.7272 0.7272   0.110654
 H 0.033 0.5126 0.7272   0.110655
 H 0.7272 0.7272 0.033   0.110655
 H 0.5126 0.033 0.7272   0.110655
 H 0.7272 0.7272 0.5126   0.110655
 H 0.7272 0.5126 0.7272   0.110655
 H 0.033 0.7272 0.5126   0.110655
 H 0.7272 0.033 0.7272   0.110655
 H 0.5126 0.7272 0.033   0.110655
 C 0.386 0.386 0.9718   -0.17183
 C 0.4307 0.4307 0.9749   0.691679
 C 0.386 0.386 0.2562   -0.17183
 C 0.4307 0.4307 0.1637   0.691678
 C 0.9718 0.2562 0.386   -0.17183
 C 0.9749 0.1637 0.4307   0.691679
 C 0.2562 0.9718 0.386   -0.17183
 C 0.1637 0.9749 0.4307   0.691679
 C 0.386 0.9718 0.2562   -0.17183
 C 0.4307 0.9749 0.1637   0.691679
 C 0.386 0.2562 0.9718   -0.17183
 C 0.4307 0.1637 0.9749   0.691679
 C 0.9718 0.386 0.386   -0.17183
 C 0.9749 0.4307 0.4307   0.691679
 C 0.2562 0.386 0.386   -0.17183
 C 0.1637 0.4307 0.4307   0.691678
 C 0.386 0.2562 0.386   -0.17183
 C 0.4307 0.1637 0.4307   0.691679
 C 0.386 0.9718 0.386   -0.17183
 C 0.4307 0.9749 0.4307   0.69168
 C 0.9718 0.386 0.2562   -0.17183
 C 0.9749 0.4307 0.1637   0.691678
 C 0.2562 0.386 0.9718   -0.17183
 C 0.1637 0.4307 0.9749   0.691679
 C 0.614 0.614 0.0282   -0.17183
 C 0.5693 0.5693 0.0251   0.691679
 C 0.614 0.614 0.7438   -0.17183
 C 0.5693 0.5693 0.8363   0.691678
 C 0.7438 0.0282 0.614   -0.17183
 C 0.8363 0.0251 0.5693   0.691679
 C 0.0282 0.7438 0.614   -0.17183
 C 0.0251 0.8363 0.5693   0.691679
 C 0.0282 0.614 0.7438   -0.171829
 C 0.0251 0.5693 0.8363   0.691678
 C 0.7438 0.614 0.0282   -0.17183
 C 0.8363 0.5693 0.0251   0.691679
 C 0.614 0.0282 0.614   -0.17183
 C 0.5693 0.0251 0.5693   0.69168
 C 0.614 0.7438 0.614   -0.17183
 C 0.5693 0.8363 0.5693   0.691679
 C 0.7438 0.614 0.614   -0.17183
 C 0.8363 0.5693 0.5693   0.691678
 C 0.0282 0.614 0.614   -0.17183
 C 0.0251 0.5693 0.5693   0.691678
 C 0.614 0.0282 0.7438   -0.17183
 C 0.5693 0.0251 0.8363   0.691679
 C 0.614 0.7438 0.0282   -0.17183
 C 0.5693 0.8363 0.0251   0.691679
 C 0.4286 0.3008 0.9698   0.045699
 C 0.3008 0.4286 0.3008   0.045698
 C 0.9698 0.3008 0.4286   0.045698
 C 0.3008 0.9698 0.3008   0.045699
 C 0.4286 0.9698 0.3008   0.045699
 C 0.3008 0.3008 0.9698   0.045699
 C 0.9698 0.4286 0.3008   0.045699
 C 0.3008 0.3008 0.4286   0.045698
 C 0.4286 0.3008 0.3008   0.045698
 C 0.3008 0.9698 0.4286   0.045699
 C 0.9698 0.3008 0.3008   0.045699
 C 0.3008 0.4286 0.9698   0.045699
 C 0.6992 0.5714 0.0302   0.045699
 C 0.5714 0.6992 0.6992   0.045698
 C 0.6992 0.0302 0.5714   0.045698
 C 0.0302 0.6992 0.6992   0.045699
 C 0.0302 0.5714 0.6992   0.045699
 C 0.6992 0.6992 0.0302   0.045699
 C 0.5714 0.0302 0.6992   0.045699
 C 0.6992 0.6992 0.5714   0.045698
 C 0.6992 0.5714 0.6992   0.045698
 C 0.0302 0.6992 0.5714   0.045698
 C 0.6992 0.0302 0.6992   0.045699
 C 0.5714 0.6992 0.0302   0.045699
 O 0.3879 0.5077 0.9793   -0.576606
 O 0.5077 0.3879 0.1251   -0.576605
 O 0.9793 0.1251 0.3879   -0.576606
 O 0.1251 0.9793 0.5077   -0.576606
 O 0.3879 0.9793 0.1251   -0.576607
 O 0.5077 0.1251 0.9793   -0.576606
 O 0.9793 0.3879 0.5077   -0.576606
 O 0.1251 0.5077 0.3879   -0.576605
 O 0.3879 0.1251 0.5077   -0.576606
 O 0.5077 0.9793 0.3879   -0.576607
 O 0.9793 0.5077 0.1251   -0.576606
 O 0.1251 0.3879 0.9793   -0.576606
 O 0.4923 0.6121 0.0207   -0.576606
 O 0.6121 0.4923 0.8749   -0.576605
 O 0.8749 0.0207 0.6121   -0.576606
 O 0.0207 0.8749 0.4923   -0.576606
 O 0.0207 0.6121 0.8749   -0.576605
 O 0.8749 0.4923 0.0207   -0.576606
 O 0.6121 0.0207 0.4923   -0.576607
 O 0.4923 0.8749 0.6121   -0.576605
 O 0.8749 0.6121 0.4923   -0.576606
 O 0.0207 0.4923 0.6121   -0.576606
 O 0.4923 0.0207 0.8749   -0.576607
 O 0.6121 0.8749 0.0207   -0.576607
 O 0.6121 0.4923 0.0207   -0.576606
 O 0.4923 0.6121 0.8749   -0.576605
 O 0.0207 0.8749 0.6121   -0.576606
 O 0.8749 0.0207 0.4923   -0.576606
 O 0.6121 0.0207 0.8749   -0.576607
 O 0.4923 0.8749 0.0207   -0.576606
 O 0.0207 0.6121 0.4923   -0.576606
 O 0.8749 0.4923 0.6121   -0.576605
 O 0.6121 0.8749 0.4923   -0.576607
 O 0.4923 0.0207 0.6121   -0.576607
 O 0.0207 0.4923 0.8749   -0.576606
 O 0.8749 0.6121 0.0207   -0.576606
 O 0.5077 0.3879 0.9793   -0.576606
 O 0.3879 0.5077 0.1251   -0.576605
 O 0.1251 0.9793 0.3879   -0.576606
 O 0.9793 0.1251 0.5077   -0.576606
 O 0.9793 0.3879 0.1251   -0.576606
 O 0.1251 0.5077 0.9793   -0.576606
 O 0.3879 0.9793 0.5077   -0.576607
 O 0.5077 0.1251 0.3879   -0.576606
 O 0.1251 0.3879 0.5077   -0.576606
 O 0.9793 0.5077 0.3879   -0.576607
 O 0.5077 0.9793 0.1251   -0.576607
 O 0.3879 0.1251 0.9793   -0.576607
