{'_ref': 'TBD', '_srcid': 'CAKYAQ_clean', 'submitters': [{'name': 'Dalar Nazarian Jeff Camp and David Sholl', 'email': 'dalar@gatech.edu jcamp6@gatech.edu'}], '_method': 'VASP DFT with PBE;DDEC'}
data_CuH2(C3O2)2
_symmetry_space_group_name_H-M   'P 1'
_cell_length_a   18.56959971
_cell_length_b   18.56960014
_cell_length_c   18.56960000
_cell_angle_alpha   60.00000025
_cell_angle_beta   59.99999948
_cell_angle_gamma   59.99999939
_symmetry_Int_Tables_number   1
_chemical_formula_structural   CuH2(C3O2)2
_chemical_formula_sum   'Cu12 H24 C72 O48'
_cell_volume   4527.85637341
_cell_formula_units_Z   12
loop_
 _symmetry_equiv_pos_site_id
 _symmetry_equiv_pos_as_xyz
  1  'x, y, z'
loop_
 _atom_site_label
 _atom_site_fract_x
 _atom_site_fract_y
 _atom_site_fract_z
 _atom_site_charge
 Cu 0.43277 0.56723 0.0   0.927827
 Cu 0.56723 0.43277 0.0   0.927827
 Cu 0.0 0.0 0.43277   0.927827
 Cu 0.0 0.0 0.56723   0.927826
 Cu 0.43277 0.0 0.0   0.927827
 Cu 0.56723 0.0 0.0   0.927827
 Cu 0.0 0.43277 0.56723   0.927828
 Cu 0.0 0.56723 0.43277   0.927827
 Cu 0.43277 0.0 0.56723   0.927828
 Cu 0.56723 0.0 0.43277   0.927827
 Cu 0.0 0.56723 0.0   0.927828
 Cu 0.0 0.43277 0.0   0.927827
 H 0.4883 0.2705 0.9707   0.117845
 H 0.2705 0.4883 0.2705   0.117845
 H 0.9707 0.2705 0.4883   0.117845
 H 0.2705 0.9707 0.2705   0.117845
 H 0.4883 0.9707 0.2705   0.117845
 H 0.2705 0.2705 0.9707   0.117845
 H 0.9707 0.4883 0.2705   0.117845
 H 0.2705 0.2705 0.4883   0.117845
 H 0.4883 0.2705 0.2705   0.117845
 H 0.2705 0.9707 0.4883   0.117845
 H 0.9707 0.2705 0.2705   0.117845
 H 0.2705 0.4883 0.9707   0.117845
 H 0.7295 0.5117 0.0293   0.117845
 H 0.5117 0.7295 0.7295   0.117845
 H 0.7295 0.0293 0.5117   0.117845
 H 0.0293 0.7295 0.7295   0.117845
 H 0.0293 0.5117 0.7295   0.117845
 H 0.7295 0.7295 0.0293   0.117845
 H 0.5117 0.0293 0.7295   0.117845
 H 0.7295 0.7295 0.5117   0.117845
 H 0.7295 0.5117 0.7295   0.117845
 H 0.0293 0.7295 0.5117   0.117845
 H 0.7295 0.0293 0.7295   0.117845
 H 0.5117 0.7295 0.0293   0.117845
 C 0.38627 0.38627 0.97077   -0.162608
 C 0.43091 0.43091 0.97569   0.678508
 C 0.38627 0.38627 0.25669   -0.162608
 C 0.43091 0.43091 0.16249   0.678508
 C 0.97077 0.25669 0.38627   -0.162609
 C 0.97569 0.16249 0.43091   0.678508
 C 0.25669 0.97077 0.38627   -0.162608
 C 0.16249 0.97569 0.43091   0.678508
 C 0.38627 0.97077 0.25669   -0.162608
 C 0.43091 0.97569 0.16249   0.678508
 C 0.38627 0.25669 0.97077   -0.162609
 C 0.43091 0.16249 0.97569   0.678508
 C 0.97077 0.38627 0.38627   -0.162609
 C 0.97569 0.43091 0.43091   0.678509
 C 0.25669 0.38627 0.38627   -0.162608
 C 0.16249 0.43091 0.43091   0.678508
 C 0.38627 0.25669 0.38627   -0.162608
 C 0.43091 0.16249 0.43091   0.678508
 C 0.38627 0.97077 0.38627   -0.162608
 C 0.43091 0.97569 0.43091   0.678508
 C 0.97077 0.38627 0.25669   -0.162609
 C 0.97569 0.43091 0.16249   0.678508
 C 0.25669 0.38627 0.97077   -0.162608
 C 0.16249 0.43091 0.97569   0.678508
 C 0.61373 0.61373 0.02923   -0.162608
 C 0.56909 0.56909 0.02431   0.678508
 C 0.61373 0.61373 0.74331   -0.162608
 C 0.56909 0.56909 0.83751   0.678508
 C 0.74331 0.02923 0.61373   -0.162608
 C 0.83751 0.02431 0.56909   0.678508
 C 0.02923 0.74331 0.61373   -0.162609
 C 0.02431 0.83751 0.56909   0.678508
 C 0.02923 0.61373 0.74331   -0.162609
 C 0.02431 0.56909 0.83751   0.678508
 C 0.74331 0.61373 0.02923   -0.162608
 C 0.83751 0.56909 0.02431   0.678508
 C 0.61373 0.02923 0.61373   -0.162608
 C 0.56909 0.02431 0.56909   0.678508
 C 0.61373 0.74331 0.61373   -0.162608
 C 0.56909 0.83751 0.56909   0.678508
 C 0.74331 0.61373 0.61373   -0.162608
 C 0.83751 0.56909 0.56909   0.678508
 C 0.02923 0.61373 0.61373   -0.162609
 C 0.02431 0.56909 0.56909   0.678508
 C 0.61373 0.02923 0.74331   -0.162608
 C 0.56909 0.02431 0.83751   0.678508
 C 0.61373 0.74331 0.02923   -0.162609
 C 0.56909 0.83751 0.02431   0.678508
 C 0.42929 0.29999 0.97073   0.029593
 C 0.29999 0.42929 0.29999   0.029591
 C 0.97073 0.29999 0.42929   0.029593
 C 0.29999 0.97073 0.29999   0.029592
 C 0.42929 0.97073 0.29999   0.029593
 C 0.29999 0.29999 0.97073   0.029592
 C 0.97073 0.42929 0.29999   0.029593
 C 0.29999 0.29999 0.42929   0.029592
 C 0.42929 0.29999 0.29999   0.029592
 C 0.29999 0.97073 0.42929   0.029592
 C 0.97073 0.29999 0.29999   0.029593
 C 0.29999 0.42929 0.97073   0.029592
 C 0.70001 0.57071 0.02927   0.029592
 C 0.57071 0.70001 0.70001   0.029592
 C 0.70001 0.02927 0.57071   0.029591
 C 0.02927 0.70001 0.70001   0.029593
 C 0.02927 0.57071 0.70001   0.029593
 C 0.70001 0.70001 0.02927   0.029592
 C 0.57071 0.02927 0.70001   0.029593
 C 0.70001 0.70001 0.57071   0.029591
 C 0.70001 0.57071 0.70001   0.029591
 C 0.02927 0.70001 0.57071   0.029593
 C 0.70001 0.02927 0.70001   0.029592
 C 0.57071 0.70001 0.02927   0.029593
 O 0.38762 0.5079 0.97928   -0.563626
 O 0.5079 0.38762 0.1252   -0.563625
 O 0.97928 0.1252 0.38762   -0.563625
 O 0.1252 0.97928 0.5079   -0.563625
 O 0.38762 0.97928 0.1252   -0.563625
 O 0.5079 0.1252 0.97928   -0.563625
 O 0.97928 0.38762 0.5079   -0.563626
 O 0.1252 0.5079 0.38762   -0.563625
 O 0.38762 0.1252 0.5079   -0.563625
 O 0.5079 0.97928 0.38762   -0.563626
 O 0.97928 0.5079 0.1252   -0.563625
 O 0.1252 0.38762 0.97928   -0.563625
 O 0.4921 0.61238 0.02072   -0.563626
 O 0.61238 0.4921 0.8748   -0.563625
 O 0.8748 0.02072 0.61238   -0.563625
 O 0.02072 0.8748 0.4921   -0.563625
 O 0.02072 0.61238 0.8748   -0.563625
 O 0.8748 0.4921 0.02072   -0.563625
 O 0.61238 0.02072 0.4921   -0.563626
 O 0.4921 0.8748 0.61238   -0.563625
 O 0.8748 0.61238 0.4921   -0.563625
 O 0.02072 0.4921 0.61238   -0.563626
 O 0.4921 0.02072 0.8748   -0.563625
 O 0.61238 0.8748 0.02072   -0.563625
 O 0.61238 0.4921 0.02072   -0.563626
 O 0.4921 0.61238 0.8748   -0.563625
 O 0.02072 0.8748 0.61238   -0.563625
 O 0.8748 0.02072 0.4921   -0.563625
 O 0.61238 0.02072 0.8748   -0.563625
 O 0.4921 0.8748 0.02072   -0.563625
 O 0.02072 0.61238 0.4921   -0.563626
 O 0.8748 0.4921 0.61238   -0.563625
 O 0.61238 0.8748 0.4921   -0.563625
 O 0.4921 0.02072 0.61238   -0.563626
 O 0.02072 0.4921 0.8748   -0.563625
 O 0.8748 0.61238 0.02072   -0.563625
 O 0.5079 0.38762 0.97928   -0.563626
 O 0.38762 0.5079 0.1252   -0.563625
 O 0.1252 0.97928 0.38762   -0.563625
 O 0.97928 0.1252 0.5079   -0.563625
 O 0.97928 0.38762 0.1252   -0.563625
 O 0.1252 0.5079 0.97928   -0.563625
 O 0.38762 0.97928 0.5079   -0.563626
 O 0.5079 0.1252 0.38762   -0.563625
 O 0.1252 0.38762 0.5079   -0.563625
 O 0.97928 0.5079 0.38762   -0.563626
 O 0.5079 0.97928 0.1252   -0.563625
 O 0.38762 0.1252 0.97928   -0.563625
