{'_ref': 'TBD', '_srcid': 'CAKYAQ_clean', 'submitters': [{'name': 'Dalar Nazarian Jeff Camp and David Sholl', 'email': 'dalar@gatech.edu jcamp6@gatech.edu'}], '_method': 'VASP DFT with PBE;DDEC'}
data_CuH2(C3O2)2
_symmetry_space_group_name_H-M   'P 1'
_cell_length_a   18.57800004
_cell_length_b   18.57799971
_cell_length_c   18.57800000
_cell_angle_alpha   59.99999948
_cell_angle_beta   60.00000007
_cell_angle_gamma   59.99999843
_symmetry_Int_Tables_number   1
_chemical_formula_structural   CuH2(C3O2)2
_chemical_formula_sum   'Cu12 H24 C72 O48'
_cell_volume   4534.00364936
_cell_formula_units_Z   12
loop_
 _symmetry_equiv_pos_site_id
 _symmetry_equiv_pos_as_xyz
  1  'x, y, z'
loop_
 _atom_site_label
 _atom_site_fract_x
 _atom_site_fract_y
 _atom_site_fract_z
 _atom_site_charge
 Cu 0.43282 0.56718 0.0   0.92455
 Cu 0.56718 0.43282 0.0   0.924549
 Cu 0.0 0.0 0.43282   0.924549
 Cu 0.0 0.0 0.56718   0.924549
 Cu 0.43282 0.0 0.0   0.924549
 Cu 0.56718 0.0 0.0   0.924549
 Cu 0.0 0.43282 0.56718   0.92455
 Cu 0.0 0.56718 0.43282   0.924549
 Cu 0.43282 0.0 0.56718   0.92455
 Cu 0.56718 0.0 0.43282   0.92455
 Cu 0.0 0.56718 0.0   0.924549
 Cu 0.0 0.43282 0.0   0.924549
 H 0.4879 0.2709 0.9703   0.115793
 H 0.2709 0.4879 0.2709   0.115793
 H 0.9703 0.2709 0.4879   0.115793
 H 0.2709 0.9703 0.2709   0.115793
 H 0.4879 0.9703 0.2709   0.115793
 H 0.2709 0.2709 0.9703   0.115793
 H 0.9703 0.4879 0.2709   0.115793
 H 0.2709 0.2709 0.4879   0.115793
 H 0.4879 0.2709 0.2709   0.115794
 H 0.2709 0.9703 0.4879   0.115793
 H 0.9703 0.2709 0.2709   0.115793
 H 0.2709 0.4879 0.9703   0.115793
 H 0.7291 0.5121 0.0297   0.115793
 H 0.5121 0.7291 0.7291   0.115793
 H 0.7291 0.0297 0.5121   0.115793
 H 0.0297 0.7291 0.7291   0.115793
 H 0.0297 0.5121 0.7291   0.115793
 H 0.7291 0.7291 0.0297   0.115793
 H 0.5121 0.0297 0.7291   0.115793
 H 0.7291 0.7291 0.5121   0.115793
 H 0.7291 0.5121 0.7291   0.115793
 H 0.0297 0.7291 0.5121   0.115793
 H 0.7291 0.0297 0.7291   0.115793
 H 0.5121 0.7291 0.0297   0.115793
 C 0.38636 0.38636 0.97072   -0.16584
 C 0.431 0.431 0.9757   0.676532
 C 0.38636 0.38636 0.25656   -0.165839
 C 0.431 0.431 0.1623   0.676532
 C 0.97072 0.25656 0.38636   -0.16584
 C 0.9757 0.1623 0.431   0.676532
 C 0.25656 0.97072 0.38636   -0.16584
 C 0.1623 0.9757 0.431   0.676532
 C 0.38636 0.97072 0.25656   -0.16584
 C 0.431 0.9757 0.1623   0.676532
 C 0.38636 0.25656 0.97072   -0.16584
 C 0.431 0.1623 0.9757   0.676532
 C 0.97072 0.38636 0.38636   -0.16584
 C 0.9757 0.431 0.431   0.676532
 C 0.25656 0.38636 0.38636   -0.165839
 C 0.1623 0.431 0.431   0.676532
 C 0.38636 0.25656 0.38636   -0.165839
 C 0.431 0.1623 0.431   0.676532
 C 0.38636 0.97072 0.38636   -0.16584
 C 0.431 0.9757 0.431   0.676532
 C 0.97072 0.38636 0.25656   -0.16584
 C 0.9757 0.431 0.1623   0.676532
 C 0.25656 0.38636 0.97072   -0.16584
 C 0.1623 0.431 0.9757   0.676532
 C 0.61364 0.61364 0.02928   -0.16584
 C 0.569 0.569 0.0243   0.676532
 C 0.61364 0.61364 0.74344   -0.165839
 C 0.569 0.569 0.8377   0.676531
 C 0.74344 0.02928 0.61364   -0.16584
 C 0.8377 0.0243 0.569   0.676532
 C 0.02928 0.74344 0.61364   -0.16584
 C 0.0243 0.8377 0.569   0.676532
 C 0.02928 0.61364 0.74344   -0.16584
 C 0.0243 0.569 0.8377   0.676532
 C 0.74344 0.61364 0.02928   -0.16584
 C 0.8377 0.569 0.0243   0.676532
 C 0.61364 0.02928 0.61364   -0.16584
 C 0.569 0.0243 0.569   0.676532
 C 0.61364 0.74344 0.61364   -0.165839
 C 0.569 0.8377 0.569   0.676531
 C 0.74344 0.61364 0.61364   -0.165839
 C 0.8377 0.569 0.569   0.676531
 C 0.02928 0.61364 0.61364   -0.16584
 C 0.0243 0.569 0.569   0.676532
 C 0.61364 0.02928 0.74344   -0.16584
 C 0.569 0.0243 0.8377   0.676532
 C 0.61364 0.74344 0.02928   -0.16584
 C 0.569 0.8377 0.0243   0.676532
 C 0.42935 0.30005 0.97055   0.034232
 C 0.30005 0.42935 0.30005   0.034231
 C 0.97055 0.30005 0.42935   0.034232
 C 0.30005 0.97055 0.30005   0.034232
 C 0.42935 0.97055 0.30005   0.034232
 C 0.30005 0.30005 0.97055   0.034232
 C 0.97055 0.42935 0.30005   0.034232
 C 0.30005 0.30005 0.42935   0.034231
 C 0.42935 0.30005 0.30005   0.034231
 C 0.30005 0.97055 0.42935   0.034232
 C 0.97055 0.30005 0.30005   0.034232
 C 0.30005 0.42935 0.97055   0.034232
 C 0.69995 0.57065 0.02945   0.034232
 C 0.57065 0.69995 0.69995   0.034231
 C 0.69995 0.02945 0.57065   0.034232
 C 0.02945 0.69995 0.69995   0.034232
 C 0.02945 0.57065 0.69995   0.034232
 C 0.69995 0.69995 0.02945   0.034232
 C 0.57065 0.02945 0.69995   0.034232
 C 0.69995 0.69995 0.57065   0.034231
 C 0.69995 0.57065 0.69995   0.034231
 C 0.02945 0.69995 0.57065   0.034232
 C 0.69995 0.02945 0.69995   0.034232
 C 0.57065 0.69995 0.02945   0.034232
 O 0.38749 0.50809 0.97925   -0.561496
 O 0.50809 0.38749 0.12517   -0.561496
 O 0.97925 0.12517 0.38749   -0.561496
 O 0.12517 0.97925 0.50809   -0.561496
 O 0.38749 0.97925 0.12517   -0.561496
 O 0.50809 0.12517 0.97925   -0.561496
 O 0.97925 0.38749 0.50809   -0.561496
 O 0.12517 0.50809 0.38749   -0.561496
 O 0.38749 0.12517 0.50809   -0.561496
 O 0.50809 0.97925 0.38749   -0.561496
 O 0.97925 0.50809 0.12517   -0.561496
 O 0.12517 0.38749 0.97925   -0.561496
 O 0.49191 0.61251 0.02075   -0.561496
 O 0.61251 0.49191 0.87483   -0.561496
 O 0.87483 0.02075 0.61251   -0.561496
 O 0.02075 0.87483 0.49191   -0.561496
 O 0.02075 0.61251 0.87483   -0.561496
 O 0.87483 0.49191 0.02075   -0.561496
 O 0.61251 0.02075 0.49191   -0.561496
 O 0.49191 0.87483 0.61251   -0.561496
 O 0.87483 0.61251 0.49191   -0.561496
 O 0.02075 0.49191 0.61251   -0.561496
 O 0.49191 0.02075 0.87483   -0.561496
 O 0.61251 0.87483 0.02075   -0.561496
 O 0.61251 0.49191 0.02075   -0.561496
 O 0.49191 0.61251 0.87483   -0.561496
 O 0.02075 0.87483 0.61251   -0.561496
 O 0.87483 0.02075 0.49191   -0.561496
 O 0.61251 0.02075 0.87483   -0.561496
 O 0.49191 0.87483 0.02075   -0.561496
 O 0.02075 0.61251 0.49191   -0.561496
 O 0.87483 0.49191 0.61251   -0.561496
 O 0.61251 0.87483 0.49191   -0.561496
 O 0.49191 0.02075 0.61251   -0.561496
 O 0.02075 0.49191 0.87483   -0.561496
 O 0.87483 0.61251 0.02075   -0.561496
 O 0.50809 0.38749 0.97925   -0.561496
 O 0.38749 0.50809 0.12517   -0.561496
 O 0.12517 0.97925 0.38749   -0.561496
 O 0.97925 0.12517 0.50809   -0.561496
 O 0.97925 0.38749 0.12517   -0.561496
 O 0.12517 0.50809 0.97925   -0.561496
 O 0.38749 0.97925 0.50809   -0.561496
 O 0.50809 0.12517 0.38749   -0.561496
 O 0.12517 0.38749 0.50809   -0.561496
 O 0.97925 0.50809 0.38749   -0.561496
 O 0.50809 0.97925 0.12517   -0.561496
 O 0.38749 0.12517 0.97925   -0.561496
