{'_ref': 'TBD', '_srcid': 'CAKYAQ_clean', 'submitters': [{'name': 'Dalar Nazarian Jeff Camp and David Sholl', 'email': 'dalar@gatech.edu jcamp6@gatech.edu'}], '_method': 'VASP DFT with PBE;DDEC'}
data_CuH2(C3O2)2
_symmetry_space_group_name_H-M   'P 1'
_cell_length_a   18.58840033
_cell_length_b   18.58840000
_cell_length_c   18.58840000
_cell_angle_alpha   60.00000000
_cell_angle_beta   60.00000059
_cell_angle_gamma   59.99999980
_symmetry_Int_Tables_number   1
_chemical_formula_structural   CuH2(C3O2)2
_chemical_formula_sum   'Cu12 H24 C72 O48'
_cell_volume   4541.62256967
_cell_formula_units_Z   12
loop_
 _symmetry_equiv_pos_site_id
 _symmetry_equiv_pos_as_xyz
  1  'x, y, z'
loop_
 _atom_site_label
 _atom_site_fract_x
 _atom_site_fract_y
 _atom_site_fract_z
 _atom_site_charge
 Cu 0.43356 0.56644 0.0   0.910425
 Cu 0.56644 0.43356 0.0   0.910425
 Cu 0.0 0.0 0.43356   0.910424
 Cu 0.0 0.0 0.56644   0.910424
 Cu 0.43356 0.0 0.0   0.910424
 Cu 0.56644 0.0 0.0   0.910424
 Cu 0.0 0.43356 0.56644   0.910425
 Cu 0.0 0.56644 0.43356   0.910425
 Cu 0.43356 0.0 0.56644   0.910425
 Cu 0.56644 0.0 0.43356   0.910425
 Cu 0.0 0.56644 0.0   0.910424
 Cu 0.0 0.43356 0.0   0.910425
 H 0.50556 0.73407 0.0263   0.136994
 H 0.73407 0.50556 0.73407   0.136994
 H 0.0263 0.73407 0.50556   0.136994
 H 0.73407 0.0263 0.73407   0.136994
 H 0.50556 0.0263 0.73407   0.136994
 H 0.73407 0.73407 0.0263   0.136994
 H 0.0263 0.50556 0.73407   0.136994
 H 0.73407 0.73407 0.50556   0.136994
 H 0.50556 0.73407 0.73407   0.136994
 H 0.73407 0.0263 0.50556   0.136994
 H 0.0263 0.73407 0.73407   0.136994
 H 0.73407 0.50556 0.0263   0.136994
 H 0.26593 0.49444 0.9737   0.136994
 H 0.49444 0.26593 0.26593   0.136994
 H 0.26593 0.9737 0.49444   0.136994
 H 0.9737 0.26593 0.26593   0.136994
 H 0.9737 0.49444 0.26593   0.136994
 H 0.26593 0.26593 0.9737   0.136994
 H 0.49444 0.9737 0.26593   0.136994
 H 0.26593 0.26593 0.49444   0.136994
 H 0.26593 0.49444 0.26593   0.136994
 H 0.9737 0.26593 0.49444   0.136994
 H 0.26593 0.9737 0.26593   0.136994
 H 0.49444 0.26593 0.9737   0.136994
 C 0.61334 0.61334 0.0304   -0.139566
 C 0.56939 0.56939 0.02349   0.6513
 C 0.61334 0.61334 0.74292   -0.139565
 C 0.56939 0.56939 0.83773   0.651299
 C 0.0304 0.74292 0.61334   -0.139565
 C 0.02349 0.83773 0.56939   0.651299
 C 0.74292 0.0304 0.61334   -0.139565
 C 0.83773 0.02349 0.56939   0.651299
 C 0.61334 0.0304 0.74292   -0.139566
 C 0.56939 0.02349 0.83773   0.651299
 C 0.61334 0.74292 0.0304   -0.139566
 C 0.56939 0.83773 0.02349   0.651299
 C 0.0304 0.61334 0.61334   -0.139566
 C 0.02349 0.56939 0.56939   0.6513
 C 0.74292 0.61334 0.61334   -0.139565
 C 0.83773 0.56939 0.56939   0.651299
 C 0.61334 0.74292 0.61334   -0.139565
 C 0.56939 0.83773 0.56939   0.651299
 C 0.61334 0.0304 0.61334   -0.139566
 C 0.56939 0.02349 0.56939   0.6513
 C 0.0304 0.61334 0.74292   -0.139566
 C 0.02349 0.56939 0.83773   0.651299
 C 0.74292 0.61334 0.0304   -0.139566
 C 0.83773 0.56939 0.02349   0.651299
 C 0.38666 0.38666 0.9696   -0.139566
 C 0.43061 0.43061 0.97651   0.6513
 C 0.38666 0.38666 0.25708   -0.139565
 C 0.43061 0.43061 0.16227   0.651299
 C 0.25708 0.9696 0.38666   -0.139566
 C 0.16227 0.97651 0.43061   0.651299
 C 0.9696 0.25708 0.38666   -0.139566
 C 0.97651 0.16227 0.43061   0.651299
 C 0.9696 0.38666 0.25708   -0.139566
 C 0.97651 0.43061 0.16227   0.651299
 C 0.25708 0.38666 0.9696   -0.139566
 C 0.16227 0.43061 0.97651   0.651299
 C 0.38666 0.9696 0.38666   -0.139566
 C 0.43061 0.97651 0.43061   0.6513
 C 0.38666 0.25708 0.38666   -0.139565
 C 0.43061 0.16227 0.43061   0.651299
 C 0.25708 0.38666 0.38666   -0.139565
 C 0.16227 0.43061 0.43061   0.651299
 C 0.9696 0.38666 0.38666   -0.139566
 C 0.97651 0.43061 0.43061   0.6513
 C 0.38666 0.9696 0.25708   -0.139566
 C 0.43061 0.97651 0.16227   0.651299
 C 0.38666 0.25708 0.9696   -0.139566
 C 0.43061 0.16227 0.97651   0.651299
 C 0.56877 0.70129 0.02865   0.002077
 C 0.70129 0.56877 0.70129   0.002077
 C 0.02865 0.70129 0.56877   0.002077
 C 0.70129 0.02865 0.70129   0.002077
 C 0.56877 0.02865 0.70129   0.002077
 C 0.70129 0.70129 0.02865   0.002077
 C 0.02865 0.56877 0.70129   0.002077
 C 0.70129 0.70129 0.56877   0.002077
 C 0.56877 0.70129 0.70129   0.002077
 C 0.70129 0.02865 0.56877   0.002077
 C 0.02865 0.70129 0.70129   0.002077
 C 0.70129 0.56877 0.02865   0.002077
 C 0.29871 0.43123 0.97135   0.002077
 C 0.43123 0.29871 0.29871   0.002076
 C 0.29871 0.97135 0.43123   0.002077
 C 0.97135 0.29871 0.29871   0.002077
 C 0.97135 0.43123 0.29871   0.002077
 C 0.29871 0.29871 0.97135   0.002077
 C 0.43123 0.97135 0.29871   0.002077
 C 0.29871 0.29871 0.43123   0.002076
 C 0.29871 0.43123 0.29871   0.002076
 C 0.97135 0.29871 0.43123   0.002077
 C 0.29871 0.97135 0.29871   0.002077
 C 0.43123 0.29871 0.97135   0.002077
 O 0.49132 0.6137 0.02026   -0.553009
 O 0.6137 0.49132 0.87472   -0.553009
 O 0.02026 0.87472 0.49132   -0.553008
 O 0.87472 0.02026 0.6137   -0.553009
 O 0.49132 0.02026 0.87472   -0.553008
 O 0.6137 0.87472 0.02026   -0.553009
 O 0.02026 0.49132 0.6137   -0.553009
 O 0.87472 0.6137 0.49132   -0.553009
 O 0.49132 0.87472 0.6137   -0.553009
 O 0.6137 0.02026 0.49132   -0.553009
 O 0.02026 0.6137 0.87472   -0.553009
 O 0.87472 0.49132 0.02026   -0.553009
 O 0.3863 0.50868 0.97974   -0.553009
 O 0.50868 0.3863 0.12528   -0.553009
 O 0.12528 0.97974 0.50868   -0.553008
 O 0.97974 0.12528 0.3863   -0.553009
 O 0.97974 0.50868 0.12528   -0.553008
 O 0.12528 0.3863 0.97974   -0.553009
 O 0.50868 0.97974 0.3863   -0.553009
 O 0.3863 0.12528 0.50868   -0.553008
 O 0.12528 0.50868 0.3863   -0.553009
 O 0.97974 0.3863 0.50868   -0.553009
 O 0.3863 0.97974 0.12528   -0.553009
 O 0.50868 0.12528 0.97974   -0.553008
 O 0.50868 0.3863 0.97974   -0.553009
 O 0.3863 0.50868 0.12528   -0.553009
 O 0.97974 0.12528 0.50868   -0.553008
 O 0.12528 0.97974 0.3863   -0.553009
 O 0.50868 0.97974 0.12528   -0.553008
 O 0.3863 0.12528 0.97974   -0.553009
 O 0.97974 0.50868 0.3863   -0.553009
 O 0.12528 0.3863 0.50868   -0.553009
 O 0.50868 0.12528 0.3863   -0.553009
 O 0.3863 0.97974 0.50868   -0.553009
 O 0.97974 0.3863 0.12528   -0.553009
 O 0.12528 0.50868 0.97974   -0.553009
 O 0.6137 0.49132 0.02026   -0.553009
 O 0.49132 0.6137 0.87472   -0.553009
 O 0.87472 0.02026 0.49132   -0.553009
 O 0.02026 0.87472 0.6137   -0.553009
 O 0.02026 0.49132 0.87472   -0.553009
 O 0.87472 0.6137 0.02026   -0.553009
 O 0.49132 0.02026 0.6137   -0.553009
 O 0.6137 0.87472 0.49132   -0.553009
 O 0.87472 0.49132 0.6137   -0.553009
 O 0.02026 0.6137 0.49132   -0.553009
 O 0.6137 0.02026 0.87472   -0.553009
 O 0.49132 0.87472 0.02026   -0.553009
