{'_ref': 'TBD', '_srcid': 'CAKYAQ_clean', 'submitters': [{'name': 'Dalar Nazarian Jeff Camp and David Sholl', 'email': 'dalar@gatech.edu jcamp6@gatech.edu'}], '_method': 'VASP DFT with PBE;DDEC'}
data_CuH2(C3O2)2
_symmetry_space_group_name_H-M   'P 1'
_cell_length_a   18.58069981
_cell_length_b   18.58069996
_cell_length_c   18.58070000
_cell_angle_alpha   59.99999993
_cell_angle_beta   59.99999966
_cell_angle_gamma   60.00000004
_symmetry_Int_Tables_number   1
_chemical_formula_structural   CuH2(C3O2)2
_chemical_formula_sum   'Cu12 H24 C72 O48'
_cell_volume   4535.98082192
_cell_formula_units_Z   12
loop_
 _symmetry_equiv_pos_site_id
 _symmetry_equiv_pos_as_xyz
  1  'x, y, z'
loop_
 _atom_site_label
 _atom_site_fract_x
 _atom_site_fract_y
 _atom_site_fract_z
 _atom_site_charge
 Cu 0.43287 0.56713 0.0   0.921391
 Cu 0.56713 0.43287 0.0   0.921391
 Cu 0.0 0.0 0.43287   0.92139
 Cu 0.0 0.0 0.56713   0.92139
 Cu 0.43287 0.0 0.0   0.92139
 Cu 0.56713 0.0 0.0   0.92139
 Cu 0.0 0.43287 0.56713   0.921391
 Cu 0.0 0.56713 0.43287   0.921391
 Cu 0.43287 0.0 0.56713   0.921391
 Cu 0.56713 0.0 0.43287   0.921391
 Cu 0.0 0.56713 0.0   0.92139
 Cu 0.0 0.43287 0.0   0.92139
 H 0.4888 0.2706 0.97   0.118104
 H 0.2706 0.4888 0.2706   0.118104
 H 0.97 0.2706 0.4888   0.118104
 H 0.2706 0.97 0.2706   0.118104
 H 0.4888 0.97 0.2706   0.118104
 H 0.2706 0.2706 0.97   0.118104
 H 0.97 0.4888 0.2706   0.118104
 H 0.2706 0.2706 0.4888   0.118104
 H 0.4888 0.2706 0.2706   0.118104
 H 0.2706 0.97 0.4888   0.118104
 H 0.97 0.2706 0.2706   0.118104
 H 0.2706 0.4888 0.97   0.118104
 H 0.7294 0.5112 0.03   0.118104
 H 0.5112 0.7294 0.7294   0.118104
 H 0.7294 0.03 0.5112   0.118104
 H 0.03 0.7294 0.7294   0.118104
 H 0.03 0.5112 0.7294   0.118104
 H 0.7294 0.7294 0.03   0.118104
 H 0.5112 0.03 0.7294   0.118104
 H 0.7294 0.7294 0.5112   0.118104
 H 0.7294 0.5112 0.7294   0.118104
 H 0.03 0.7294 0.5112   0.118104
 H 0.7294 0.03 0.7294   0.118104
 H 0.5112 0.7294 0.03   0.118104
 C 0.3864 0.3864 0.97062   -0.16196
 C 0.43106 0.43106 0.9759   0.672422
 C 0.3864 0.3864 0.25658   -0.16196
 C 0.43106 0.43106 0.16198   0.672422
 C 0.97062 0.25658 0.3864   -0.16196
 C 0.9759 0.16198 0.43106   0.672422
 C 0.25658 0.97062 0.3864   -0.16196
 C 0.16198 0.9759 0.43106   0.672422
 C 0.3864 0.97062 0.25658   -0.16196
 C 0.43106 0.9759 0.16198   0.672422
 C 0.3864 0.25658 0.97062   -0.16196
 C 0.43106 0.16198 0.9759   0.672422
 C 0.97062 0.3864 0.3864   -0.16196
 C 0.9759 0.43106 0.43106   0.672422
 C 0.25658 0.3864 0.3864   -0.16196
 C 0.16198 0.43106 0.43106   0.672422
 C 0.3864 0.25658 0.3864   -0.16196
 C 0.43106 0.16198 0.43106   0.672422
 C 0.3864 0.97062 0.3864   -0.16196
 C 0.43106 0.9759 0.43106   0.672422
 C 0.97062 0.3864 0.25658   -0.16196
 C 0.9759 0.43106 0.16198   0.672422
 C 0.25658 0.3864 0.97062   -0.16196
 C 0.16198 0.43106 0.9759   0.672422
 C 0.6136 0.6136 0.02938   -0.16196
 C 0.56894 0.56894 0.0241   0.672422
 C 0.6136 0.6136 0.74342   -0.16196
 C 0.56894 0.56894 0.83802   0.672422
 C 0.74342 0.02938 0.6136   -0.16196
 C 0.83802 0.0241 0.56894   0.672422
 C 0.02938 0.74342 0.6136   -0.16196
 C 0.0241 0.83802 0.56894   0.672422
 C 0.02938 0.6136 0.74342   -0.16196
 C 0.0241 0.56894 0.83802   0.672422
 C 0.74342 0.6136 0.02938   -0.16196
 C 0.83802 0.56894 0.0241   0.672422
 C 0.6136 0.02938 0.6136   -0.16196
 C 0.56894 0.0241 0.56894   0.672422
 C 0.6136 0.74342 0.6136   -0.16196
 C 0.56894 0.83802 0.56894   0.672422
 C 0.74342 0.6136 0.6136   -0.16196
 C 0.83802 0.56894 0.56894   0.672422
 C 0.02938 0.6136 0.6136   -0.16196
 C 0.0241 0.56894 0.56894   0.672422
 C 0.6136 0.02938 0.74342   -0.16196
 C 0.56894 0.0241 0.83802   0.672422
 C 0.6136 0.74342 0.02938   -0.16196
 C 0.56894 0.83802 0.0241   0.672422
 C 0.42967 0.29999 0.97035   0.029047
 C 0.29999 0.42967 0.29999   0.029047
 C 0.97035 0.29999 0.42967   0.029047
 C 0.29999 0.97035 0.29999   0.029048
 C 0.42967 0.97035 0.29999   0.029047
 C 0.29999 0.29999 0.97035   0.029048
 C 0.97035 0.42967 0.29999   0.029047
 C 0.29999 0.29999 0.42967   0.029047
 C 0.42967 0.29999 0.29999   0.029047
 C 0.29999 0.97035 0.42967   0.029047
 C 0.97035 0.29999 0.29999   0.029048
 C 0.29999 0.42967 0.97035   0.029047
 C 0.70001 0.57033 0.02965   0.029047
 C 0.57033 0.70001 0.70001   0.029047
 C 0.70001 0.02965 0.57033   0.029047
 C 0.02965 0.70001 0.70001   0.029047
 C 0.02965 0.57033 0.70001   0.029047
 C 0.70001 0.70001 0.02965   0.029047
 C 0.57033 0.02965 0.70001   0.029047
 C 0.70001 0.70001 0.57033   0.029047
 C 0.70001 0.57033 0.70001   0.029047
 C 0.02965 0.70001 0.57033   0.029047
 C 0.70001 0.02965 0.70001   0.029047
 C 0.57033 0.70001 0.02965   0.029047
 O 0.38739 0.50817 0.97929   -0.559154
 O 0.50817 0.38739 0.12515   -0.559154
 O 0.97929 0.12515 0.38739   -0.559154
 O 0.12515 0.97929 0.50817   -0.559154
 O 0.38739 0.97929 0.12515   -0.559154
 O 0.50817 0.12515 0.97929   -0.559154
 O 0.97929 0.38739 0.50817   -0.559154
 O 0.12515 0.50817 0.38739   -0.559154
 O 0.38739 0.12515 0.50817   -0.559154
 O 0.50817 0.97929 0.38739   -0.559154
 O 0.97929 0.50817 0.12515   -0.559154
 O 0.12515 0.38739 0.97929   -0.559154
 O 0.49183 0.61261 0.02071   -0.559154
 O 0.61261 0.49183 0.87485   -0.559154
 O 0.87485 0.02071 0.61261   -0.559154
 O 0.02071 0.87485 0.49183   -0.559154
 O 0.02071 0.61261 0.87485   -0.559154
 O 0.87485 0.49183 0.02071   -0.559154
 O 0.61261 0.02071 0.49183   -0.559154
 O 0.49183 0.87485 0.61261   -0.559154
 O 0.87485 0.61261 0.49183   -0.559154
 O 0.02071 0.49183 0.61261   -0.559154
 O 0.49183 0.02071 0.87485   -0.559154
 O 0.61261 0.87485 0.02071   -0.559154
 O 0.61261 0.49183 0.02071   -0.559154
 O 0.49183 0.61261 0.87485   -0.559154
 O 0.02071 0.87485 0.61261   -0.559154
 O 0.87485 0.02071 0.49183   -0.559154
 O 0.61261 0.02071 0.87485   -0.559154
 O 0.49183 0.87485 0.02071   -0.559154
 O 0.02071 0.61261 0.49183   -0.559154
 O 0.87485 0.49183 0.61261   -0.559154
 O 0.61261 0.87485 0.49183   -0.559154
 O 0.49183 0.02071 0.61261   -0.559154
 O 0.02071 0.49183 0.87485   -0.559154
 O 0.87485 0.61261 0.02071   -0.559154
 O 0.50817 0.38739 0.97929   -0.559154
 O 0.38739 0.50817 0.12515   -0.559154
 O 0.12515 0.97929 0.38739   -0.559154
 O 0.97929 0.12515 0.50817   -0.559154
 O 0.97929 0.38739 0.12515   -0.559154
 O 0.12515 0.50817 0.97929   -0.559154
 O 0.38739 0.97929 0.50817   -0.559154
 O 0.50817 0.12515 0.38739   -0.559154
 O 0.12515 0.38739 0.50817   -0.559154
 O 0.97929 0.50817 0.38739   -0.559154
 O 0.50817 0.97929 0.12515   -0.559154
 O 0.38739 0.12515 0.97929   -0.559154
