{'_ref': 'TBD', '_srcid': 'CAKYAQ_clean', 'submitters': [{'name': 'Dalar Nazarian Jeff Camp and David Sholl', 'email': 'dalar@gatech.edu jcamp6@gatech.edu'}], '_method': 'VASP DFT with PBE;DDEC'}
data_CuH2(C3O2)2
_symmetry_space_group_name_H-M   'P 1'
_cell_length_a   18.57150018
_cell_length_b   18.57149972
_cell_length_c   18.57150000
_cell_angle_alpha   59.99999950
_cell_angle_beta   60.00000033
_cell_angle_gamma   60.00000042
_symmetry_Int_Tables_number   1
_chemical_formula_structural   CuH2(C3O2)2
_chemical_formula_sum   'Cu12 H24 C72 O48'
_cell_volume   4529.24640885
_cell_formula_units_Z   12
loop_
 _symmetry_equiv_pos_site_id
 _symmetry_equiv_pos_as_xyz
  1  'x, y, z'
loop_
 _atom_site_label
 _atom_site_fract_x
 _atom_site_fract_y
 _atom_site_fract_z
 _atom_site_charge
 Cu 0.43277 0.56723 0.0   0.925585
 Cu 0.56723 0.43277 0.0   0.925584
 Cu 0.0 0.0 0.43277   0.925585
 Cu 0.0 0.0 0.56723   0.925584
 Cu 0.43277 0.0 0.0   0.925585
 Cu 0.56723 0.0 0.0   0.925584
 Cu 0.0 0.43277 0.56723   0.925585
 Cu 0.0 0.56723 0.43277   0.925584
 Cu 0.43277 0.0 0.56723   0.925585
 Cu 0.56723 0.0 0.43277   0.925585
 Cu 0.0 0.56723 0.0   0.925585
 Cu 0.0 0.43277 0.0   0.925584
 H 0.4886 0.2704 0.9706   0.117647
 H 0.2704 0.4886 0.2704   0.117647
 H 0.9706 0.2704 0.4886   0.117647
 H 0.2704 0.9706 0.2704   0.117647
 H 0.4886 0.9706 0.2704   0.117647
 H 0.2704 0.2704 0.9706   0.117647
 H 0.9706 0.4886 0.2704   0.117647
 H 0.2704 0.2704 0.4886   0.117647
 H 0.4886 0.2704 0.2704   0.117647
 H 0.2704 0.9706 0.4886   0.117647
 H 0.9706 0.2704 0.2704   0.117647
 H 0.2704 0.4886 0.9706   0.117647
 H 0.7296 0.5114 0.0294   0.117647
 H 0.5114 0.7296 0.7296   0.117647
 H 0.7296 0.0294 0.5114   0.117647
 H 0.0294 0.7296 0.7296   0.117647
 H 0.0294 0.5114 0.7296   0.117647
 H 0.7296 0.7296 0.0294   0.117647
 H 0.5114 0.0294 0.7296   0.117647
 H 0.7296 0.7296 0.5114   0.117647
 H 0.7296 0.5114 0.7296   0.117647
 H 0.0294 0.7296 0.5114   0.117647
 H 0.7296 0.0294 0.7296   0.117647
 H 0.5114 0.7296 0.0294   0.117647
 C 0.38634 0.38634 0.97076   -0.162905
 C 0.43096 0.43096 0.9758   0.677446
 C 0.38634 0.38634 0.25656   -0.162905
 C 0.43096 0.43096 0.16228   0.677445
 C 0.97076 0.25656 0.38634   -0.162905
 C 0.9758 0.16228 0.43096   0.677446
 C 0.25656 0.97076 0.38634   -0.162905
 C 0.16228 0.9758 0.43096   0.677446
 C 0.38634 0.97076 0.25656   -0.162905
 C 0.43096 0.9758 0.16228   0.677446
 C 0.38634 0.25656 0.97076   -0.162905
 C 0.43096 0.16228 0.9758   0.677446
 C 0.97076 0.38634 0.38634   -0.162905
 C 0.9758 0.43096 0.43096   0.677446
 C 0.25656 0.38634 0.38634   -0.162905
 C 0.16228 0.43096 0.43096   0.677445
 C 0.38634 0.25656 0.38634   -0.162905
 C 0.43096 0.16228 0.43096   0.677445
 C 0.38634 0.97076 0.38634   -0.162905
 C 0.43096 0.9758 0.43096   0.677446
 C 0.97076 0.38634 0.25656   -0.162905
 C 0.9758 0.43096 0.16228   0.677446
 C 0.25656 0.38634 0.97076   -0.162905
 C 0.16228 0.43096 0.9758   0.677446
 C 0.61366 0.61366 0.02924   -0.162905
 C 0.56904 0.56904 0.0242   0.677446
 C 0.61366 0.61366 0.74344   -0.162905
 C 0.56904 0.56904 0.83772   0.677445
 C 0.74344 0.02924 0.61366   -0.162905
 C 0.83772 0.0242 0.56904   0.677445
 C 0.02924 0.74344 0.61366   -0.162905
 C 0.0242 0.83772 0.56904   0.677445
 C 0.02924 0.61366 0.74344   -0.162905
 C 0.0242 0.56904 0.83772   0.677445
 C 0.74344 0.61366 0.02924   -0.162905
 C 0.83772 0.56904 0.0242   0.677445
 C 0.61366 0.02924 0.61366   -0.162905
 C 0.56904 0.0242 0.56904   0.677446
 C 0.61366 0.74344 0.61366   -0.162905
 C 0.56904 0.83772 0.56904   0.677445
 C 0.74344 0.61366 0.61366   -0.162905
 C 0.83772 0.56904 0.56904   0.677445
 C 0.02924 0.61366 0.61366   -0.162905
 C 0.0242 0.56904 0.56904   0.677446
 C 0.61366 0.02924 0.74344   -0.162905
 C 0.56904 0.0242 0.83772   0.677445
 C 0.61366 0.74344 0.02924   -0.162905
 C 0.56904 0.83772 0.0242   0.677445
 C 0.42939 0.29995 0.97071   0.02988
 C 0.29995 0.42939 0.29995   0.029879
 C 0.97071 0.29995 0.42939   0.02988
 C 0.29995 0.97071 0.29995   0.02988
 C 0.42939 0.97071 0.29995   0.02988
 C 0.29995 0.29995 0.97071   0.02988
 C 0.97071 0.42939 0.29995   0.02988
 C 0.29995 0.29995 0.42939   0.029879
 C 0.42939 0.29995 0.29995   0.029879
 C 0.29995 0.97071 0.42939   0.02988
 C 0.97071 0.29995 0.29995   0.02988
 C 0.29995 0.42939 0.97071   0.02988
 C 0.70005 0.57061 0.02929   0.02988
 C 0.57061 0.70005 0.70005   0.029879
 C 0.70005 0.02929 0.57061   0.02988
 C 0.02929 0.70005 0.70005   0.02988
 C 0.02929 0.57061 0.70005   0.02988
 C 0.70005 0.70005 0.02929   0.02988
 C 0.57061 0.02929 0.70005   0.02988
 C 0.70005 0.70005 0.57061   0.029879
 C 0.70005 0.57061 0.70005   0.029879
 C 0.02929 0.70005 0.57061   0.02988
 C 0.70005 0.02929 0.70005   0.02988
 C 0.57061 0.70005 0.02929   0.02988
 O 0.38748 0.508 0.97934   -0.56243
 O 0.508 0.38748 0.12518   -0.562429
 O 0.97934 0.12518 0.38748   -0.56243
 O 0.12518 0.97934 0.508   -0.562429
 O 0.38748 0.97934 0.12518   -0.56243
 O 0.508 0.12518 0.97934   -0.562429
 O 0.97934 0.38748 0.508   -0.56243
 O 0.12518 0.508 0.38748   -0.562429
 O 0.38748 0.12518 0.508   -0.56243
 O 0.508 0.97934 0.38748   -0.56243
 O 0.97934 0.508 0.12518   -0.56243
 O 0.12518 0.38748 0.97934   -0.56243
 O 0.492 0.61252 0.02066   -0.56243
 O 0.61252 0.492 0.87482   -0.562429
 O 0.87482 0.02066 0.61252   -0.56243
 O 0.02066 0.87482 0.492   -0.562429
 O 0.02066 0.61252 0.87482   -0.56243
 O 0.87482 0.492 0.02066   -0.562429
 O 0.61252 0.02066 0.492   -0.56243
 O 0.492 0.87482 0.61252   -0.562429
 O 0.87482 0.61252 0.492   -0.562429
 O 0.02066 0.492 0.61252   -0.56243
 O 0.492 0.02066 0.87482   -0.562429
 O 0.61252 0.87482 0.02066   -0.56243
 O 0.61252 0.492 0.02066   -0.56243
 O 0.492 0.61252 0.87482   -0.562429
 O 0.02066 0.87482 0.61252   -0.56243
 O 0.87482 0.02066 0.492   -0.56243
 O 0.61252 0.02066 0.87482   -0.56243
 O 0.492 0.87482 0.02066   -0.56243
 O 0.02066 0.61252 0.492   -0.56243
 O 0.87482 0.492 0.61252   -0.56243
 O 0.61252 0.87482 0.492   -0.56243
 O 0.492 0.02066 0.61252   -0.56243
 O 0.02066 0.492 0.87482   -0.56243
 O 0.87482 0.61252 0.02066   -0.56243
 O 0.508 0.38748 0.97934   -0.56243
 O 0.38748 0.508 0.12518   -0.56243
 O 0.12518 0.97934 0.38748   -0.56243
 O 0.97934 0.12518 0.508   -0.56243
 O 0.97934 0.38748 0.12518   -0.56243
 O 0.12518 0.508 0.97934   -0.56243
 O 0.38748 0.97934 0.508   -0.56243
 O 0.508 0.12518 0.38748   -0.56243
 O 0.12518 0.38748 0.508   -0.56243
 O 0.97934 0.508 0.38748   -0.56243
 O 0.508 0.97934 0.12518   -0.56243
 O 0.38748 0.12518 0.97934   -0.56243
