{'_ref': 'TBD', '_srcid': 'CAKYAQ_clean', 'submitters': [{'name': 'Dalar Nazarian Jeff Camp and David Sholl', 'email': 'dalar@gatech.edu jcamp6@gatech.edu'}], '_method': 'VASP DFT with PBE;DDEC'}
data_CuH2(C3O2)2
_symmetry_space_group_name_H-M   'P 1'
_cell_length_a   18.57650007
_cell_length_b   18.57650032
_cell_length_c   18.57650000
_cell_angle_alpha   60.00000057
_cell_angle_beta   60.00000013
_cell_angle_gamma   59.99999950
_symmetry_Int_Tables_number   1
_chemical_formula_structural   CuH2(C3O2)2
_chemical_formula_sum   'Cu12 H24 C72 O48'
_cell_volume   4532.90573601
_cell_formula_units_Z   12
loop_
 _symmetry_equiv_pos_site_id
 _symmetry_equiv_pos_as_xyz
  1  'x, y, z'
loop_
 _atom_site_label
 _atom_site_fract_x
 _atom_site_fract_y
 _atom_site_fract_z
 _atom_site_charge
 Cu 0.43285 0.56715 0.0   0.925249
 Cu 0.56715 0.43285 0.0   0.925248
 Cu 0.0 0.0 0.43285   0.925249
 Cu 0.0 0.0 0.56715   0.925248
 Cu 0.43285 0.0 0.0   0.925249
 Cu 0.56715 0.0 0.0   0.925248
 Cu 0.0 0.43285 0.56715   0.925249
 Cu 0.0 0.56715 0.43285   0.925248
 Cu 0.43285 0.0 0.56715   0.925249
 Cu 0.56715 0.0 0.43285   0.925249
 Cu 0.0 0.56715 0.0   0.925249
 Cu 0.0 0.43285 0.0   0.925248
 H 0.4884 0.2706 0.9704   0.117328
 H 0.2706 0.4884 0.2706   0.117329
 H 0.9704 0.2706 0.4884   0.117328
 H 0.2706 0.9704 0.2706   0.117328
 H 0.4884 0.9704 0.2706   0.117328
 H 0.2706 0.2706 0.9704   0.117328
 H 0.9704 0.4884 0.2706   0.117328
 H 0.2706 0.2706 0.4884   0.117329
 H 0.4884 0.2706 0.2706   0.117329
 H 0.2706 0.9704 0.4884   0.117328
 H 0.9704 0.2706 0.2706   0.117328
 H 0.2706 0.4884 0.9704   0.117328
 H 0.7294 0.5116 0.0296   0.117328
 H 0.5116 0.7294 0.7294   0.117328
 H 0.7294 0.0296 0.5116   0.117328
 H 0.0296 0.7294 0.7294   0.117328
 H 0.0296 0.5116 0.7294   0.117328
 H 0.7294 0.7294 0.0296   0.117328
 H 0.5116 0.0296 0.7294   0.117328
 H 0.7294 0.7294 0.5116   0.117328
 H 0.7294 0.5116 0.7294   0.117329
 H 0.0296 0.7294 0.5116   0.117328
 H 0.7294 0.0296 0.7294   0.117328
 H 0.5116 0.7294 0.0296   0.117328
 C 0.38645 0.38645 0.97061   -0.163802
 C 0.43097 0.43097 0.97573   0.675881
 C 0.38645 0.38645 0.25649   -0.163801
 C 0.43097 0.43097 0.16233   0.675881
 C 0.97061 0.25649 0.38645   -0.163802
 C 0.97573 0.16233 0.43097   0.675881
 C 0.25649 0.97061 0.38645   -0.163802
 C 0.16233 0.97573 0.43097   0.675881
 C 0.38645 0.97061 0.25649   -0.163802
 C 0.43097 0.97573 0.16233   0.675881
 C 0.38645 0.25649 0.97061   -0.163802
 C 0.43097 0.16233 0.97573   0.675881
 C 0.97061 0.38645 0.38645   -0.163802
 C 0.97573 0.43097 0.43097   0.675881
 C 0.25649 0.38645 0.38645   -0.163802
 C 0.16233 0.43097 0.43097   0.675881
 C 0.38645 0.25649 0.38645   -0.163802
 C 0.43097 0.16233 0.43097   0.675881
 C 0.38645 0.97061 0.38645   -0.163802
 C 0.43097 0.97573 0.43097   0.675881
 C 0.97061 0.38645 0.25649   -0.163802
 C 0.97573 0.43097 0.16233   0.675881
 C 0.25649 0.38645 0.97061   -0.163802
 C 0.16233 0.43097 0.97573   0.675881
 C 0.61355 0.61355 0.02939   -0.163802
 C 0.56903 0.56903 0.02427   0.675881
 C 0.61355 0.61355 0.74351   -0.163801
 C 0.56903 0.56903 0.83767   0.675881
 C 0.74351 0.02939 0.61355   -0.163802
 C 0.83767 0.02427 0.56903   0.675881
 C 0.02939 0.74351 0.61355   -0.163802
 C 0.02427 0.83767 0.56903   0.675881
 C 0.02939 0.61355 0.74351   -0.163802
 C 0.02427 0.56903 0.83767   0.675881
 C 0.74351 0.61355 0.02939   -0.163802
 C 0.83767 0.56903 0.02427   0.675881
 C 0.61355 0.02939 0.61355   -0.163802
 C 0.56903 0.02427 0.56903   0.675881
 C 0.61355 0.74351 0.61355   -0.163802
 C 0.56903 0.83767 0.56903   0.675881
 C 0.74351 0.61355 0.61355   -0.163802
 C 0.83767 0.56903 0.56903   0.675881
 C 0.02939 0.61355 0.61355   -0.163802
 C 0.02427 0.56903 0.56903   0.675881
 C 0.61355 0.02939 0.74351   -0.163802
 C 0.56903 0.02427 0.83767   0.675881
 C 0.61355 0.74351 0.02939   -0.163802
 C 0.56903 0.83767 0.02427   0.675881
 C 0.42942 0.30004 0.9705   0.031474
 C 0.30004 0.42942 0.30004   0.031474
 C 0.9705 0.30004 0.42942   0.031474
 C 0.30004 0.9705 0.30004   0.031474
 C 0.42942 0.9705 0.30004   0.031474
 C 0.30004 0.30004 0.9705   0.031474
 C 0.9705 0.42942 0.30004   0.031474
 C 0.30004 0.30004 0.42942   0.031474
 C 0.42942 0.30004 0.30004   0.031474
 C 0.30004 0.9705 0.42942   0.031474
 C 0.9705 0.30004 0.30004   0.031474
 C 0.30004 0.42942 0.9705   0.031474
 C 0.69996 0.57058 0.0295   0.031474
 C 0.57058 0.69996 0.69996   0.031473
 C 0.69996 0.0295 0.57058   0.031474
 C 0.0295 0.69996 0.69996   0.031474
 C 0.0295 0.57058 0.69996   0.031474
 C 0.69996 0.69996 0.0295   0.031474
 C 0.57058 0.0295 0.69996   0.031474
 C 0.69996 0.69996 0.57058   0.031473
 C 0.69996 0.57058 0.69996   0.031473
 C 0.0295 0.69996 0.57058   0.031474
 C 0.69996 0.0295 0.69996   0.031474
 C 0.57058 0.69996 0.0295   0.031474
 O 0.38743 0.50813 0.97929   -0.561753
 O 0.50813 0.38743 0.12515   -0.561753
 O 0.97929 0.12515 0.38743   -0.561753
 O 0.12515 0.97929 0.50813   -0.561753
 O 0.38743 0.97929 0.12515   -0.561753
 O 0.50813 0.12515 0.97929   -0.561753
 O 0.97929 0.38743 0.50813   -0.561753
 O 0.12515 0.50813 0.38743   -0.561753
 O 0.38743 0.12515 0.50813   -0.561753
 O 0.50813 0.97929 0.38743   -0.561753
 O 0.97929 0.50813 0.12515   -0.561753
 O 0.12515 0.38743 0.97929   -0.561753
 O 0.49187 0.61257 0.02071   -0.561753
 O 0.61257 0.49187 0.87485   -0.561753
 O 0.87485 0.02071 0.61257   -0.561753
 O 0.02071 0.87485 0.49187   -0.561753
 O 0.02071 0.61257 0.87485   -0.561753
 O 0.87485 0.49187 0.02071   -0.561753
 O 0.61257 0.02071 0.49187   -0.561753
 O 0.49187 0.87485 0.61257   -0.561753
 O 0.87485 0.61257 0.49187   -0.561753
 O 0.02071 0.49187 0.61257   -0.561753
 O 0.49187 0.02071 0.87485   -0.561753
 O 0.61257 0.87485 0.02071   -0.561753
 O 0.61257 0.49187 0.02071   -0.561753
 O 0.49187 0.61257 0.87485   -0.561753
 O 0.02071 0.87485 0.61257   -0.561753
 O 0.87485 0.02071 0.49187   -0.561753
 O 0.61257 0.02071 0.87485   -0.561753
 O 0.49187 0.87485 0.02071   -0.561753
 O 0.02071 0.61257 0.49187   -0.561753
 O 0.87485 0.49187 0.61257   -0.561753
 O 0.61257 0.87485 0.49187   -0.561753
 O 0.49187 0.02071 0.61257   -0.561753
 O 0.02071 0.49187 0.87485   -0.561753
 O 0.87485 0.61257 0.02071   -0.561753
 O 0.50813 0.38743 0.97929   -0.561753
 O 0.38743 0.50813 0.12515   -0.561753
 O 0.12515 0.97929 0.38743   -0.561753
 O 0.97929 0.12515 0.50813   -0.561753
 O 0.97929 0.38743 0.12515   -0.561753
 O 0.12515 0.50813 0.97929   -0.561753
 O 0.38743 0.97929 0.50813   -0.561753
 O 0.50813 0.12515 0.38743   -0.561753
 O 0.12515 0.38743 0.50813   -0.561753
 O 0.97929 0.50813 0.38743   -0.561753
 O 0.50813 0.97929 0.12515   -0.561753
 O 0.38743 0.12515 0.97929   -0.561753
