{'_ref': 'TBD', '_srcid': 'CAKYAQ_clean', 'submitters': [{'name': 'Dalar Nazarian Jeff Camp and David Sholl', 'email': 'dalar@gatech.edu jcamp6@gatech.edu'}], '_method': 'VASP DFT with PBE;DDEC'}
data_CuH2(C3O2)2
_symmetry_space_group_name_H-M   'P 1'
_cell_length_a   18.57580026
_cell_length_b   18.57579997
_cell_length_c   18.57580000
_cell_angle_alpha   59.99999995
_cell_angle_beta   60.00000047
_cell_angle_gamma   59.99999877
_symmetry_Int_Tables_number   1
_chemical_formula_structural   CuH2(C3O2)2
_chemical_formula_sum   'Cu12 H24 C72 O48'
_cell_volume   4532.39325439
_cell_formula_units_Z   12
loop_
 _symmetry_equiv_pos_site_id
 _symmetry_equiv_pos_as_xyz
  1  'x, y, z'
loop_
 _atom_site_label
 _atom_site_fract_x
 _atom_site_fract_y
 _atom_site_fract_z
 _atom_site_charge
 Cu 0.43283 0.56717 0.0   0.925553
 Cu 0.56717 0.43283 0.0   0.925552
 Cu 0.0 0.0 0.43283   0.925552
 Cu 0.0 0.0 0.56717   0.925552
 Cu 0.43283 0.0 0.0   0.925553
 Cu 0.56717 0.0 0.0   0.925552
 Cu 0.0 0.43283 0.56717   0.925553
 Cu 0.0 0.56717 0.43283   0.925553
 Cu 0.43283 0.0 0.56717   0.925553
 Cu 0.56717 0.0 0.43283   0.925553
 Cu 0.0 0.56717 0.0   0.925553
 Cu 0.0 0.43283 0.0   0.925552
 H 0.4885 0.2707 0.9701   0.117414
 H 0.2707 0.4885 0.2707   0.117414
 H 0.9701 0.2707 0.4885   0.117414
 H 0.2707 0.9701 0.2707   0.117414
 H 0.4885 0.9701 0.2707   0.117414
 H 0.2707 0.2707 0.9701   0.117414
 H 0.9701 0.4885 0.2707   0.117414
 H 0.2707 0.2707 0.4885   0.117414
 H 0.4885 0.2707 0.2707   0.117414
 H 0.2707 0.9701 0.4885   0.117414
 H 0.9701 0.2707 0.2707   0.117414
 H 0.2707 0.4885 0.9701   0.117414
 H 0.7293 0.5115 0.0299   0.117414
 H 0.5115 0.7293 0.7293   0.117414
 H 0.7293 0.0299 0.5115   0.117414
 H 0.0299 0.7293 0.7293   0.117414
 H 0.0299 0.5115 0.7293   0.117414
 H 0.7293 0.7293 0.0299   0.117414
 H 0.5115 0.0299 0.7293   0.117414
 H 0.7293 0.7293 0.5115   0.117414
 H 0.7293 0.5115 0.7293   0.117414
 H 0.0299 0.7293 0.5115   0.117414
 H 0.7293 0.0299 0.7293   0.117414
 H 0.5115 0.7293 0.0299   0.117414
 C 0.38636 0.38636 0.97072   -0.16392
 C 0.43103 0.43103 0.97569   0.676856
 C 0.38636 0.38636 0.25656   -0.16392
 C 0.43103 0.43103 0.16225   0.676855
 C 0.97072 0.25656 0.38636   -0.16392
 C 0.97569 0.16225 0.43103   0.676855
 C 0.25656 0.97072 0.38636   -0.16392
 C 0.16225 0.97569 0.43103   0.676855
 C 0.38636 0.97072 0.25656   -0.16392
 C 0.43103 0.97569 0.16225   0.676855
 C 0.38636 0.25656 0.97072   -0.16392
 C 0.43103 0.16225 0.97569   0.676855
 C 0.97072 0.38636 0.38636   -0.16392
 C 0.97569 0.43103 0.43103   0.676856
 C 0.25656 0.38636 0.38636   -0.16392
 C 0.16225 0.43103 0.43103   0.676855
 C 0.38636 0.25656 0.38636   -0.16392
 C 0.43103 0.16225 0.43103   0.676855
 C 0.38636 0.97072 0.38636   -0.16392
 C 0.43103 0.97569 0.43103   0.676856
 C 0.97072 0.38636 0.25656   -0.16392
 C 0.97569 0.43103 0.16225   0.676855
 C 0.25656 0.38636 0.97072   -0.16392
 C 0.16225 0.43103 0.97569   0.676855
 C 0.61364 0.61364 0.02928   -0.16392
 C 0.56897 0.56897 0.02431   0.676855
 C 0.61364 0.61364 0.74344   -0.16392
 C 0.56897 0.56897 0.83775   0.676855
 C 0.74344 0.02928 0.61364   -0.16392
 C 0.83775 0.02431 0.56897   0.676855
 C 0.02928 0.74344 0.61364   -0.16392
 C 0.02431 0.83775 0.56897   0.676855
 C 0.02928 0.61364 0.74344   -0.16392
 C 0.02431 0.56897 0.83775   0.676855
 C 0.74344 0.61364 0.02928   -0.16392
 C 0.83775 0.56897 0.02431   0.676855
 C 0.61364 0.02928 0.61364   -0.16392
 C 0.56897 0.02431 0.56897   0.676855
 C 0.61364 0.74344 0.61364   -0.16392
 C 0.56897 0.83775 0.56897   0.676855
 C 0.74344 0.61364 0.61364   -0.16392
 C 0.83775 0.56897 0.56897   0.676855
 C 0.02928 0.61364 0.61364   -0.16392
 C 0.02431 0.56897 0.56897   0.676855
 C 0.61364 0.02928 0.74344   -0.16392
 C 0.56897 0.02431 0.83775   0.676855
 C 0.61364 0.74344 0.02928   -0.16392
 C 0.56897 0.83775 0.02431   0.676855
 C 0.42938 0.30008 0.97046   0.030981
 C 0.30008 0.42938 0.30008   0.030981
 C 0.97046 0.30008 0.42938   0.030981
 C 0.30008 0.97046 0.30008   0.030982
 C 0.42938 0.97046 0.30008   0.030981
 C 0.30008 0.30008 0.97046   0.030982
 C 0.97046 0.42938 0.30008   0.030981
 C 0.30008 0.30008 0.42938   0.030981
 C 0.42938 0.30008 0.30008   0.030981
 C 0.30008 0.97046 0.42938   0.030981
 C 0.97046 0.30008 0.30008   0.030982
 C 0.30008 0.42938 0.97046   0.030981
 C 0.69992 0.57062 0.02954   0.030981
 C 0.57062 0.69992 0.69992   0.030981
 C 0.69992 0.02954 0.57062   0.030981
 C 0.02954 0.69992 0.69992   0.030981
 C 0.02954 0.57062 0.69992   0.030981
 C 0.69992 0.69992 0.02954   0.030981
 C 0.57062 0.02954 0.69992   0.030981
 C 0.69992 0.69992 0.57062   0.030981
 C 0.69992 0.57062 0.69992   0.030981
 C 0.02954 0.69992 0.57062   0.030981
 C 0.69992 0.02954 0.69992   0.030981
 C 0.57062 0.69992 0.02954   0.030981
 O 0.38749 0.50809 0.97931   -0.562054
 O 0.50809 0.38749 0.12511   -0.562053
 O 0.97931 0.12511 0.38749   -0.562053
 O 0.12511 0.97931 0.50809   -0.562053
 O 0.38749 0.97931 0.12511   -0.562053
 O 0.50809 0.12511 0.97931   -0.562053
 O 0.97931 0.38749 0.50809   -0.562054
 O 0.12511 0.50809 0.38749   -0.562053
 O 0.38749 0.12511 0.50809   -0.562053
 O 0.50809 0.97931 0.38749   -0.562054
 O 0.97931 0.50809 0.12511   -0.562053
 O 0.12511 0.38749 0.97931   -0.562053
 O 0.49191 0.61251 0.02069   -0.562054
 O 0.61251 0.49191 0.87489   -0.562053
 O 0.87489 0.02069 0.61251   -0.562053
 O 0.02069 0.87489 0.49191   -0.562053
 O 0.02069 0.61251 0.87489   -0.562053
 O 0.87489 0.49191 0.02069   -0.562053
 O 0.61251 0.02069 0.49191   -0.562054
 O 0.49191 0.87489 0.61251   -0.562053
 O 0.87489 0.61251 0.49191   -0.562053
 O 0.02069 0.49191 0.61251   -0.562053
 O 0.49191 0.02069 0.87489   -0.562053
 O 0.61251 0.87489 0.02069   -0.562053
 O 0.61251 0.49191 0.02069   -0.562054
 O 0.49191 0.61251 0.87489   -0.562053
 O 0.02069 0.87489 0.61251   -0.562053
 O 0.87489 0.02069 0.49191   -0.562053
 O 0.61251 0.02069 0.87489   -0.562053
 O 0.49191 0.87489 0.02069   -0.562053
 O 0.02069 0.61251 0.49191   -0.562054
 O 0.87489 0.49191 0.61251   -0.562053
 O 0.61251 0.87489 0.49191   -0.562053
 O 0.49191 0.02069 0.61251   -0.562054
 O 0.02069 0.49191 0.87489   -0.562053
 O 0.87489 0.61251 0.02069   -0.562053
 O 0.50809 0.38749 0.97931   -0.562054
 O 0.38749 0.50809 0.12511   -0.562053
 O 0.12511 0.97931 0.38749   -0.562053
 O 0.97931 0.12511 0.50809   -0.562053
 O 0.97931 0.38749 0.12511   -0.562053
 O 0.12511 0.50809 0.97931   -0.562053
 O 0.38749 0.97931 0.50809   -0.562054
 O 0.50809 0.12511 0.38749   -0.562053
 O 0.12511 0.38749 0.50809   -0.562053
 O 0.97931 0.50809 0.38749   -0.562054
 O 0.50809 0.97931 0.12511   -0.562053
 O 0.38749 0.12511 0.97931   -0.562053
