{'_ref': 'TBD', '_srcid': 'CAKYAQ_clean', 'submitters': [{'name': 'Dalar Nazarian Jeff Camp and David Sholl', 'email': 'dalar@gatech.edu jcamp6@gatech.edu'}], '_method': 'VASP DFT with PBE;DDEC'}
data_CuH2(C3O2)2
_symmetry_space_group_name_H-M   'P 1'
_cell_length_a   18.58080015
_cell_length_b   18.58080029
_cell_length_c   18.58080000
_cell_angle_alpha   60.00000051
_cell_angle_beta   60.00000027
_cell_angle_gamma   60.00000042
_symmetry_Int_Tables_number   1
_chemical_formula_structural   CuH2(C3O2)2
_chemical_formula_sum   'Cu12 H24 C72 O48'
_cell_volume   4536.05427608
_cell_formula_units_Z   12
loop_
 _symmetry_equiv_pos_site_id
 _symmetry_equiv_pos_as_xyz
  1  'x, y, z'
loop_
 _atom_site_label
 _atom_site_fract_x
 _atom_site_fract_y
 _atom_site_fract_z
 _atom_site_charge
 Cu 0.43286 0.56714 0.0   0.923649
 Cu 0.56714 0.43286 0.0   0.923649
 Cu 0.0 0.0 0.43286   0.92365
 Cu 0.0 0.0 0.56714   0.923649
 Cu 0.43286 0.0 0.0   0.92365
 Cu 0.56714 0.0 0.0   0.923649
 Cu 0.0 0.43286 0.56714   0.92365
 Cu 0.0 0.56714 0.43286   0.923649
 Cu 0.43286 0.0 0.56714   0.92365
 Cu 0.56714 0.0 0.43286   0.92365
 Cu 0.0 0.56714 0.0   0.923649
 Cu 0.0 0.43286 0.0   0.923649
 H 0.4887 0.2707 0.9699   0.117967
 H 0.2707 0.4887 0.2707   0.117967
 H 0.9699 0.2707 0.4887   0.117967
 H 0.2707 0.9699 0.2707   0.117967
 H 0.4887 0.9699 0.2707   0.117967
 H 0.2707 0.2707 0.9699   0.117967
 H 0.9699 0.4887 0.2707   0.117967
 H 0.2707 0.2707 0.4887   0.117967
 H 0.4887 0.2707 0.2707   0.117967
 H 0.2707 0.9699 0.4887   0.117967
 H 0.9699 0.2707 0.2707   0.117967
 H 0.2707 0.4887 0.9699   0.117967
 H 0.7293 0.5113 0.0301   0.117967
 H 0.5113 0.7293 0.7293   0.117967
 H 0.7293 0.0301 0.5113   0.117967
 H 0.0301 0.7293 0.7293   0.117967
 H 0.0301 0.5113 0.7293   0.117967
 H 0.7293 0.7293 0.0301   0.117967
 H 0.5113 0.0301 0.7293   0.117967
 H 0.7293 0.7293 0.5113   0.117967
 H 0.7293 0.5113 0.7293   0.117967
 H 0.0301 0.7293 0.5113   0.117967
 H 0.7293 0.0301 0.7293   0.117967
 H 0.5113 0.7293 0.0301   0.117967
 C 0.38635 0.38635 0.97065   -0.162021
 C 0.43102 0.43102 0.97576   0.674739
 C 0.38635 0.38635 0.25665   -0.16202
 C 0.43102 0.43102 0.1622   0.674739
 C 0.97065 0.25665 0.38635   -0.162021
 C 0.97576 0.1622 0.43102   0.674739
 C 0.25665 0.97065 0.38635   -0.162021
 C 0.1622 0.97576 0.43102   0.674739
 C 0.38635 0.97065 0.25665   -0.162021
 C 0.43102 0.97576 0.1622   0.674739
 C 0.38635 0.25665 0.97065   -0.162021
 C 0.43102 0.1622 0.97576   0.674739
 C 0.97065 0.38635 0.38635   -0.162021
 C 0.97576 0.43102 0.43102   0.674739
 C 0.25665 0.38635 0.38635   -0.162021
 C 0.1622 0.43102 0.43102   0.674739
 C 0.38635 0.25665 0.38635   -0.162021
 C 0.43102 0.1622 0.43102   0.674739
 C 0.38635 0.97065 0.38635   -0.162021
 C 0.43102 0.97576 0.43102   0.674739
 C 0.97065 0.38635 0.25665   -0.162021
 C 0.97576 0.43102 0.1622   0.674739
 C 0.25665 0.38635 0.97065   -0.162021
 C 0.1622 0.43102 0.97576   0.674739
 C 0.61365 0.61365 0.02935   -0.162021
 C 0.56898 0.56898 0.02424   0.674739
 C 0.61365 0.61365 0.74335   -0.16202
 C 0.56898 0.56898 0.8378   0.674739
 C 0.74335 0.02935 0.61365   -0.162021
 C 0.8378 0.02424 0.56898   0.674739
 C 0.02935 0.74335 0.61365   -0.162021
 C 0.02424 0.8378 0.56898   0.674739
 C 0.02935 0.61365 0.74335   -0.162021
 C 0.02424 0.56898 0.8378   0.674739
 C 0.74335 0.61365 0.02935   -0.162021
 C 0.8378 0.56898 0.02424   0.674739
 C 0.61365 0.02935 0.61365   -0.162021
 C 0.56898 0.02424 0.56898   0.674739
 C 0.61365 0.74335 0.61365   -0.162021
 C 0.56898 0.8378 0.56898   0.674739
 C 0.74335 0.61365 0.61365   -0.162021
 C 0.8378 0.56898 0.56898   0.674739
 C 0.02935 0.61365 0.61365   -0.162021
 C 0.02424 0.56898 0.56898   0.674739
 C 0.61365 0.02935 0.74335   -0.162021
 C 0.56898 0.02424 0.8378   0.674739
 C 0.61365 0.74335 0.02935   -0.162021
 C 0.56898 0.8378 0.02424   0.674739
 C 0.42955 0.30005 0.97035   0.029289
 C 0.30005 0.42955 0.30005   0.029289
 C 0.97035 0.30005 0.42955   0.029289
 C 0.30005 0.97035 0.30005   0.029289
 C 0.42955 0.97035 0.30005   0.029289
 C 0.30005 0.30005 0.97035   0.029289
 C 0.97035 0.42955 0.30005   0.029289
 C 0.30005 0.30005 0.42955   0.029289
 C 0.42955 0.30005 0.30005   0.029289
 C 0.30005 0.97035 0.42955   0.029289
 C 0.97035 0.30005 0.30005   0.029289
 C 0.30005 0.42955 0.97035   0.029289
 C 0.69995 0.57045 0.02965   0.029289
 C 0.57045 0.69995 0.69995   0.029289
 C 0.69995 0.02965 0.57045   0.029289
 C 0.02965 0.69995 0.69995   0.029289
 C 0.02965 0.57045 0.69995   0.029289
 C 0.69995 0.69995 0.02965   0.029289
 C 0.57045 0.02965 0.69995   0.029289
 C 0.69995 0.69995 0.57045   0.029289
 C 0.69995 0.57045 0.69995   0.029289
 C 0.02965 0.69995 0.57045   0.029289
 C 0.69995 0.02965 0.69995   0.029289
 C 0.57045 0.69995 0.02965   0.029289
 O 0.38744 0.5081 0.9793   -0.560899
 O 0.5081 0.38744 0.12516   -0.560899
 O 0.9793 0.12516 0.38744   -0.560899
 O 0.12516 0.9793 0.5081   -0.560899
 O 0.38744 0.9793 0.12516   -0.560899
 O 0.5081 0.12516 0.9793   -0.560899
 O 0.9793 0.38744 0.5081   -0.5609
 O 0.12516 0.5081 0.38744   -0.560899
 O 0.38744 0.12516 0.5081   -0.560899
 O 0.5081 0.9793 0.38744   -0.560899
 O 0.9793 0.5081 0.12516   -0.560899
 O 0.12516 0.38744 0.9793   -0.560899
 O 0.4919 0.61256 0.0207   -0.560899
 O 0.61256 0.4919 0.87484   -0.560899
 O 0.87484 0.0207 0.61256   -0.560899
 O 0.0207 0.87484 0.4919   -0.560899
 O 0.0207 0.61256 0.87484   -0.560899
 O 0.87484 0.4919 0.0207   -0.560899
 O 0.61256 0.0207 0.4919   -0.560899
 O 0.4919 0.87484 0.61256   -0.560899
 O 0.87484 0.61256 0.4919   -0.560899
 O 0.0207 0.4919 0.61256   -0.560899
 O 0.4919 0.0207 0.87484   -0.560899
 O 0.61256 0.87484 0.0207   -0.560899
 O 0.61256 0.4919 0.0207   -0.560899
 O 0.4919 0.61256 0.87484   -0.560899
 O 0.0207 0.87484 0.61256   -0.560899
 O 0.87484 0.0207 0.4919   -0.560899
 O 0.61256 0.0207 0.87484   -0.560899
 O 0.4919 0.87484 0.0207   -0.560899
 O 0.0207 0.61256 0.4919   -0.5609
 O 0.87484 0.4919 0.61256   -0.560899
 O 0.61256 0.87484 0.4919   -0.560899
 O 0.4919 0.0207 0.61256   -0.5609
 O 0.0207 0.4919 0.87484   -0.560899
 O 0.87484 0.61256 0.0207   -0.560899
 O 0.5081 0.38744 0.9793   -0.560899
 O 0.38744 0.5081 0.12516   -0.560899
 O 0.12516 0.9793 0.38744   -0.560899
 O 0.9793 0.12516 0.5081   -0.560899
 O 0.9793 0.38744 0.12516   -0.560899
 O 0.12516 0.5081 0.9793   -0.560899
 O 0.38744 0.9793 0.5081   -0.5609
 O 0.5081 0.12516 0.38744   -0.560899
 O 0.12516 0.38744 0.5081   -0.560899
 O 0.9793 0.5081 0.38744   -0.560899
 O 0.5081 0.9793 0.12516   -0.560899
 O 0.38744 0.12516 0.9793   -0.560899
