{'_ref': 'TBD', '_srcid': 'CAKYAQ_clean', 'submitters': [{'name': 'Dalar Nazarian Jeff Camp and David Sholl', 'email': 'dalar@gatech.edu jcamp6@gatech.edu'}], '_method': 'VASP DFT with PBE;DDEC'}
data_CuH2(C3O2)2
_symmetry_space_group_name_H-M   'P 1'
_cell_length_a   18.58180013
_cell_length_b   18.58179997
_cell_length_c   18.58180000
_cell_angle_alpha   59.99999995
_cell_angle_beta   60.00000023
_cell_angle_gamma   59.99999885
_symmetry_Int_Tables_number   1
_chemical_formula_structural   CuH2(C3O2)2
_chemical_formula_sum   'Cu12 H24 C72 O48'
_cell_volume   4536.7865375
_cell_formula_units_Z   12
loop_
 _symmetry_equiv_pos_site_id
 _symmetry_equiv_pos_as_xyz
  1  'x, y, z'
loop_
 _atom_site_label
 _atom_site_fract_x
 _atom_site_fract_y
 _atom_site_fract_z
 _atom_site_charge
 Cu 0.43289 0.56711 0.0   0.919864
 Cu 0.56711 0.43289 0.0   0.919864
 Cu 0.0 0.0 0.43289   0.919864
 Cu 0.0 0.0 0.56711   0.919863
 Cu 0.43289 0.0 0.0   0.919864
 Cu 0.56711 0.0 0.0   0.919863
 Cu 0.0 0.43289 0.56711   0.919864
 Cu 0.0 0.56711 0.43289   0.919864
 Cu 0.43289 0.0 0.56711   0.919864
 Cu 0.56711 0.0 0.43289   0.919864
 Cu 0.0 0.56711 0.0   0.919864
 Cu 0.0 0.43289 0.0   0.919863
 H 0.4888 0.2706 0.97   0.117938
 H 0.2706 0.4888 0.2706   0.117938
 H 0.97 0.2706 0.4888   0.117938
 H 0.2706 0.97 0.2706   0.117938
 H 0.4888 0.97 0.2706   0.117938
 H 0.2706 0.2706 0.97   0.117938
 H 0.97 0.4888 0.2706   0.117938
 H 0.2706 0.2706 0.4888   0.117938
 H 0.4888 0.2706 0.2706   0.117938
 H 0.2706 0.97 0.4888   0.117938
 H 0.97 0.2706 0.2706   0.117938
 H 0.2706 0.4888 0.97   0.117938
 H 0.7294 0.5112 0.03   0.117938
 H 0.5112 0.7294 0.7294   0.117938
 H 0.7294 0.03 0.5112   0.117938
 H 0.03 0.7294 0.7294   0.117938
 H 0.03 0.5112 0.7294   0.117938
 H 0.7294 0.7294 0.03   0.117938
 H 0.5112 0.03 0.7294   0.117938
 H 0.7294 0.7294 0.5112   0.117938
 H 0.7294 0.5112 0.7294   0.117938
 H 0.03 0.7294 0.5112   0.117938
 H 0.7294 0.03 0.7294   0.117938
 H 0.5112 0.7294 0.03   0.117938
 C 0.38646 0.38646 0.97044   -0.16231
 C 0.4311 0.4311 0.97584   0.673445
 C 0.38646 0.38646 0.25664   -0.16231
 C 0.4311 0.4311 0.16196   0.673445
 C 0.97044 0.25664 0.38646   -0.162311
 C 0.97584 0.16196 0.4311   0.673445
 C 0.25664 0.97044 0.38646   -0.162311
 C 0.16196 0.97584 0.4311   0.673445
 C 0.38646 0.97044 0.25664   -0.162311
 C 0.4311 0.97584 0.16196   0.673445
 C 0.38646 0.25664 0.97044   -0.162311
 C 0.4311 0.16196 0.97584   0.673445
 C 0.97044 0.38646 0.38646   -0.162311
 C 0.97584 0.4311 0.4311   0.673445
 C 0.25664 0.38646 0.38646   -0.162311
 C 0.16196 0.4311 0.4311   0.673445
 C 0.38646 0.25664 0.38646   -0.16231
 C 0.4311 0.16196 0.4311   0.673445
 C 0.38646 0.97044 0.38646   -0.162311
 C 0.4311 0.97584 0.4311   0.673445
 C 0.97044 0.38646 0.25664   -0.162311
 C 0.97584 0.4311 0.16196   0.673445
 C 0.25664 0.38646 0.97044   -0.162311
 C 0.16196 0.4311 0.97584   0.673445
 C 0.61354 0.61354 0.02956   -0.16231
 C 0.5689 0.5689 0.02416   0.673445
 C 0.61354 0.61354 0.74336   -0.16231
 C 0.5689 0.5689 0.83804   0.673444
 C 0.74336 0.02956 0.61354   -0.162311
 C 0.83804 0.02416 0.5689   0.673445
 C 0.02956 0.74336 0.61354   -0.162311
 C 0.02416 0.83804 0.5689   0.673445
 C 0.02956 0.61354 0.74336   -0.162311
 C 0.02416 0.5689 0.83804   0.673445
 C 0.74336 0.61354 0.02956   -0.162311
 C 0.83804 0.5689 0.02416   0.673445
 C 0.61354 0.02956 0.61354   -0.162311
 C 0.5689 0.02416 0.5689   0.673445
 C 0.61354 0.74336 0.61354   -0.162311
 C 0.5689 0.83804 0.5689   0.673444
 C 0.74336 0.61354 0.61354   -0.162311
 C 0.83804 0.5689 0.5689   0.673445
 C 0.02956 0.61354 0.61354   -0.162311
 C 0.02416 0.5689 0.5689   0.673445
 C 0.61354 0.02956 0.74336   -0.162311
 C 0.5689 0.02416 0.83804   0.673445
 C 0.61354 0.74336 0.02956   -0.162311
 C 0.5689 0.83804 0.02416   0.673445
 C 0.42965 0.30005 0.97025   0.028999
 C 0.30005 0.42965 0.30005   0.028999
 C 0.97025 0.30005 0.42965   0.028999
 C 0.30005 0.97025 0.30005   0.028999
 C 0.42965 0.97025 0.30005   0.028999
 C 0.30005 0.30005 0.97025   0.028999
 C 0.97025 0.42965 0.30005   0.028999
 C 0.30005 0.30005 0.42965   0.028999
 C 0.42965 0.30005 0.30005   0.028999
 C 0.30005 0.97025 0.42965   0.028999
 C 0.97025 0.30005 0.30005   0.028999
 C 0.30005 0.42965 0.97025   0.028999
 C 0.69995 0.57035 0.02975   0.028999
 C 0.57035 0.69995 0.69995   0.028998
 C 0.69995 0.02975 0.57035   0.028999
 C 0.02975 0.69995 0.69995   0.028999
 C 0.02975 0.57035 0.69995   0.028999
 C 0.69995 0.69995 0.02975   0.028999
 C 0.57035 0.02975 0.69995   0.028999
 C 0.69995 0.69995 0.57035   0.028998
 C 0.69995 0.57035 0.69995   0.028998
 C 0.02975 0.69995 0.57035   0.028999
 C 0.69995 0.02975 0.69995   0.028999
 C 0.57035 0.69995 0.02975   0.028999
 O 0.38737 0.50815 0.97929   -0.559002
 O 0.50815 0.38737 0.12519   -0.559001
 O 0.97929 0.12519 0.38737   -0.559002
 O 0.12519 0.97929 0.50815   -0.559001
 O 0.38737 0.97929 0.12519   -0.559002
 O 0.50815 0.12519 0.97929   -0.559001
 O 0.97929 0.38737 0.50815   -0.559002
 O 0.12519 0.50815 0.38737   -0.559001
 O 0.38737 0.12519 0.50815   -0.559001
 O 0.50815 0.97929 0.38737   -0.559002
 O 0.97929 0.50815 0.12519   -0.559001
 O 0.12519 0.38737 0.97929   -0.559002
 O 0.49185 0.61263 0.02071   -0.559002
 O 0.61263 0.49185 0.87481   -0.559001
 O 0.87481 0.02071 0.61263   -0.559002
 O 0.02071 0.87481 0.49185   -0.559001
 O 0.02071 0.61263 0.87481   -0.559002
 O 0.87481 0.49185 0.02071   -0.559001
 O 0.61263 0.02071 0.49185   -0.559002
 O 0.49185 0.87481 0.61263   -0.559001
 O 0.87481 0.61263 0.49185   -0.559001
 O 0.02071 0.49185 0.61263   -0.559002
 O 0.49185 0.02071 0.87481   -0.559001
 O 0.61263 0.87481 0.02071   -0.559001
 O 0.61263 0.49185 0.02071   -0.559002
 O 0.49185 0.61263 0.87481   -0.559002
 O 0.02071 0.87481 0.61263   -0.559001
 O 0.87481 0.02071 0.49185   -0.559001
 O 0.61263 0.02071 0.87481   -0.559002
 O 0.49185 0.87481 0.02071   -0.559001
 O 0.02071 0.61263 0.49185   -0.559002
 O 0.87481 0.49185 0.61263   -0.559001
 O 0.61263 0.87481 0.49185   -0.559001
 O 0.49185 0.02071 0.61263   -0.559002
 O 0.02071 0.49185 0.87481   -0.559001
 O 0.87481 0.61263 0.02071   -0.559002
 O 0.50815 0.38737 0.97929   -0.559002
 O 0.38737 0.50815 0.12519   -0.559001
 O 0.12519 0.97929 0.38737   -0.559002
 O 0.97929 0.12519 0.50815   -0.559001
 O 0.97929 0.38737 0.12519   -0.559002
 O 0.12519 0.50815 0.97929   -0.559001
 O 0.38737 0.97929 0.50815   -0.559002
 O 0.50815 0.12519 0.38737   -0.559001
 O 0.12519 0.38737 0.50815   -0.559001
 O 0.97929 0.50815 0.38737   -0.559002
 O 0.50815 0.97929 0.12519   -0.559001
 O 0.38737 0.12519 0.97929   -0.559002
