{'_ref': 'TBD', '_srcid': 'CAKYAQ_clean', 'submitters': [{'name': 'Dalar Nazarian Jeff Camp and David Sholl', 'email': 'dalar@gatech.edu jcamp6@gatech.edu'}], '_method': 'VASP DFT with PBE;DDEC'}
data_CuH2(C3O2)2
_symmetry_space_group_name_H-M   'P 1'
_cell_length_a   18.57419995
_cell_length_b   18.57420026
_cell_length_c   18.57420000
_cell_angle_alpha   60.00000046
_cell_angle_beta   59.99999992
_cell_angle_gamma   59.99999946
_symmetry_Int_Tables_number   1
_chemical_formula_structural   CuH2(C3O2)2
_chemical_formula_sum   'Cu12 H24 C72 O48'
_cell_volume   4531.22219826
_cell_formula_units_Z   12
loop_
 _symmetry_equiv_pos_site_id
 _symmetry_equiv_pos_as_xyz
  1  'x, y, z'
loop_
 _atom_site_label
 _atom_site_fract_x
 _atom_site_fract_y
 _atom_site_fract_z
 _atom_site_charge
 Cu 0.43276 0.56724 0.0   0.927725
 Cu 0.56724 0.43276 0.0   0.927725
 Cu 0.0 0.0 0.43276   0.927725
 Cu 0.0 0.0 0.56724   0.927724
 Cu 0.43276 0.0 0.0   0.927725
 Cu 0.56724 0.0 0.0   0.927725
 Cu 0.0 0.43276 0.56724   0.927725
 Cu 0.0 0.56724 0.43276   0.927725
 Cu 0.43276 0.0 0.56724   0.927726
 Cu 0.56724 0.0 0.43276   0.927725
 Cu 0.0 0.56724 0.0   0.927725
 Cu 0.0 0.43276 0.0   0.927725
 H 0.4871 0.2711 0.9707   0.114546
 H 0.2711 0.4871 0.2711   0.114546
 H 0.9707 0.2711 0.4871   0.114546
 H 0.2711 0.9707 0.2711   0.114546
 H 0.4871 0.9707 0.2711   0.114546
 H 0.2711 0.2711 0.9707   0.114546
 H 0.9707 0.4871 0.2711   0.114546
 H 0.2711 0.2711 0.4871   0.114546
 H 0.4871 0.2711 0.2711   0.114546
 H 0.2711 0.9707 0.4871   0.114546
 H 0.9707 0.2711 0.2711   0.114546
 H 0.2711 0.4871 0.9707   0.114546
 H 0.7289 0.5129 0.0293   0.114546
 H 0.5129 0.7289 0.7289   0.114546
 H 0.7289 0.0293 0.5129   0.114546
 H 0.0293 0.7289 0.7289   0.114546
 H 0.0293 0.5129 0.7289   0.114546
 H 0.7289 0.7289 0.0293   0.114546
 H 0.5129 0.0293 0.7289   0.114546
 H 0.7289 0.7289 0.5129   0.114546
 H 0.7289 0.5129 0.7289   0.114546
 H 0.0293 0.7289 0.5129   0.114546
 H 0.7289 0.0293 0.7289   0.114546
 H 0.5129 0.7289 0.0293   0.114546
 C 0.38631 0.38631 0.97081   -0.167645
 C 0.43094 0.43094 0.97564   0.67904
 C 0.38631 0.38631 0.25657   -0.167644
 C 0.43094 0.43094 0.16248   0.67904
 C 0.97081 0.25657 0.38631   -0.167645
 C 0.97564 0.16248 0.43094   0.67904
 C 0.25657 0.97081 0.38631   -0.167645
 C 0.16248 0.97564 0.43094   0.67904
 C 0.38631 0.97081 0.25657   -0.167645
 C 0.43094 0.97564 0.16248   0.67904
 C 0.38631 0.25657 0.97081   -0.167645
 C 0.43094 0.16248 0.97564   0.67904
 C 0.97081 0.38631 0.38631   -0.167645
 C 0.97564 0.43094 0.43094   0.67904
 C 0.25657 0.38631 0.38631   -0.167644
 C 0.16248 0.43094 0.43094   0.67904
 C 0.38631 0.25657 0.38631   -0.167644
 C 0.43094 0.16248 0.43094   0.67904
 C 0.38631 0.97081 0.38631   -0.167645
 C 0.43094 0.97564 0.43094   0.67904
 C 0.97081 0.38631 0.25657   -0.167645
 C 0.97564 0.43094 0.16248   0.67904
 C 0.25657 0.38631 0.97081   -0.167645
 C 0.16248 0.43094 0.97564   0.67904
 C 0.61369 0.61369 0.02919   -0.167645
 C 0.56906 0.56906 0.02436   0.67904
 C 0.61369 0.61369 0.74343   -0.167644
 C 0.56906 0.56906 0.83752   0.679039
 C 0.74343 0.02919 0.61369   -0.167645
 C 0.83752 0.02436 0.56906   0.67904
 C 0.02919 0.74343 0.61369   -0.167645
 C 0.02436 0.83752 0.56906   0.67904
 C 0.02919 0.61369 0.74343   -0.167645
 C 0.02436 0.56906 0.83752   0.67904
 C 0.74343 0.61369 0.02919   -0.167645
 C 0.83752 0.56906 0.02436   0.67904
 C 0.61369 0.02919 0.61369   -0.167645
 C 0.56906 0.02436 0.56906   0.67904
 C 0.61369 0.74343 0.61369   -0.167644
 C 0.56906 0.83752 0.56906   0.679039
 C 0.74343 0.61369 0.61369   -0.167644
 C 0.83752 0.56906 0.56906   0.679039
 C 0.02919 0.61369 0.61369   -0.167645
 C 0.02436 0.56906 0.56906   0.67904
 C 0.61369 0.02919 0.74343   -0.167645
 C 0.56906 0.02436 0.83752   0.67904
 C 0.61369 0.74343 0.02919   -0.167645
 C 0.56906 0.83752 0.02436   0.67904
 C 0.42926 0.29998 0.97078   0.036825
 C 0.29998 0.42926 0.29998   0.036825
 C 0.97078 0.29998 0.42926   0.036825
 C 0.29998 0.97078 0.29998   0.036826
 C 0.42926 0.97078 0.29998   0.036825
 C 0.29998 0.29998 0.97078   0.036826
 C 0.97078 0.42926 0.29998   0.036825
 C 0.29998 0.29998 0.42926   0.036825
 C 0.42926 0.29998 0.29998   0.036825
 C 0.29998 0.97078 0.42926   0.036825
 C 0.97078 0.29998 0.29998   0.036826
 C 0.29998 0.42926 0.97078   0.036825
 C 0.70002 0.57074 0.02922   0.036825
 C 0.57074 0.70002 0.70002   0.036825
 C 0.70002 0.02922 0.57074   0.036825
 C 0.02922 0.70002 0.70002   0.036825
 C 0.02922 0.57074 0.70002   0.036825
 C 0.70002 0.70002 0.02922   0.036826
 C 0.57074 0.02922 0.70002   0.036825
 C 0.70002 0.70002 0.57074   0.036825
 C 0.70002 0.57074 0.70002   0.036825
 C 0.02922 0.70002 0.57074   0.036825
 C 0.70002 0.02922 0.70002   0.036826
 C 0.57074 0.70002 0.02922   0.036825
 O 0.3876 0.50796 0.9793   -0.563315
 O 0.50796 0.3876 0.12514   -0.563314
 O 0.9793 0.12514 0.3876   -0.563314
 O 0.12514 0.9793 0.50796   -0.563314
 O 0.3876 0.9793 0.12514   -0.563314
 O 0.50796 0.12514 0.9793   -0.563314
 O 0.9793 0.3876 0.50796   -0.563315
 O 0.12514 0.50796 0.3876   -0.563314
 O 0.3876 0.12514 0.50796   -0.563314
 O 0.50796 0.9793 0.3876   -0.563315
 O 0.9793 0.50796 0.12514   -0.563314
 O 0.12514 0.3876 0.9793   -0.563314
 O 0.49204 0.6124 0.0207   -0.563315
 O 0.6124 0.49204 0.87486   -0.563314
 O 0.87486 0.0207 0.6124   -0.563314
 O 0.0207 0.87486 0.49204   -0.563314
 O 0.0207 0.6124 0.87486   -0.563314
 O 0.87486 0.49204 0.0207   -0.563314
 O 0.6124 0.0207 0.49204   -0.563315
 O 0.49204 0.87486 0.6124   -0.563314
 O 0.87486 0.6124 0.49204   -0.563314
 O 0.0207 0.49204 0.6124   -0.563315
 O 0.49204 0.0207 0.87486   -0.563314
 O 0.6124 0.87486 0.0207   -0.563314
 O 0.6124 0.49204 0.0207   -0.563315
 O 0.49204 0.6124 0.87486   -0.563314
 O 0.0207 0.87486 0.6124   -0.563314
 O 0.87486 0.0207 0.49204   -0.563314
 O 0.6124 0.0207 0.87486   -0.563314
 O 0.49204 0.87486 0.0207   -0.563314
 O 0.0207 0.6124 0.49204   -0.563315
 O 0.87486 0.49204 0.6124   -0.563314
 O 0.6124 0.87486 0.49204   -0.563314
 O 0.49204 0.0207 0.6124   -0.563315
 O 0.0207 0.49204 0.87486   -0.563314
 O 0.87486 0.6124 0.0207   -0.563315
 O 0.50796 0.3876 0.9793   -0.563315
 O 0.3876 0.50796 0.12514   -0.563314
 O 0.12514 0.9793 0.3876   -0.563314
 O 0.9793 0.12514 0.50796   -0.563314
 O 0.9793 0.3876 0.12514   -0.563314
 O 0.12514 0.50796 0.9793   -0.563314
 O 0.3876 0.9793 0.50796   -0.563315
 O 0.50796 0.12514 0.3876   -0.563314
 O 0.12514 0.3876 0.50796   -0.563314
 O 0.9793 0.50796 0.3876   -0.563315
 O 0.50796 0.9793 0.12514   -0.563314
 O 0.3876 0.12514 0.9793   -0.563315
