{'_ref': 'TBD', '_srcid': 'CAKYAQ_clean', 'submitters': [{'name': 'Dalar Nazarian Jeff Camp and David Sholl', 'email': 'dalar@gatech.edu jcamp6@gatech.edu'}], '_method': 'VASP DFT with PBE;DDEC'}
data_CuH2(C3O2)2
_symmetry_space_group_name_H-M   'P 1'
_cell_length_a   18.58440042
_cell_length_b   18.58439990
_cell_length_c   18.58440000
_cell_angle_alpha   59.99999983
_cell_angle_beta   60.00000075
_cell_angle_gamma   60.00000060
_symmetry_Int_Tables_number   1
_chemical_formula_structural   CuH2(C3O2)2
_chemical_formula_sum   'Cu12 H24 C72 O48'
_cell_volume   4538.69131754
_cell_formula_units_Z   12
loop_
 _symmetry_equiv_pos_site_id
 _symmetry_equiv_pos_as_xyz
  1  'x, y, z'
loop_
 _atom_site_label
 _atom_site_fract_x
 _atom_site_fract_y
 _atom_site_fract_z
 _atom_site_charge
 Cu 0.43289 0.56711 0.0   0.920693
 Cu 0.56711 0.43289 0.0   0.920692
 Cu 0.0 0.0 0.43289   0.920693
 Cu 0.0 0.0 0.56711   0.920692
 Cu 0.43289 0.0 0.0   0.920693
 Cu 0.56711 0.0 0.0   0.920692
 Cu 0.0 0.43289 0.56711   0.920693
 Cu 0.0 0.56711 0.43289   0.920693
 Cu 0.43289 0.0 0.56711   0.920693
 Cu 0.56711 0.0 0.43289   0.920693
 Cu 0.0 0.56711 0.0   0.920693
 Cu 0.0 0.43289 0.0   0.920692
 H 0.489 0.2704 0.9702   0.118984
 H 0.2704 0.489 0.2704   0.118984
 H 0.9702 0.2704 0.489   0.118984
 H 0.2704 0.9702 0.2704   0.118983
 H 0.489 0.9702 0.2704   0.118984
 H 0.2704 0.2704 0.9702   0.118983
 H 0.9702 0.489 0.2704   0.118984
 H 0.2704 0.2704 0.489   0.118984
 H 0.489 0.2704 0.2704   0.118984
 H 0.2704 0.9702 0.489   0.118984
 H 0.9702 0.2704 0.2704   0.118983
 H 0.2704 0.489 0.9702   0.118984
 H 0.7296 0.511 0.0298   0.118984
 H 0.511 0.7296 0.7296   0.118984
 H 0.7296 0.0298 0.511   0.118984
 H 0.0298 0.7296 0.7296   0.118983
 H 0.0298 0.511 0.7296   0.118984
 H 0.7296 0.7296 0.0298   0.118983
 H 0.511 0.0298 0.7296   0.118984
 H 0.7296 0.7296 0.511   0.118984
 H 0.7296 0.511 0.7296   0.118984
 H 0.0298 0.7296 0.511   0.118984
 H 0.7296 0.0298 0.7296   0.118983
 H 0.511 0.7296 0.0298   0.118984
 C 0.38642 0.38642 0.9706   -0.161561
 C 0.43104 0.43104 0.97588   0.672059
 C 0.38642 0.38642 0.25656   -0.161561
 C 0.43104 0.43104 0.16204   0.672059
 C 0.9706 0.25656 0.38642   -0.161561
 C 0.97588 0.16204 0.43104   0.672059
 C 0.25656 0.9706 0.38642   -0.161561
 C 0.16204 0.97588 0.43104   0.672059
 C 0.38642 0.9706 0.25656   -0.161561
 C 0.43104 0.97588 0.16204   0.672059
 C 0.38642 0.25656 0.9706   -0.161561
 C 0.43104 0.16204 0.97588   0.672059
 C 0.9706 0.38642 0.38642   -0.161561
 C 0.97588 0.43104 0.43104   0.672059
 C 0.25656 0.38642 0.38642   -0.161561
 C 0.16204 0.43104 0.43104   0.672059
 C 0.38642 0.25656 0.38642   -0.161561
 C 0.43104 0.16204 0.43104   0.672059
 C 0.38642 0.9706 0.38642   -0.161561
 C 0.43104 0.97588 0.43104   0.672059
 C 0.9706 0.38642 0.25656   -0.161561
 C 0.97588 0.43104 0.16204   0.672059
 C 0.25656 0.38642 0.9706   -0.161561
 C 0.16204 0.43104 0.97588   0.672059
 C 0.61358 0.61358 0.0294   -0.161561
 C 0.56896 0.56896 0.02412   0.672059
 C 0.61358 0.61358 0.74344   -0.161561
 C 0.56896 0.56896 0.83796   0.672059
 C 0.74344 0.0294 0.61358   -0.161561
 C 0.83796 0.02412 0.56896   0.672059
 C 0.0294 0.74344 0.61358   -0.161561
 C 0.02412 0.83796 0.56896   0.672059
 C 0.0294 0.61358 0.74344   -0.161561
 C 0.02412 0.56896 0.83796   0.672059
 C 0.74344 0.61358 0.0294   -0.161561
 C 0.83796 0.56896 0.02412   0.672059
 C 0.61358 0.0294 0.61358   -0.161561
 C 0.56896 0.02412 0.56896   0.672059
 C 0.61358 0.74344 0.61358   -0.161561
 C 0.56896 0.83796 0.56896   0.672059
 C 0.74344 0.61358 0.61358   -0.161561
 C 0.83796 0.56896 0.56896   0.672059
 C 0.0294 0.61358 0.61358   -0.161561
 C 0.02412 0.56896 0.56896   0.672059
 C 0.61358 0.0294 0.74344   -0.161561
 C 0.56896 0.02412 0.83796   0.672059
 C 0.61358 0.74344 0.0294   -0.161561
 C 0.56896 0.83796 0.02412   0.672059
 C 0.42977 0.29989 0.97045   0.02842
 C 0.29989 0.42977 0.29989   0.02842
 C 0.97045 0.29989 0.42977   0.02842
 C 0.29989 0.97045 0.29989   0.02842
 C 0.42977 0.97045 0.29989   0.02842
 C 0.29989 0.29989 0.97045   0.02842
 C 0.97045 0.42977 0.29989   0.02842
 C 0.29989 0.29989 0.42977   0.02842
 C 0.42977 0.29989 0.29989   0.02842
 C 0.29989 0.97045 0.42977   0.02842
 C 0.97045 0.29989 0.29989   0.028421
 C 0.29989 0.42977 0.97045   0.02842
 C 0.70011 0.57023 0.02955   0.02842
 C 0.57023 0.70011 0.70011   0.02842
 C 0.70011 0.02955 0.57023   0.02842
 C 0.02955 0.70011 0.70011   0.02842
 C 0.02955 0.57023 0.70011   0.02842
 C 0.70011 0.70011 0.02955   0.02842
 C 0.57023 0.02955 0.70011   0.02842
 C 0.70011 0.70011 0.57023   0.02842
 C 0.70011 0.57023 0.70011   0.02842
 C 0.02955 0.70011 0.57023   0.02842
 C 0.70011 0.02955 0.70011   0.02842
 C 0.57023 0.70011 0.02955   0.02842
 O 0.38735 0.50821 0.97923   -0.559124
 O 0.50821 0.38735 0.12521   -0.559124
 O 0.97923 0.12521 0.38735   -0.559124
 O 0.12521 0.97923 0.50821   -0.559124
 O 0.38735 0.97923 0.12521   -0.559124
 O 0.50821 0.12521 0.97923   -0.559124
 O 0.97923 0.38735 0.50821   -0.559124
 O 0.12521 0.50821 0.38735   -0.559124
 O 0.38735 0.12521 0.50821   -0.559124
 O 0.50821 0.97923 0.38735   -0.559124
 O 0.97923 0.50821 0.12521   -0.559124
 O 0.12521 0.38735 0.97923   -0.559124
 O 0.49179 0.61265 0.02077   -0.559124
 O 0.61265 0.49179 0.87479   -0.559124
 O 0.87479 0.02077 0.61265   -0.559124
 O 0.02077 0.87479 0.49179   -0.559124
 O 0.02077 0.61265 0.87479   -0.559124
 O 0.87479 0.49179 0.02077   -0.559124
 O 0.61265 0.02077 0.49179   -0.559124
 O 0.49179 0.87479 0.61265   -0.559124
 O 0.87479 0.61265 0.49179   -0.559124
 O 0.02077 0.49179 0.61265   -0.559124
 O 0.49179 0.02077 0.87479   -0.559124
 O 0.61265 0.87479 0.02077   -0.559124
 O 0.61265 0.49179 0.02077   -0.559124
 O 0.49179 0.61265 0.87479   -0.559124
 O 0.02077 0.87479 0.61265   -0.559124
 O 0.87479 0.02077 0.49179   -0.559124
 O 0.61265 0.02077 0.87479   -0.559124
 O 0.49179 0.87479 0.02077   -0.559124
 O 0.02077 0.61265 0.49179   -0.559124
 O 0.87479 0.49179 0.61265   -0.559124
 O 0.61265 0.87479 0.49179   -0.559124
 O 0.49179 0.02077 0.61265   -0.559124
 O 0.02077 0.49179 0.87479   -0.559124
 O 0.87479 0.61265 0.02077   -0.559124
 O 0.50821 0.38735 0.97923   -0.559124
 O 0.38735 0.50821 0.12521   -0.559124
 O 0.12521 0.97923 0.38735   -0.559124
 O 0.97923 0.12521 0.50821   -0.559124
 O 0.97923 0.38735 0.12521   -0.559124
 O 0.12521 0.50821 0.97923   -0.559124
 O 0.38735 0.97923 0.50821   -0.559124
 O 0.50821 0.12521 0.38735   -0.559124
 O 0.12521 0.38735 0.50821   -0.559124
 O 0.97923 0.50821 0.38735   -0.559124
 O 0.50821 0.97923 0.12521   -0.559124
 O 0.38735 0.12521 0.97923   -0.559124
