{'_ref': 'TBD', '_srcid': 'CAKYAQ_clean', 'submitters': [{'name': 'Dalar Nazarian Jeff Camp and David Sholl', 'email': 'dalar@gatech.edu jcamp6@gatech.edu'}], '_method': 'VASP DFT with PBE;DDEC'}
data_CuH2(C3O2)2
_symmetry_space_group_name_H-M   'P 1'
_cell_length_a   18.57889968
_cell_length_b   18.57889960
_cell_length_c   18.57890000
_cell_angle_alpha   59.99999929
_cell_angle_beta   59.99999942
_cell_angle_gamma   60.00000051
_symmetry_Int_Tables_number   1
_chemical_formula_structural   CuH2(C3O2)2
_chemical_formula_sum   'Cu12 H24 C72 O48'
_cell_volume   4534.66254908
_cell_formula_units_Z   12
loop_
 _symmetry_equiv_pos_site_id
 _symmetry_equiv_pos_as_xyz
  1  'x, y, z'
loop_
 _atom_site_label
 _atom_site_fract_x
 _atom_site_fract_y
 _atom_site_fract_z
 _atom_site_charge
 Cu 0.43285 0.56715 0.0   0.925699
 Cu 0.56715 0.43285 0.0   0.925698
 Cu 0.0 0.0 0.43285   0.925698
 Cu 0.0 0.0 0.56715   0.925697
 Cu 0.43285 0.0 0.0   0.925699
 Cu 0.56715 0.0 0.0   0.925698
 Cu 0.0 0.43285 0.56715   0.925699
 Cu 0.0 0.56715 0.43285   0.925698
 Cu 0.43285 0.0 0.56715   0.925699
 Cu 0.56715 0.0 0.43285   0.925698
 Cu 0.0 0.56715 0.0   0.925699
 Cu 0.0 0.43285 0.0   0.925698
 H 0.4885 0.2705 0.9705   0.117155
 H 0.2705 0.4885 0.2705   0.117155
 H 0.9705 0.2705 0.4885   0.117155
 H 0.2705 0.9705 0.2705   0.117155
 H 0.4885 0.9705 0.2705   0.117155
 H 0.2705 0.2705 0.9705   0.117155
 H 0.9705 0.4885 0.2705   0.117155
 H 0.2705 0.2705 0.4885   0.117155
 H 0.4885 0.2705 0.2705   0.117155
 H 0.2705 0.9705 0.4885   0.117155
 H 0.9705 0.2705 0.2705   0.117155
 H 0.2705 0.4885 0.9705   0.117155
 H 0.7295 0.5115 0.0295   0.117155
 H 0.5115 0.7295 0.7295   0.117155
 H 0.7295 0.0295 0.5115   0.117155
 H 0.0295 0.7295 0.7295   0.117155
 H 0.0295 0.5115 0.7295   0.117155
 H 0.7295 0.7295 0.0295   0.117155
 H 0.5115 0.0295 0.7295   0.117155
 H 0.7295 0.7295 0.5115   0.117155
 H 0.7295 0.5115 0.7295   0.117155
 H 0.0295 0.7295 0.5115   0.117155
 H 0.7295 0.0295 0.7295   0.117155
 H 0.5115 0.7295 0.0295   0.117155
 C 0.38644 0.38644 0.97058   -0.163483
 C 0.43096 0.43096 0.9758   0.674637
 C 0.38644 0.38644 0.25654   -0.163483
 C 0.43096 0.43096 0.16228   0.674636
 C 0.97058 0.25654 0.38644   -0.163483
 C 0.9758 0.16228 0.43096   0.674637
 C 0.25654 0.97058 0.38644   -0.163483
 C 0.16228 0.9758 0.43096   0.674636
 C 0.38644 0.97058 0.25654   -0.163483
 C 0.43096 0.9758 0.16228   0.674636
 C 0.38644 0.25654 0.97058   -0.163483
 C 0.43096 0.16228 0.9758   0.674636
 C 0.97058 0.38644 0.38644   -0.163483
 C 0.9758 0.43096 0.43096   0.674637
 C 0.25654 0.38644 0.38644   -0.163483
 C 0.16228 0.43096 0.43096   0.674636
 C 0.38644 0.25654 0.38644   -0.163483
 C 0.43096 0.16228 0.43096   0.674636
 C 0.38644 0.97058 0.38644   -0.163483
 C 0.43096 0.9758 0.43096   0.674637
 C 0.97058 0.38644 0.25654   -0.163483
 C 0.9758 0.43096 0.16228   0.674636
 C 0.25654 0.38644 0.97058   -0.163483
 C 0.16228 0.43096 0.9758   0.674636
 C 0.61356 0.61356 0.02942   -0.163483
 C 0.56904 0.56904 0.0242   0.674637
 C 0.61356 0.61356 0.74346   -0.163483
 C 0.56904 0.56904 0.83772   0.674636
 C 0.74346 0.02942 0.61356   -0.163483
 C 0.83772 0.0242 0.56904   0.674636
 C 0.02942 0.74346 0.61356   -0.163483
 C 0.0242 0.83772 0.56904   0.674636
 C 0.02942 0.61356 0.74346   -0.163483
 C 0.0242 0.56904 0.83772   0.674636
 C 0.74346 0.61356 0.02942   -0.163483
 C 0.83772 0.56904 0.0242   0.674636
 C 0.61356 0.02942 0.61356   -0.163483
 C 0.56904 0.0242 0.56904   0.674637
 C 0.61356 0.74346 0.61356   -0.163483
 C 0.56904 0.83772 0.56904   0.674636
 C 0.74346 0.61356 0.61356   -0.163483
 C 0.83772 0.56904 0.56904   0.674636
 C 0.02942 0.61356 0.61356   -0.163483
 C 0.0242 0.56904 0.56904   0.674637
 C 0.61356 0.02942 0.74346   -0.163483
 C 0.56904 0.0242 0.83772   0.674636
 C 0.61356 0.74346 0.02942   -0.163483
 C 0.56904 0.83772 0.0242   0.674636
 C 0.42942 0.30002 0.97054   0.031968
 C 0.30002 0.42942 0.30002   0.031967
 C 0.97054 0.30002 0.42942   0.031968
 C 0.30002 0.97054 0.30002   0.031968
 C 0.42942 0.97054 0.30002   0.031968
 C 0.30002 0.30002 0.97054   0.031968
 C 0.97054 0.42942 0.30002   0.031968
 C 0.30002 0.30002 0.42942   0.031967
 C 0.42942 0.30002 0.30002   0.031967
 C 0.30002 0.97054 0.42942   0.031968
 C 0.97054 0.30002 0.30002   0.031968
 C 0.30002 0.42942 0.97054   0.031968
 C 0.69998 0.57058 0.02946   0.031968
 C 0.57058 0.69998 0.69998   0.031967
 C 0.69998 0.02946 0.57058   0.031968
 C 0.02946 0.69998 0.69998   0.031968
 C 0.02946 0.57058 0.69998   0.031968
 C 0.69998 0.69998 0.02946   0.031968
 C 0.57058 0.02946 0.69998   0.031968
 C 0.69998 0.69998 0.57058   0.031967
 C 0.69998 0.57058 0.69998   0.031967
 C 0.02946 0.69998 0.57058   0.031968
 C 0.69998 0.02946 0.69998   0.031968
 C 0.57058 0.69998 0.02946   0.031968
 O 0.38742 0.50818 0.9793   -0.561563
 O 0.50818 0.38742 0.1251   -0.561562
 O 0.9793 0.1251 0.38742   -0.561563
 O 0.1251 0.9793 0.50818   -0.561562
 O 0.38742 0.9793 0.1251   -0.561563
 O 0.50818 0.1251 0.9793   -0.561562
 O 0.9793 0.38742 0.50818   -0.561563
 O 0.1251 0.50818 0.38742   -0.561562
 O 0.38742 0.1251 0.50818   -0.561562
 O 0.50818 0.9793 0.38742   -0.561563
 O 0.9793 0.50818 0.1251   -0.561563
 O 0.1251 0.38742 0.9793   -0.561563
 O 0.49182 0.61258 0.0207   -0.561563
 O 0.61258 0.49182 0.8749   -0.561562
 O 0.8749 0.0207 0.61258   -0.561563
 O 0.0207 0.8749 0.49182   -0.561562
 O 0.0207 0.61258 0.8749   -0.561563
 O 0.8749 0.49182 0.0207   -0.561562
 O 0.61258 0.0207 0.49182   -0.561563
 O 0.49182 0.8749 0.61258   -0.561562
 O 0.8749 0.61258 0.49182   -0.561562
 O 0.0207 0.49182 0.61258   -0.561563
 O 0.49182 0.0207 0.8749   -0.561562
 O 0.61258 0.8749 0.0207   -0.561563
 O 0.61258 0.49182 0.0207   -0.561563
 O 0.49182 0.61258 0.8749   -0.561562
 O 0.0207 0.8749 0.61258   -0.561563
 O 0.8749 0.0207 0.49182   -0.561563
 O 0.61258 0.0207 0.8749   -0.561563
 O 0.49182 0.8749 0.0207   -0.561563
 O 0.0207 0.61258 0.49182   -0.561563
 O 0.8749 0.49182 0.61258   -0.561562
 O 0.61258 0.8749 0.49182   -0.561562
 O 0.49182 0.0207 0.61258   -0.561563
 O 0.0207 0.49182 0.8749   -0.561562
 O 0.8749 0.61258 0.0207   -0.561563
 O 0.50818 0.38742 0.9793   -0.561563
 O 0.38742 0.50818 0.1251   -0.561562
 O 0.1251 0.9793 0.38742   -0.561563
 O 0.9793 0.1251 0.50818   -0.561562
 O 0.9793 0.38742 0.1251   -0.561563
 O 0.1251 0.50818 0.9793   -0.561563
 O 0.38742 0.9793 0.50818   -0.561563
 O 0.50818 0.1251 0.38742   -0.561562
 O 0.1251 0.38742 0.50818   -0.561563
 O 0.9793 0.50818 0.38742   -0.561563
 O 0.50818 0.9793 0.1251   -0.561562
 O 0.38742 0.1251 0.9793   -0.561563
