{'_ref': 'TBD', '_srcid': 'CAKYAQ_clean', 'submitters': [{'name': 'Dalar Nazarian Jeff Camp and David Sholl', 'email': 'dalar@gatech.edu jcamp6@gatech.edu'}], '_method': 'VASP DFT with PBE;DDEC'}
data_CuH2(C3O2)2
_symmetry_space_group_name_H-M   'P 1'
_cell_length_a   18.56200039
_cell_length_b   18.56200042
_cell_length_c   18.56200000
_cell_angle_alpha   60.00000075
_cell_angle_beta   60.00000070
_cell_angle_gamma   60.00000052
_symmetry_Int_Tables_number   1
_chemical_formula_structural   CuH2(C3O2)2
_chemical_formula_sum   'Cu12 H24 C72 O48'
_cell_volume   4522.29962124
_cell_formula_units_Z   12
loop_
 _symmetry_equiv_pos_site_id
 _symmetry_equiv_pos_as_xyz
  1  'x, y, z'
loop_
 _atom_site_label
 _atom_site_fract_x
 _atom_site_fract_y
 _atom_site_fract_z
 _atom_site_charge
 Cu 0.4326 0.5674 0.0   0.936539
 Cu 0.5674 0.4326 0.0   0.936539
 Cu 0.0 0.0 0.4326   0.936539
 Cu 0.0 0.0 0.5674   0.936539
 Cu 0.4326 0.0 0.0   0.936539
 Cu 0.5674 0.0 0.0   0.936539
 Cu 0.0 0.4326 0.5674   0.93654
 Cu 0.0 0.5674 0.4326   0.936539
 Cu 0.4326 0.0 0.5674   0.93654
 Cu 0.5674 0.0 0.4326   0.93654
 Cu 0.0 0.5674 0.0   0.936539
 Cu 0.0 0.4326 0.0   0.936539
 H 0.4869 0.2711 0.9709   0.1126
 H 0.2711 0.4869 0.2711   0.1126
 H 0.9709 0.2711 0.4869   0.1126
 H 0.2711 0.9709 0.2711   0.112599
 H 0.4869 0.9709 0.2711   0.1126
 H 0.2711 0.2711 0.9709   0.1126
 H 0.9709 0.4869 0.2711   0.1126
 H 0.2711 0.2711 0.4869   0.1126
 H 0.4869 0.2711 0.2711   0.1126
 H 0.2711 0.9709 0.4869   0.1126
 H 0.9709 0.2711 0.2711   0.1126
 H 0.2711 0.4869 0.9709   0.1126
 H 0.7289 0.5131 0.0291   0.1126
 H 0.5131 0.7289 0.7289   0.1126
 H 0.7289 0.0291 0.5131   0.1126
 H 0.0291 0.7289 0.7289   0.112599
 H 0.0291 0.5131 0.7289   0.1126
 H 0.7289 0.7289 0.0291   0.112599
 H 0.5131 0.0291 0.7289   0.1126
 H 0.7289 0.7289 0.5131   0.1126
 H 0.7289 0.5131 0.7289   0.1126
 H 0.0291 0.7289 0.5131   0.1126
 H 0.7289 0.0291 0.7289   0.112599
 H 0.5131 0.7289 0.0291   0.1126
 C 0.3863 0.3863 0.97134   -0.17223
 C 0.4307 0.4307 0.9758   0.685977
 C 0.3863 0.3863 0.25606   -0.17223
 C 0.4307 0.4307 0.1628   0.685977
 C 0.97134 0.25606 0.3863   -0.17223
 C 0.9758 0.1628 0.4307   0.685977
 C 0.25606 0.97134 0.3863   -0.17223
 C 0.1628 0.9758 0.4307   0.685977
 C 0.3863 0.97134 0.25606   -0.17223
 C 0.4307 0.9758 0.1628   0.685977
 C 0.3863 0.25606 0.97134   -0.17223
 C 0.4307 0.1628 0.9758   0.685977
 C 0.97134 0.3863 0.3863   -0.17223
 C 0.9758 0.4307 0.4307   0.685977
 C 0.25606 0.3863 0.3863   -0.17223
 C 0.1628 0.4307 0.4307   0.685977
 C 0.3863 0.25606 0.3863   -0.17223
 C 0.4307 0.1628 0.4307   0.685977
 C 0.3863 0.97134 0.3863   -0.17223
 C 0.4307 0.9758 0.4307   0.685977
 C 0.97134 0.3863 0.25606   -0.17223
 C 0.9758 0.4307 0.1628   0.685977
 C 0.25606 0.3863 0.97134   -0.17223
 C 0.1628 0.4307 0.9758   0.685977
 C 0.6137 0.6137 0.02866   -0.17223
 C 0.5693 0.5693 0.0242   0.685977
 C 0.6137 0.6137 0.74394   -0.172229
 C 0.5693 0.5693 0.8372   0.685976
 C 0.74394 0.02866 0.6137   -0.17223
 C 0.8372 0.0242 0.5693   0.685977
 C 0.02866 0.74394 0.6137   -0.17223
 C 0.0242 0.8372 0.5693   0.685977
 C 0.02866 0.6137 0.74394   -0.17223
 C 0.0242 0.5693 0.8372   0.685977
 C 0.74394 0.6137 0.02866   -0.17223
 C 0.8372 0.5693 0.0242   0.685977
 C 0.6137 0.02866 0.6137   -0.17223
 C 0.5693 0.0242 0.5693   0.685977
 C 0.6137 0.74394 0.6137   -0.172229
 C 0.5693 0.8372 0.5693   0.685976
 C 0.74394 0.6137 0.6137   -0.17223
 C 0.8372 0.5693 0.5693   0.685976
 C 0.02866 0.6137 0.6137   -0.17223
 C 0.0242 0.5693 0.5693   0.685977
 C 0.6137 0.02866 0.74394   -0.17223
 C 0.5693 0.0242 0.8372   0.685977
 C 0.6137 0.74394 0.02866   -0.17223
 C 0.5693 0.8372 0.0242   0.685977
 C 0.42892 0.3 0.97108   0.04197
 C 0.3 0.42892 0.3   0.041969
 C 0.97108 0.3 0.42892   0.04197
 C 0.3 0.97108 0.3   0.04197
 C 0.42892 0.97108 0.3   0.04197
 C 0.3 0.3 0.97108   0.04197
 C 0.97108 0.42892 0.3   0.04197
 C 0.3 0.3 0.42892   0.041969
 C 0.42892 0.3 0.3   0.041969
 C 0.3 0.97108 0.42892   0.04197
 C 0.97108 0.3 0.3   0.04197
 C 0.3 0.42892 0.97108   0.04197
 C 0.7 0.57108 0.02892   0.04197
 C 0.57108 0.7 0.7   0.041969
 C 0.7 0.02892 0.57108   0.04197
 C 0.02892 0.7 0.7   0.04197
 C 0.02892 0.57108 0.7   0.04197
 C 0.7 0.7 0.02892   0.04197
 C 0.57108 0.02892 0.7   0.04197
 C 0.7 0.7 0.57108   0.041969
 C 0.7 0.57108 0.7   0.041969
 C 0.02892 0.7 0.57108   0.04197
 C 0.7 0.02892 0.7   0.04197
 C 0.57108 0.7 0.02892   0.04197
 O 0.38775 0.50777 0.97939   -0.568293
 O 0.50777 0.38775 0.12509   -0.568293
 O 0.97939 0.12509 0.38775   -0.568293
 O 0.12509 0.97939 0.50777   -0.568293
 O 0.38775 0.97939 0.12509   -0.568293
 O 0.50777 0.12509 0.97939   -0.568293
 O 0.97939 0.38775 0.50777   -0.568293
 O 0.12509 0.50777 0.38775   -0.568293
 O 0.38775 0.12509 0.50777   -0.568293
 O 0.50777 0.97939 0.38775   -0.568293
 O 0.97939 0.50777 0.12509   -0.568293
 O 0.12509 0.38775 0.97939   -0.568293
 O 0.49223 0.61225 0.02061   -0.568293
 O 0.61225 0.49223 0.87491   -0.568293
 O 0.87491 0.02061 0.61225   -0.568293
 O 0.02061 0.87491 0.49223   -0.568293
 O 0.02061 0.61225 0.87491   -0.568293
 O 0.87491 0.49223 0.02061   -0.568293
 O 0.61225 0.02061 0.49223   -0.568293
 O 0.49223 0.87491 0.61225   -0.568293
 O 0.87491 0.61225 0.49223   -0.568293
 O 0.02061 0.49223 0.61225   -0.568293
 O 0.49223 0.02061 0.87491   -0.568293
 O 0.61225 0.87491 0.02061   -0.568293
 O 0.61225 0.49223 0.02061   -0.568293
 O 0.49223 0.61225 0.87491   -0.568293
 O 0.02061 0.87491 0.61225   -0.568293
 O 0.87491 0.02061 0.49223   -0.568293
 O 0.61225 0.02061 0.87491   -0.568293
 O 0.49223 0.87491 0.02061   -0.568293
 O 0.02061 0.61225 0.49223   -0.568293
 O 0.87491 0.49223 0.61225   -0.568293
 O 0.61225 0.87491 0.49223   -0.568293
 O 0.49223 0.02061 0.61225   -0.568293
 O 0.02061 0.49223 0.87491   -0.568293
 O 0.87491 0.61225 0.02061   -0.568293
 O 0.50777 0.38775 0.97939   -0.568293
 O 0.38775 0.50777 0.12509   -0.568293
 O 0.12509 0.97939 0.38775   -0.568293
 O 0.97939 0.12509 0.50777   -0.568293
 O 0.97939 0.38775 0.12509   -0.568293
 O 0.12509 0.50777 0.97939   -0.568293
 O 0.38775 0.97939 0.50777   -0.568293
 O 0.50777 0.12509 0.38775   -0.568293
 O 0.12509 0.38775 0.50777   -0.568293
 O 0.97939 0.50777 0.38775   -0.568293
 O 0.50777 0.97939 0.12509   -0.568293
 O 0.38775 0.12509 0.97939   -0.568293
