{'_ref': 'TBD', '_srcid': 'CAKYAQ_clean', 'submitters': [{'name': 'Dalar Nazarian Jeff Camp and David Sholl', 'email': 'dalar@gatech.edu jcamp6@gatech.edu'}], '_method': 'VASP DFT with PBE;DDEC'}
data_CuH2(C3O2)2
_symmetry_space_group_name_H-M   'P 1'
_cell_length_a   18.57439977
_cell_length_b   18.57439980
_cell_length_c   18.57440000
_cell_angle_alpha   59.99999965
_cell_angle_beta   59.99999960
_cell_angle_gamma   60.00000081
_symmetry_Int_Tables_number   1
_chemical_formula_structural   CuH2(C3O2)2
_chemical_formula_sum   'Cu12 H24 C72 O48'
_cell_volume   4531.36842412
_cell_formula_units_Z   12
loop_
 _symmetry_equiv_pos_site_id
 _symmetry_equiv_pos_as_xyz
  1  'x, y, z'
loop_
 _atom_site_label
 _atom_site_fract_x
 _atom_site_fract_y
 _atom_site_fract_z
 _atom_site_charge
 Cu 0.4328 0.5672 0.0   0.926259
 Cu 0.5672 0.4328 0.0   0.926258
 Cu 0.0 0.0 0.4328   0.926258
 Cu 0.0 0.0 0.5672   0.926257
 Cu 0.4328 0.0 0.0   0.926259
 Cu 0.5672 0.0 0.0   0.926258
 Cu 0.0 0.4328 0.5672   0.926259
 Cu 0.0 0.5672 0.4328   0.926258
 Cu 0.4328 0.0 0.5672   0.926259
 Cu 0.5672 0.0 0.4328   0.926258
 Cu 0.0 0.5672 0.0   0.926259
 Cu 0.0 0.4328 0.0   0.926258
 H 0.4886 0.2706 0.9702   0.117624
 H 0.2706 0.4886 0.2706   0.117624
 H 0.9702 0.2706 0.4886   0.117624
 H 0.2706 0.9702 0.2706   0.117624
 H 0.4886 0.9702 0.2706   0.117624
 H 0.2706 0.2706 0.9702   0.117624
 H 0.9702 0.4886 0.2706   0.117624
 H 0.2706 0.2706 0.4886   0.117624
 H 0.4886 0.2706 0.2706   0.117624
 H 0.2706 0.9702 0.4886   0.117624
 H 0.9702 0.2706 0.2706   0.117624
 H 0.2706 0.4886 0.9702   0.117624
 H 0.7294 0.5114 0.0298   0.117624
 H 0.5114 0.7294 0.7294   0.117624
 H 0.7294 0.0298 0.5114   0.117624
 H 0.0298 0.7294 0.7294   0.117624
 H 0.0298 0.5114 0.7294   0.117624
 H 0.7294 0.7294 0.0298   0.117624
 H 0.5114 0.0298 0.7294   0.117624
 H 0.7294 0.7294 0.5114   0.117624
 H 0.7294 0.5114 0.7294   0.117624
 H 0.0298 0.7294 0.5114   0.117624
 H 0.7294 0.0298 0.7294   0.117624
 H 0.5114 0.7294 0.0298   0.117624
 C 0.38633 0.38633 0.97079   -0.162782
 C 0.43102 0.43102 0.97562   0.675845
 C 0.38633 0.38633 0.25655   -0.162782
 C 0.43102 0.43102 0.16234   0.675845
 C 0.97079 0.25655 0.38633   -0.162782
 C 0.97562 0.16234 0.43102   0.675845
 C 0.25655 0.97079 0.38633   -0.162782
 C 0.16234 0.97562 0.43102   0.675845
 C 0.38633 0.97079 0.25655   -0.162782
 C 0.43102 0.97562 0.16234   0.675845
 C 0.38633 0.25655 0.97079   -0.162782
 C 0.43102 0.16234 0.97562   0.675845
 C 0.97079 0.38633 0.38633   -0.162782
 C 0.97562 0.43102 0.43102   0.675845
 C 0.25655 0.38633 0.38633   -0.162782
 C 0.16234 0.43102 0.43102   0.675845
 C 0.38633 0.25655 0.38633   -0.162782
 C 0.43102 0.16234 0.43102   0.675845
 C 0.38633 0.97079 0.38633   -0.162782
 C 0.43102 0.97562 0.43102   0.675845
 C 0.97079 0.38633 0.25655   -0.162782
 C 0.97562 0.43102 0.16234   0.675845
 C 0.25655 0.38633 0.97079   -0.162782
 C 0.16234 0.43102 0.97562   0.675845
 C 0.61367 0.61367 0.02921   -0.162782
 C 0.56898 0.56898 0.02438   0.675845
 C 0.61367 0.61367 0.74345   -0.162782
 C 0.56898 0.56898 0.83766   0.675844
 C 0.74345 0.02921 0.61367   -0.162782
 C 0.83766 0.02438 0.56898   0.675845
 C 0.02921 0.74345 0.61367   -0.162782
 C 0.02438 0.83766 0.56898   0.675845
 C 0.02921 0.61367 0.74345   -0.162782
 C 0.02438 0.56898 0.83766   0.675845
 C 0.74345 0.61367 0.02921   -0.162782
 C 0.83766 0.56898 0.02438   0.675845
 C 0.61367 0.02921 0.61367   -0.162782
 C 0.56898 0.02438 0.56898   0.675845
 C 0.61367 0.74345 0.61367   -0.162782
 C 0.56898 0.83766 0.56898   0.675845
 C 0.74345 0.61367 0.61367   -0.162782
 C 0.83766 0.56898 0.56898   0.675845
 C 0.02921 0.61367 0.61367   -0.162782
 C 0.02438 0.56898 0.56898   0.675845
 C 0.61367 0.02921 0.74345   -0.162782
 C 0.56898 0.02438 0.83766   0.675845
 C 0.61367 0.74345 0.02921   -0.162782
 C 0.56898 0.83766 0.02438   0.675845
 C 0.42932 0.30006 0.97056   0.030391
 C 0.30006 0.42932 0.30006   0.030391
 C 0.97056 0.30006 0.42932   0.030391
 C 0.30006 0.97056 0.30006   0.030391
 C 0.42932 0.97056 0.30006   0.030391
 C 0.30006 0.30006 0.97056   0.030391
 C 0.97056 0.42932 0.30006   0.030391
 C 0.30006 0.30006 0.42932   0.030391
 C 0.42932 0.30006 0.30006   0.030391
 C 0.30006 0.97056 0.42932   0.030391
 C 0.97056 0.30006 0.30006   0.030391
 C 0.30006 0.42932 0.97056   0.030391
 C 0.69994 0.57068 0.02944   0.030391
 C 0.57068 0.69994 0.69994   0.03039
 C 0.69994 0.02944 0.57068   0.030391
 C 0.02944 0.69994 0.69994   0.030391
 C 0.02944 0.57068 0.69994   0.030391
 C 0.69994 0.69994 0.02944   0.030391
 C 0.57068 0.02944 0.69994   0.030391
 C 0.69994 0.69994 0.57068   0.03039
 C 0.69994 0.57068 0.69994   0.03039
 C 0.02944 0.69994 0.57068   0.030391
 C 0.69994 0.02944 0.69994   0.030391
 C 0.57068 0.69994 0.02944   0.030391
 O 0.38744 0.5081 0.97936   -0.562104
 O 0.5081 0.38744 0.1251   -0.562103
 O 0.97936 0.1251 0.38744   -0.562103
 O 0.1251 0.97936 0.5081   -0.562103
 O 0.38744 0.97936 0.1251   -0.562103
 O 0.5081 0.1251 0.97936   -0.562103
 O 0.97936 0.38744 0.5081   -0.562104
 O 0.1251 0.5081 0.38744   -0.562103
 O 0.38744 0.1251 0.5081   -0.562103
 O 0.5081 0.97936 0.38744   -0.562104
 O 0.97936 0.5081 0.1251   -0.562103
 O 0.1251 0.38744 0.97936   -0.562103
 O 0.4919 0.61256 0.02064   -0.562104
 O 0.61256 0.4919 0.8749   -0.562103
 O 0.8749 0.02064 0.61256   -0.562103
 O 0.02064 0.8749 0.4919   -0.562103
 O 0.02064 0.61256 0.8749   -0.562103
 O 0.8749 0.4919 0.02064   -0.562103
 O 0.61256 0.02064 0.4919   -0.562104
 O 0.4919 0.8749 0.61256   -0.562103
 O 0.8749 0.61256 0.4919   -0.562103
 O 0.02064 0.4919 0.61256   -0.562104
 O 0.4919 0.02064 0.8749   -0.562103
 O 0.61256 0.8749 0.02064   -0.562103
 O 0.61256 0.4919 0.02064   -0.562104
 O 0.4919 0.61256 0.8749   -0.562103
 O 0.02064 0.8749 0.61256   -0.562103
 O 0.8749 0.02064 0.4919   -0.562103
 O 0.61256 0.02064 0.8749   -0.562103
 O 0.4919 0.8749 0.02064   -0.562103
 O 0.02064 0.61256 0.4919   -0.562104
 O 0.8749 0.4919 0.61256   -0.562103
 O 0.61256 0.8749 0.4919   -0.562103
 O 0.4919 0.02064 0.61256   -0.562104
 O 0.02064 0.4919 0.8749   -0.562103
 O 0.8749 0.61256 0.02064   -0.562103
 O 0.5081 0.38744 0.97936   -0.562104
 O 0.38744 0.5081 0.1251   -0.562103
 O 0.1251 0.97936 0.38744   -0.562103
 O 0.97936 0.1251 0.5081   -0.562103
 O 0.97936 0.38744 0.1251   -0.562103
 O 0.1251 0.5081 0.97936   -0.562103
 O 0.38744 0.97936 0.5081   -0.562104
 O 0.5081 0.1251 0.38744   -0.562103
 O 0.1251 0.38744 0.5081   -0.562103
 O 0.97936 0.5081 0.38744   -0.562104
 O 0.5081 0.97936 0.1251   -0.562103
 O 0.38744 0.1251 0.97936   -0.562103
