{'_ref': 'TBD', '_srcid': 'CAKYAQ_clean', 'submitters': [{'name': 'Dalar Nazarian Jeff Camp and David Sholl', 'email': 'dalar@gatech.edu jcamp6@gatech.edu'}], '_method': 'VASP DFT with PBE;DDEC'}
data_CuH2(C3O2)2
_symmetry_space_group_name_H-M   'P 1'
_cell_length_a   18.55970027
_cell_length_b   18.55970036
_cell_length_c   18.55970000
_cell_angle_alpha   60.00000065
_cell_angle_beta   60.00000048
_cell_angle_gamma   60.00000048
_symmetry_Int_Tables_number   1
_chemical_formula_structural   CuH2(C3O2)2
_chemical_formula_sum   'Cu12 H24 C72 O48'
_cell_volume   4520.61871078
_cell_formula_units_Z   12
loop_
 _symmetry_equiv_pos_site_id
 _symmetry_equiv_pos_as_xyz
  1  'x, y, z'
loop_
 _atom_site_label
 _atom_site_fract_x
 _atom_site_fract_y
 _atom_site_fract_z
 _atom_site_charge
 Cu 0.43126 0.56874 0.0   0.943322
 Cu 0.56874 0.43126 0.0   0.943321
 Cu 0.0 0.0 0.43126   0.943321
 Cu 0.0 0.0 0.56874   0.943321
 Cu 0.43126 0.0 0.0   0.943322
 Cu 0.56874 0.0 0.0   0.943321
 Cu 0.0 0.43126 0.56874   0.943322
 Cu 0.0 0.56874 0.43126   0.943321
 Cu 0.43126 0.0 0.56874   0.943322
 Cu 0.56874 0.0 0.43126   0.943322
 Cu 0.0 0.56874 0.0   0.943322
 Cu 0.0 0.43126 0.0   0.943321
 H 0.4868 0.2726 0.968   0.110163
 H 0.2726 0.4868 0.2726   0.110163
 H 0.968 0.2726 0.4868   0.110163
 H 0.2726 0.968 0.2726   0.110162
 H 0.4868 0.968 0.2726   0.110163
 H 0.2726 0.2726 0.968   0.110163
 H 0.968 0.4868 0.2726   0.110163
 H 0.2726 0.2726 0.4868   0.110163
 H 0.4868 0.2726 0.2726   0.110163
 H 0.2726 0.968 0.4868   0.110163
 H 0.968 0.2726 0.2726   0.110163
 H 0.2726 0.4868 0.968   0.110163
 H 0.7274 0.5132 0.032   0.110163
 H 0.5132 0.7274 0.7274   0.110163
 H 0.7274 0.032 0.5132   0.110163
 H 0.032 0.7274 0.7274   0.110162
 H 0.032 0.5132 0.7274   0.110163
 H 0.7274 0.7274 0.032   0.110162
 H 0.5132 0.032 0.7274   0.110163
 H 0.7274 0.7274 0.5132   0.110163
 H 0.7274 0.5132 0.7274   0.110163
 H 0.032 0.7274 0.5132   0.110163
 H 0.7274 0.032 0.7274   0.110162
 H 0.5132 0.7274 0.032   0.110163
 C 0.3861 0.3861 0.9715   -0.166067
 C 0.4315 0.4315 0.9741   0.679139
 C 0.3861 0.3861 0.2563   -0.166067
 C 0.4315 0.4315 0.1629   0.679138
 C 0.9715 0.2563 0.3861   -0.166067
 C 0.9741 0.1629 0.4315   0.679139
 C 0.2563 0.9715 0.3861   -0.166067
 C 0.1629 0.9741 0.4315   0.679139
 C 0.3861 0.9715 0.2563   -0.166067
 C 0.4315 0.9741 0.1629   0.679139
 C 0.3861 0.2563 0.9715   -0.166067
 C 0.4315 0.1629 0.9741   0.679139
 C 0.9715 0.3861 0.3861   -0.166067
 C 0.9741 0.4315 0.4315   0.679139
 C 0.2563 0.3861 0.3861   -0.166067
 C 0.1629 0.4315 0.4315   0.679138
 C 0.3861 0.2563 0.3861   -0.166067
 C 0.4315 0.1629 0.4315   0.679138
 C 0.3861 0.9715 0.3861   -0.166067
 C 0.4315 0.9741 0.4315   0.679139
 C 0.9715 0.3861 0.2563   -0.166067
 C 0.9741 0.4315 0.1629   0.679139
 C 0.2563 0.3861 0.9715   -0.166067
 C 0.1629 0.4315 0.9741   0.679139
 C 0.6139 0.6139 0.0285   -0.166067
 C 0.5685 0.5685 0.0259   0.679139
 C 0.6139 0.6139 0.7437   -0.166067
 C 0.5685 0.5685 0.8371   0.679138
 C 0.7437 0.0285 0.6139   -0.166067
 C 0.8371 0.0259 0.5685   0.679138
 C 0.0285 0.7437 0.6139   -0.166067
 C 0.0259 0.8371 0.5685   0.679138
 C 0.0285 0.6139 0.7437   -0.166067
 C 0.0259 0.5685 0.8371   0.679138
 C 0.7437 0.6139 0.0285   -0.166067
 C 0.8371 0.5685 0.0259   0.679138
 C 0.6139 0.0285 0.6139   -0.166067
 C 0.5685 0.0259 0.5685   0.679139
 C 0.6139 0.7437 0.6139   -0.166067
 C 0.5685 0.8371 0.5685   0.679138
 C 0.7437 0.6139 0.6139   -0.166067
 C 0.8371 0.5685 0.5685   0.679138
 C 0.0285 0.6139 0.6139   -0.166067
 C 0.0259 0.5685 0.5685   0.679139
 C 0.6139 0.0285 0.7437   -0.166067
 C 0.5685 0.0259 0.8371   0.679138
 C 0.6139 0.7437 0.0285   -0.166067
 C 0.5685 0.8371 0.0259   0.679138
 C 0.4284 0.3008 0.97   0.041065
 C 0.3008 0.4284 0.3008   0.041064
 C 0.97 0.3008 0.4284   0.041065
 C 0.3008 0.97 0.3008   0.041065
 C 0.4284 0.97 0.3008   0.041065
 C 0.3008 0.3008 0.97   0.041065
 C 0.97 0.4284 0.3008   0.041065
 C 0.3008 0.3008 0.4284   0.041064
 C 0.4284 0.3008 0.3008   0.041065
 C 0.3008 0.97 0.4284   0.041065
 C 0.97 0.3008 0.3008   0.041065
 C 0.3008 0.4284 0.97   0.041065
 C 0.6992 0.5716 0.03   0.041065
 C 0.5716 0.6992 0.6992   0.041064
 C 0.6992 0.03 0.5716   0.041065
 C 0.03 0.6992 0.6992   0.041065
 C 0.03 0.5716 0.6992   0.041065
 C 0.6992 0.6992 0.03   0.041065
 C 0.5716 0.03 0.6992   0.041065
 C 0.6992 0.6992 0.5716   0.041064
 C 0.6992 0.5716 0.6992   0.041064
 C 0.03 0.6992 0.5716   0.041065
 C 0.6992 0.03 0.6992   0.041065
 C 0.5716 0.6992 0.03   0.041065
 O 0.3873 0.5083 0.9797   -0.56798
 O 0.5083 0.3873 0.1247   -0.56798
 O 0.9797 0.1247 0.3873   -0.56798
 O 0.1247 0.9797 0.5083   -0.56798
 O 0.3873 0.9797 0.1247   -0.56798
 O 0.5083 0.1247 0.9797   -0.56798
 O 0.9797 0.3873 0.5083   -0.56798
 O 0.1247 0.5083 0.3873   -0.56798
 O 0.3873 0.1247 0.5083   -0.56798
 O 0.5083 0.9797 0.3873   -0.56798
 O 0.9797 0.5083 0.1247   -0.56798
 O 0.1247 0.3873 0.9797   -0.56798
 O 0.4917 0.6127 0.0203   -0.56798
 O 0.6127 0.4917 0.8753   -0.56798
 O 0.8753 0.0203 0.6127   -0.56798
 O 0.0203 0.8753 0.4917   -0.56798
 O 0.0203 0.6127 0.8753   -0.56798
 O 0.8753 0.4917 0.0203   -0.56798
 O 0.6127 0.0203 0.4917   -0.56798
 O 0.4917 0.8753 0.6127   -0.56798
 O 0.8753 0.6127 0.4917   -0.56798
 O 0.0203 0.4917 0.6127   -0.56798
 O 0.4917 0.0203 0.8753   -0.56798
 O 0.6127 0.8753 0.0203   -0.56798
 O 0.6127 0.4917 0.0203   -0.56798
 O 0.4917 0.6127 0.8753   -0.56798
 O 0.0203 0.8753 0.6127   -0.56798
 O 0.8753 0.0203 0.4917   -0.56798
 O 0.6127 0.0203 0.8753   -0.56798
 O 0.4917 0.8753 0.0203   -0.56798
 O 0.0203 0.6127 0.4917   -0.56798
 O 0.8753 0.4917 0.6127   -0.56798
 O 0.6127 0.8753 0.4917   -0.56798
 O 0.4917 0.0203 0.6127   -0.56798
 O 0.0203 0.4917 0.8753   -0.56798
 O 0.8753 0.6127 0.0203   -0.56798
 O 0.5083 0.3873 0.9797   -0.56798
 O 0.3873 0.5083 0.1247   -0.56798
 O 0.1247 0.9797 0.3873   -0.56798
 O 0.9797 0.1247 0.5083   -0.56798
 O 0.9797 0.3873 0.1247   -0.56798
 O 0.1247 0.5083 0.9797   -0.56798
 O 0.3873 0.9797 0.5083   -0.56798
 O 0.5083 0.1247 0.3873   -0.56798
 O 0.1247 0.3873 0.5083   -0.56798
 O 0.9797 0.5083 0.3873   -0.56798
 O 0.5083 0.9797 0.1247   -0.56798
 O 0.3873 0.1247 0.9797   -0.56798
