{'_ref': 'TBD', '_srcid': 'CAKYAQ_clean', 'submitters': [{'name': 'Dalar Nazarian Jeff Camp and David Sholl', 'email': 'dalar@gatech.edu jcamp6@gatech.edu'}], '_method': 'VASP DFT with PBE;DDEC'}
data_CuH2(C3O2)2
_symmetry_space_group_name_H-M   'P 1'
_cell_length_a   18.55870029
_cell_length_b   18.55869986
_cell_length_c   18.55870000
_cell_angle_alpha   59.99999975
_cell_angle_beta   60.00000052
_cell_angle_gamma   60.00000060
_symmetry_Int_Tables_number   1
_chemical_formula_structural   CuH2(C3O2)2
_chemical_formula_sum   'Cu12 H24 C72 O48'
_cell_volume   4519.88789188
_cell_formula_units_Z   12
loop_
 _symmetry_equiv_pos_site_id
 _symmetry_equiv_pos_as_xyz
  1  'x, y, z'
loop_
 _atom_site_label
 _atom_site_fract_x
 _atom_site_fract_y
 _atom_site_fract_z
 _atom_site_charge
 Cu 0.43238 0.56762 0.0   0.934992
 Cu 0.56762 0.43238 0.0   0.934992
 Cu 0.0 0.0 0.43238   0.934992
 Cu 0.0 0.0 0.56762   0.934991
 Cu 0.43238 0.0 0.0   0.934992
 Cu 0.56762 0.0 0.0   0.934992
 Cu 0.0 0.43238 0.56762   0.934992
 Cu 0.0 0.56762 0.43238   0.934992
 Cu 0.43238 0.0 0.56762   0.934993
 Cu 0.56762 0.0 0.43238   0.934992
 Cu 0.0 0.56762 0.0   0.934992
 Cu 0.0 0.43238 0.0   0.934992
 H 0.4866 0.2718 0.9698   0.111006
 H 0.2718 0.4866 0.2718   0.111006
 H 0.9698 0.2718 0.4866   0.111006
 H 0.2718 0.9698 0.2718   0.111005
 H 0.4866 0.9698 0.2718   0.111006
 H 0.2718 0.2718 0.9698   0.111005
 H 0.9698 0.4866 0.2718   0.111006
 H 0.2718 0.2718 0.4866   0.111006
 H 0.4866 0.2718 0.2718   0.111006
 H 0.2718 0.9698 0.4866   0.111006
 H 0.9698 0.2718 0.2718   0.111005
 H 0.2718 0.4866 0.9698   0.111006
 H 0.7282 0.5134 0.0302   0.111006
 H 0.5134 0.7282 0.7282   0.111006
 H 0.7282 0.0302 0.5134   0.111006
 H 0.0302 0.7282 0.7282   0.111005
 H 0.0302 0.5134 0.7282   0.111006
 H 0.7282 0.7282 0.0302   0.111005
 H 0.5134 0.0302 0.7282   0.111006
 H 0.7282 0.7282 0.5134   0.111006
 H 0.7282 0.5134 0.7282   0.111006
 H 0.0302 0.7282 0.5134   0.111006
 H 0.7282 0.0302 0.7282   0.111005
 H 0.5134 0.7282 0.0302   0.111006
 C 0.3863 0.3863 0.97076   -0.169111
 C 0.4309 0.4309 0.97496   0.685138
 C 0.3863 0.3863 0.25664   -0.16911
 C 0.4309 0.4309 0.16324   0.685138
 C 0.97076 0.25664 0.3863   -0.169111
 C 0.97496 0.16324 0.4309   0.685138
 C 0.25664 0.97076 0.3863   -0.169111
 C 0.16324 0.97496 0.4309   0.685138
 C 0.3863 0.97076 0.25664   -0.169111
 C 0.4309 0.97496 0.16324   0.685138
 C 0.3863 0.25664 0.97076   -0.169111
 C 0.4309 0.16324 0.97496   0.685138
 C 0.97076 0.3863 0.3863   -0.169111
 C 0.97496 0.4309 0.4309   0.685138
 C 0.25664 0.3863 0.3863   -0.16911
 C 0.16324 0.4309 0.4309   0.685138
 C 0.3863 0.25664 0.3863   -0.16911
 C 0.4309 0.16324 0.4309   0.685138
 C 0.3863 0.97076 0.3863   -0.169111
 C 0.4309 0.97496 0.4309   0.685138
 C 0.97076 0.3863 0.25664   -0.169111
 C 0.97496 0.4309 0.16324   0.685138
 C 0.25664 0.3863 0.97076   -0.169111
 C 0.16324 0.4309 0.97496   0.685138
 C 0.6137 0.6137 0.02924   -0.169111
 C 0.5691 0.5691 0.02504   0.685138
 C 0.6137 0.6137 0.74336   -0.16911
 C 0.5691 0.5691 0.83676   0.685138
 C 0.74336 0.02924 0.6137   -0.169111
 C 0.83676 0.02504 0.5691   0.685138
 C 0.02924 0.74336 0.6137   -0.169111
 C 0.02504 0.83676 0.5691   0.685138
 C 0.02924 0.6137 0.74336   -0.169111
 C 0.02504 0.5691 0.83676   0.685138
 C 0.74336 0.6137 0.02924   -0.169111
 C 0.83676 0.5691 0.02504   0.685138
 C 0.6137 0.02924 0.6137   -0.16911
 C 0.5691 0.02504 0.5691   0.685138
 C 0.6137 0.74336 0.6137   -0.16911
 C 0.5691 0.83676 0.5691   0.685138
 C 0.74336 0.6137 0.6137   -0.16911
 C 0.83676 0.5691 0.5691   0.685138
 C 0.02924 0.6137 0.6137   -0.169111
 C 0.02504 0.5691 0.5691   0.685138
 C 0.6137 0.02924 0.74336   -0.169111
 C 0.5691 0.02504 0.83676   0.685138
 C 0.6137 0.74336 0.02924   -0.169111
 C 0.5691 0.83676 0.02504   0.685138
 C 0.42854 0.3006 0.97026   0.040993
 C 0.3006 0.42854 0.3006   0.040993
 C 0.97026 0.3006 0.42854   0.040993
 C 0.3006 0.97026 0.3006   0.040994
 C 0.42854 0.97026 0.3006   0.040993
 C 0.3006 0.3006 0.97026   0.040994
 C 0.97026 0.42854 0.3006   0.040993
 C 0.3006 0.3006 0.42854   0.040993
 C 0.42854 0.3006 0.3006   0.040993
 C 0.3006 0.97026 0.42854   0.040993
 C 0.97026 0.3006 0.3006   0.040994
 C 0.3006 0.42854 0.97026   0.040993
 C 0.6994 0.57146 0.02974   0.040993
 C 0.57146 0.6994 0.6994   0.040993
 C 0.6994 0.02974 0.57146   0.040993
 C 0.02974 0.6994 0.6994   0.040993
 C 0.02974 0.57146 0.6994   0.040993
 C 0.6994 0.6994 0.02974   0.040993
 C 0.57146 0.02974 0.6994   0.040993
 C 0.6994 0.6994 0.57146   0.040993
 C 0.6994 0.57146 0.6994   0.040993
 C 0.02974 0.6994 0.57146   0.040993
 C 0.6994 0.02974 0.6994   0.040993
 C 0.57146 0.6994 0.02974   0.040993
 O 0.38765 0.50769 0.97925   -0.567761
 O 0.50769 0.38765 0.12541   -0.567761
 O 0.97925 0.12541 0.38765   -0.567761
 O 0.12541 0.97925 0.50769   -0.567761
 O 0.38765 0.97925 0.12541   -0.567761
 O 0.50769 0.12541 0.97925   -0.567761
 O 0.97925 0.38765 0.50769   -0.567761
 O 0.12541 0.50769 0.38765   -0.567761
 O 0.38765 0.12541 0.50769   -0.567761
 O 0.50769 0.97925 0.38765   -0.567761
 O 0.97925 0.50769 0.12541   -0.567761
 O 0.12541 0.38765 0.97925   -0.567761
 O 0.49231 0.61235 0.02075   -0.567761
 O 0.61235 0.49231 0.87459   -0.567761
 O 0.87459 0.02075 0.61235   -0.567761
 O 0.02075 0.87459 0.49231   -0.567761
 O 0.02075 0.61235 0.87459   -0.567761
 O 0.87459 0.49231 0.02075   -0.567761
 O 0.61235 0.02075 0.49231   -0.567761
 O 0.49231 0.87459 0.61235   -0.567761
 O 0.87459 0.61235 0.49231   -0.567761
 O 0.02075 0.49231 0.61235   -0.567761
 O 0.49231 0.02075 0.87459   -0.567761
 O 0.61235 0.87459 0.02075   -0.567761
 O 0.61235 0.49231 0.02075   -0.567761
 O 0.49231 0.61235 0.87459   -0.567761
 O 0.02075 0.87459 0.61235   -0.567761
 O 0.87459 0.02075 0.49231   -0.567761
 O 0.61235 0.02075 0.87459   -0.567761
 O 0.49231 0.87459 0.02075   -0.567761
 O 0.02075 0.61235 0.49231   -0.567761
 O 0.87459 0.49231 0.61235   -0.567761
 O 0.61235 0.87459 0.49231   -0.567761
 O 0.49231 0.02075 0.61235   -0.567761
 O 0.02075 0.49231 0.87459   -0.567761
 O 0.87459 0.61235 0.02075   -0.567761
 O 0.50769 0.38765 0.97925   -0.567761
 O 0.38765 0.50769 0.12541   -0.567761
 O 0.12541 0.97925 0.38765   -0.567761
 O 0.97925 0.12541 0.50769   -0.567761
 O 0.97925 0.38765 0.12541   -0.567761
 O 0.12541 0.50769 0.97925   -0.567761
 O 0.38765 0.97925 0.50769   -0.567761
 O 0.50769 0.12541 0.38765   -0.567761
 O 0.12541 0.38765 0.50769   -0.567761
 O 0.97925 0.50769 0.38765   -0.567761
 O 0.50769 0.97925 0.12541   -0.567761
 O 0.38765 0.12541 0.97925   -0.567761
