{'_ref': 'TBD', '_srcid': 'CAKYAQ_clean', 'submitters': [{'name': 'Dalar Nazarian Jeff Camp and David Sholl', 'email': 'dalar@gatech.edu jcamp6@gatech.edu'}], '_method': 'VASP DFT with PBE;DDEC'}
data_CdNiH10(C4N3)2
_symmetry_space_group_name_H-M   'P 1'
_cell_length_a   7.30900000
_cell_length_b   9.60210007
_cell_length_c   15.26700000
_cell_angle_alpha   90.00000000
_cell_angle_beta   90.00000000
_cell_angle_gamma   110.17200246
_symmetry_Int_Tables_number   1
_chemical_formula_structural   CdNiH10(C4N3)2
_chemical_formula_sum   'Cd2 Ni2 H20 C16 N12'
_cell_volume   1005.74287668
_cell_formula_units_Z   2
loop_
 _symmetry_equiv_pos_site_id
 _symmetry_equiv_pos_as_xyz
  1  'x, y, z'
loop_
 _atom_site_label
 _atom_site_fract_x
 _atom_site_fract_y
 _atom_site_fract_z
 _atom_site_charge
 Cd 0.99622 0.97388 0.75   0.993598
 Cd 0.00378 0.02612 0.25   0.993598
 Ni 0.5 0.0 0.0   -0.014727
 Ni 0.5 0.0 0.5   -0.014727
 H 0.1746 0.2704 0.8076   0.312647
 H 0.4901 0.4653 0.8076   0.067062
 H 0.7967 0.412 0.8076   0.073128
 H 0.9561 0.627 0.8076   0.063633
 H 0.7056 0.7161 0.8076   0.290758
 H 0.8254 0.7296 0.3076   0.312647
 H 0.5099 0.5347 0.3076   0.067062
 H 0.2033 0.588 0.3076   0.073128
 H 0.0439 0.373 0.3076   0.063633
 H 0.2944 0.2839 0.3076   0.290758
 H 0.8254 0.7296 0.1924   0.31265
 H 0.5099 0.5347 0.1924   0.067067
 H 0.2033 0.588 0.1924   0.07313
 H 0.0439 0.373 0.1924   0.063633
 H 0.2944 0.2839 0.1924   0.290755
 H 0.1746 0.2704 0.6924   0.31265
 H 0.4901 0.4653 0.6924   0.067067
 H 0.7967 0.412 0.6924   0.07313
 H 0.9561 0.627 0.6924   0.063633
 H 0.7056 0.7161 0.6924   0.290755
 C 0.6835 0.0168 0.9115   0.125243
 C 0.3037 0.9521 0.9148   0.12169
 C 0.3165 0.9832 0.4115   0.125243
 C 0.6963 0.0479 0.4148   0.12169
 C 0.3165 0.9832 0.0885   0.125228
 C 0.6963 0.0479 0.0852   0.121675
 C 0.6835 0.0168 0.5885   0.125228
 C 0.3037 0.9521 0.5852   0.121675
 C 0.4141 0.2521 0.75   0.137356
 C 0.538 0.411 0.75   -0.163747
 C 0.738 0.455 0.75   -0.136245
 C 0.8659 0.6119 0.75   0.072304
 C 0.5859 0.7479 0.25   0.137356
 C 0.462 0.589 0.25   -0.163747
 C 0.262 0.545 0.25   -0.136245
 C 0.1341 0.3881 0.25   0.072304
 N 0.7931 0.0243 0.8577   -0.450809
 N 0.1869 0.927 0.8627   -0.44235
 N 0.2069 0.9757 0.3577   -0.450809
 N 0.8131 0.073 0.3627   -0.44235
 N 0.2069 0.9757 0.1423   -0.450812
 N 0.8131 0.073 0.1373   -0.442353
 N 0.7931 0.0243 0.6423   -0.450812
 N 0.1869 0.927 0.6373   -0.442353
 N 0.2074 0.2174 0.75   -0.613251
 N 0.7966 0.7326 0.75   -0.597266
 N 0.7926 0.7826 0.25   -0.613251
 N 0.2034 0.2674 0.25   -0.597266
