{'_ref': 'TBD', '_srcid': 'CAKYAQ_clean', 'submitters': [{'name': 'Dalar Nazarian Jeff Camp and David Sholl', 'email': 'dalar@gatech.edu jcamp6@gatech.edu'}], '_method': 'VASP DFT with PBE;DDEC'}
data_K3UH25C29S4N5(O7F6)2
_symmetry_space_group_name_H-M   'P 1'
_cell_length_a   11.73410000
_cell_length_b   17.51890007
_cell_length_c   20.15790000
_cell_angle_alpha   99.50999947
_cell_angle_beta   90.00000000
_cell_angle_gamma   90.00000000
_symmetry_Int_Tables_number   1
_chemical_formula_structural   K3UH25C29S4N5(O7F6)2
_chemical_formula_sum   'K6 U2 H50 C58 S8 N10 O28 F24'
_cell_volume   4086.8802187
_cell_formula_units_Z   2
loop_
 _symmetry_equiv_pos_site_id
 _symmetry_equiv_pos_as_xyz
  1  'x, y, z'
loop_
 _atom_site_label
 _atom_site_fract_x
 _atom_site_fract_y
 _atom_site_fract_z
 _atom_site_charge
 K 0.3119 0.59228 0.4543   0.928376
 K 0.4504 0.9402 0.53456   0.954329
 K 0.2602 0.0132 0.97086   0.951064
 K 0.8119 0.40772 0.5457   0.928378
 K 0.9504 0.0598 0.46544   0.954329
 K 0.7602 0.9868 0.02914   0.951066
 U 0.36631 0.96676 0.75381   2.327402
 U 0.86631 0.03324 0.24619   2.327402
 H 0.0939 0.9615 0.8161   0.041302
 H 0.9027 0.967 0.7979   0.127021
 H 0.8391 0.9627 0.6845   0.097226
 H 0.9774 0.9699 0.603   0.128659
 H 0.1656 0.9687 0.6285   0.073268
 H 0.2965 0.8154 0.8327   0.050747
 H 0.274 0.6806 0.8204   0.126572
 H 0.2781 0.6101 0.7164   0.106949
 H 0.2925 0.6704 0.6202   0.128374
 H 0.3136 0.8052 0.6387   0.074318
 H 0.579 0.8481 0.6767   0.058928
 H 0.7465 0.7836 0.6905   0.13575
 H 0.8082 0.7774 0.8006   0.099879
 H 0.693 0.837 0.8914   0.104159
 H 0.5369 0.9021 0.8691   0.051781
 H 0.5915 0.0517 0.684   0.067395
 H 0.7562 0.1214 0.7002   0.157189
 H 0.8103 0.167 0.811   0.099044
 H 0.7038 0.1337 0.8991   0.114476
 H 0.5425 0.0649 0.8761   0.050702
 H 0.3176 0.1069 0.6648   0.039978
 H 0.3049 0.2276 0.6486   0.156339
 H 0.318 0.315 0.7506   0.086808
 H 0.3154 0.2757 0.8542   0.130681
 H 0.3142 0.1416 0.8597   0.054127
 H 0.5939 0.0385 0.1839   0.041302
 H 0.4027 0.033 0.2021   0.127021
 H 0.3391 0.0373 0.3155   0.097226
 H 0.4774 0.0301 0.397   0.128659
 H 0.6656 0.0313 0.3715   0.073268
 H 0.7965 0.1846 0.1673   0.050747
 H 0.774 0.3194 0.1796   0.126572
 H 0.7781 0.3899 0.2836   0.106949
 H 0.7925 0.3296 0.3798   0.128374
 H 0.8136 0.1948 0.3613   0.074318
 H 0.079 0.1519 0.3233   0.058928
 H 0.2465 0.2164 0.3095   0.13575
 H 0.3082 0.2226 0.1994   0.099879
 H 0.193 0.163 0.1086   0.104159
 H 0.0369 0.0979 0.1309   0.051781
 H 0.0915 0.9483 0.316   0.067395
 H 0.2562 0.8786 0.2998   0.157189
 H 0.3103 0.833 0.189   0.099044
 H 0.2038 0.8663 0.1009   0.114476
 H 0.0425 0.9351 0.1239   0.050702
 H 0.8176 0.8931 0.3352   0.039978
 H 0.8049 0.7724 0.3514   0.156339
 H 0.818 0.685 0.2494   0.086808
 H 0.8154 0.7243 0.1458   0.130682
 H 0.8142 0.8584 0.1403   0.054127
 C 0.0692 0.9642 0.7727   0.221899
 C 0.954 0.9657 0.7625   -0.214015
 C 0.9162 0.965 0.6954   0.032052
 C 0.9992 0.9679 0.647   -0.141189
 C 0.1123 0.9677 0.6625   0.214888
 C 0.2963 0.7856 0.79   0.19621
 C 0.2832 0.7046 0.7829   -0.198255
 C 0.2842 0.6637 0.7215   0.020999
 C 0.2941 0.6989 0.6634   -0.141406
 C 0.3065 0.7792 0.6752   0.198333
 C 0.6037 0.8465 0.7202   0.233699
 C 0.7049 0.8067 0.7277   -0.177672
 C 0.7412 0.803 0.7929   0.00383
 C 0.673 0.8393 0.8471   -0.19782
 C 0.5795 0.877 0.8331   0.182213
 C 0.6153 0.0692 0.7279   0.20767
 C 0.7133 0.1109 0.7365   -0.16521
 C 0.7452 0.1367 0.802   0.029001
 C 0.6811 0.1179 0.8547   -0.189928
 C 0.5858 0.0765 0.8404   0.183684
 C 0.3151 0.1442 0.7034   0.239176
 C 0.3104 0.2132 0.6909   -0.154345
 C 0.3149 0.2622 0.7516   0.038093
 C 0.3153 0.239 0.8151   -0.229116
 C 0.3156 0.1596 0.8188   0.219478
 C 0.61 0.6116 0.5443   0.444146
 C 0.1185 0.818 0.4616   0.481653
 C 0.742 0.8205 0.521   0.444094
 C 0.956 0.1818 0.9974   0.447418
 C 0.5692 0.0358 0.2273   0.221899
 C 0.454 0.0343 0.2375   -0.214015
 C 0.4162 0.035 0.3046   0.032052
 C 0.4992 0.0321 0.353   -0.141189
 C 0.6123 0.0323 0.3375   0.214888
 C 0.7963 0.2144 0.21   0.19621
 C 0.7832 0.2954 0.2171   -0.198255
 C 0.7842 0.3363 0.2785   0.020999
 C 0.7941 0.3011 0.3366   -0.141406
 C 0.8065 0.2208 0.3248   0.198333
 C 0.1037 0.1535 0.2798   0.233699
 C 0.2049 0.1933 0.2723   -0.177672
 C 0.2412 0.197 0.2071   0.00383
 C 0.173 0.1607 0.1529   -0.19782
 C 0.0795 0.123 0.1669   0.182213
 C 0.1153 0.9308 0.2721   0.20767
 C 0.2133 0.8891 0.2635   -0.16521
 C 0.2452 0.8633 0.198   0.029001
 C 0.1811 0.8821 0.1453   -0.189928
 C 0.0858 0.9235 0.1596   0.183684
 C 0.8151 0.8558 0.2966   0.239176
 C 0.8104 0.7868 0.3091   -0.154345
 C 0.8149 0.7378 0.2484   0.038093
 C 0.8153 0.761 0.1849   -0.229116
 C 0.8156 0.8404 0.1812   0.219478
 C 0.11 0.3884 0.4557   0.444146
 C 0.6185 0.182 0.5384   0.481653
 C 0.242 0.1795 0.479   0.444094
 C 0.456 0.8182 0.0026   0.447418
 S 0.5762 0.5071 0.53067   1.178724
 S 0.2638 0.7873 0.4571   1.114699
 S 0.7259 0.92035 0.51168   1.180725
 S 0.9912 0.0955 0.9626   1.187246
 S 0.0762 0.4929 0.46933   1.178724
 S 0.7638 0.2127 0.5429   1.114699
 S 0.2259 0.07965 0.48832   1.180725
 S 0.4912 0.9045 0.0374   1.187246
 N 0.1494 0.9663 0.726   -0.521328
 N 0.3083 0.8194 0.7367   -0.496801
 N 0.5414 0.8814 0.7694   -0.496872
 N 0.5493 0.051 0.7784   -0.51062
 N 0.3179 0.1119 0.7603   -0.515781
 N 0.6494 0.0337 0.274   -0.521328
 N 0.8083 0.1806 0.2633   -0.496801
 N 0.0414 0.1186 0.2306   -0.496872
 N 0.0493 0.949 0.2216   -0.51062
 N 0.8179 0.8881 0.2397   -0.515781
 O 0.3962 0.9573 0.6641   -0.838128
 O 0.333 0.9751 0.8441   -0.92305
 O 0.4567 0.5072 0.5148   -0.684045
 O 0.6455 0.4732 0.4751   -0.66852
 O 0.6086 0.4837 0.5941   -0.678965
 O 0.2701 0.7271 0.4004   -0.651906
 O 0.317 0.787 0.5198   -0.63153
 O 0.3218 0.8528 0.4328   -0.743979
 O 0.6434 0.92 0.4589   -0.650798
 O 0.6869 0.954 0.576   -0.645315
 O 0.8415 0.9403 0.496   -0.687199
 O 0.0399 0.056 0.0153   -0.713768
 O 0.0556 0.0928 0.9049   -0.584702
 O 0.8851 0.0563 0.9478   -0.715427
 O 0.8962 0.0427 0.3359   -0.838128
 O 0.833 0.0249 0.1559   -0.92305
 O 0.9567 0.4928 0.4852   -0.684045
 O 0.1455 0.5268 0.5249   -0.66852
 O 0.1086 0.5163 0.4059   -0.678965
 O 0.7701 0.2729 0.5996   -0.651906
 O 0.817 0.213 0.4802   -0.63153
 O 0.8218 0.1472 0.5672   -0.743979
 O 0.1434 0.08 0.5411   -0.650798
 O 0.1869 0.046 0.424   -0.645316
 O 0.3415 0.0597 0.504   -0.687199
 O 0.5399 0.944 0.9847   -0.713768
 O 0.5556 0.9072 0.0951   -0.584702
 O 0.3851 0.9437 0.0522   -0.715427
 F 0.5765 0.6394 0.4899   -0.196509
 F 0.5555 0.6486 0.5963   -0.169645
 F 0.7202 0.6223 0.5536   -0.16699
 F 0.0648 0.7738 0.4858   -0.08425
 F 0.0818 0.843 0.4114   -0.113508
 F 0.121 0.8853 0.5104   -0.265947
 F 0.8177 0.811 0.5676   -0.174081
 F 0.782 0.7768 0.4662   -0.167772
 F 0.641 0.7938 0.5404   -0.194483
 F 0.8939 0.1849 0.0516   -0.147245
 F 0.0376 0.2262 0.0179   -0.127322
 F 0.8916 0.2247 0.9522   -0.247331
 F 0.0765 0.3606 0.5101   -0.196509
 F 0.0555 0.3514 0.4037   -0.169645
 F 0.2202 0.3777 0.4464   -0.16699
 F 0.5648 0.2262 0.5142   -0.08425
 F 0.5818 0.157 0.5886   -0.113508
 F 0.621 0.1147 0.4896   -0.265947
 F 0.3177 0.189 0.4324   -0.174081
 F 0.282 0.2232 0.5338   -0.167772
 F 0.141 0.2062 0.4596   -0.194483
 F 0.3939 0.8151 0.9484   -0.147245
 F 0.5376 0.7738 0.9821   -0.127322
 F 0.3916 0.7753 0.0478   -0.247331
