{'_ref': 'TBD', '_srcid': 'CAKYAQ_clean', 'submitters': [{'name': 'Dalar Nazarian Jeff Camp and David Sholl', 'email': 'dalar@gatech.edu jcamp6@gatech.edu'}], '_method': 'VASP DFT with PBE;DDEC'}
data_UH30C18(NO2)4
_symmetry_space_group_name_H-M   'P 1'
_cell_length_a   10.19190038
_cell_length_b   13.52800045
_cell_length_c   13.52800000
_cell_angle_alpha   75.99799869
_cell_angle_beta   83.81899785
_cell_angle_gamma   83.81899773
_symmetry_Int_Tables_number   1
_chemical_formula_structural   UH30C18(NO2)4
_chemical_formula_sum   'U2 H60 C36 N8 O16'
_cell_volume   1792.79471955
_cell_formula_units_Z   2
loop_
 _symmetry_equiv_pos_site_id
 _symmetry_equiv_pos_as_xyz
  1  'x, y, z'
loop_
 _atom_site_label
 _atom_site_fract_x
 _atom_site_fract_y
 _atom_site_fract_z
 _atom_site_charge
 U 0.75 0.6489 0.3511   1.241217
 U 0.25 0.3511 0.6489   1.241219
 H 0.3991 0.3109 0.2505   0.248813
 H 0.8075 0.427 0.1062   0.089386
 H 0.7407 0.42 0.0092   0.056007
 H 0.6128 0.5104 0.1672   0.040787
 H 0.5459 0.5132 0.067   0.063471
 H 0.6267 0.3295 0.2061   0.106578
 H 0.5556 0.3339 0.1077   0.071797
 H 0.3375 0.4992 0.1272   0.102608
 H 0.2359 0.4345 0.2051   0.124736
 H 0.623 0.6445 0.9545   0.020501
 H 0.7483 0.6882 0.8876   0.068097
 H 0.7317 0.6363 0.1143   -0.026619
 H 0.836 0.6951 0.0339   0.095119
 H 0.5266 0.4102 0.3324   0.145808
 H 0.4136 0.4944 0.2924   0.12095
 H 0.1009 0.7495 0.6891   0.248813
 H 0.6925 0.8938 0.573   0.089386
 H 0.7593 0.9908 0.58   0.056007
 H 0.8872 0.8328 0.4896   0.040787
 H 0.9541 0.933 0.4868   0.063471
 H 0.8733 0.7939 0.6705   0.106578
 H 0.9444 0.8923 0.6661   0.071798
 H 0.1625 0.8728 0.5008   0.102608
 H 0.2641 0.7949 0.5655   0.124736
 H 0.877 0.0455 0.3555   0.020501
 H 0.7517 0.1124 0.3118   0.068097
 H 0.7683 0.8857 0.3637   -0.026619
 H 0.664 0.9661 0.3049   0.09512
 H 0.9734 0.6676 0.5898   0.145808
 H 0.0864 0.7076 0.5056   0.12095
 H 0.6009 0.6891 0.7495   0.248813
 H 0.1925 0.573 0.8938   0.089386
 H 0.2593 0.58 0.9908   0.056005
 H 0.3872 0.4896 0.8328   0.040787
 H 0.4541 0.4868 0.933   0.063471
 H 0.3733 0.6705 0.7939   0.106578
 H 0.4444 0.6661 0.8923   0.071796
 H 0.6625 0.5008 0.8728   0.102606
 H 0.7641 0.5655 0.7949   0.124736
 H 0.377 0.3555 0.0455   0.0205
 H 0.2517 0.3118 0.1124   0.068097
 H 0.2683 0.3637 0.8857   -0.026619
 H 0.164 0.3049 0.9661   0.09512
 H 0.4734 0.5898 0.6676   0.145808
 H 0.5864 0.5056 0.7076   0.12095
 H 0.8991 0.2505 0.3109   0.248813
 H 0.3075 0.1062 0.427   0.089386
 H 0.2407 0.0092 0.42   0.056005
 H 0.1128 0.1672 0.5104   0.040787
 H 0.0459 0.067 0.5132   0.063471
 H 0.1267 0.2061 0.3295   0.106578
 H 0.0556 0.1077 0.3339   0.071796
 H 0.8375 0.1272 0.4992   0.102606
 H 0.7359 0.2051 0.4345   0.124736
 H 0.123 0.9545 0.6445   0.0205
 H 0.2483 0.8876 0.6882   0.068097
 H 0.2317 0.1143 0.6363   -0.026619
 H 0.336 0.0339 0.6951   0.095121
 H 0.0266 0.3324 0.4102   0.145808
 H 0.9136 0.2924 0.4944   0.12095
 C 0.7449 0.4621 0.0575   0.016476
 C 0.6081 0.474 0.1142   -0.171615
 C 0.5618 0.3689 0.1615   -0.05467
 C 0.316 0.4302 0.16   -0.114541
 C 0.7078 0.6257 0.9209   -0.002441
 C 0.814 0.6279 0.0727   -0.158963
 C 0.9234 0.5805 0.1425   0.697928
 C 0.4367 0.4212 0.3122   -0.281995
 C 0.3432 0.3739 0.4017   0.701645
 C 0.7551 0.9425 0.5379   0.016476
 C 0.8919 0.8858 0.526   -0.171615
 C 0.9382 0.8385 0.6311   -0.054671
 C 0.184 0.84 0.5698   -0.114541
 C 0.7922 0.0791 0.3743   -0.002441
 C 0.686 0.9273 0.3721   -0.158963
 C 0.5766 0.8575 0.4195   0.697929
 C 0.0633 0.6878 0.5788   -0.281995
 C 0.1568 0.5983 0.6261   0.701647
 C 0.2551 0.5379 0.9425   0.016477
 C 0.3919 0.526 0.8858   -0.171615
 C 0.4382 0.6311 0.8385   -0.05467
 C 0.684 0.5698 0.84   -0.114541
 C 0.2922 0.3743 0.0791   -0.002441
 C 0.186 0.3721 0.9273   -0.158963
 C 0.0766 0.4195 0.8575   0.697929
 C 0.5633 0.5788 0.6878   -0.281995
 C 0.6568 0.6261 0.5983   0.701645
 C 0.2449 0.0575 0.4621   0.016477
 C 0.1081 0.1142 0.474   -0.171615
 C 0.0618 0.1615 0.3689   -0.05467
 C 0.816 0.16 0.4302   -0.114541
 C 0.2078 0.9209 0.6257   -0.002441
 C 0.314 0.0727 0.6279   -0.158964
 C 0.4234 0.1425 0.5805   0.697929
 C 0.9367 0.3122 0.4212   -0.281995
 C 0.8432 0.4017 0.3739   0.701647
 N 0.7943 0.5639 0.000300000000003   -0.169745
 N 0.4289 0.3741 0.2221   0.087383
 N 0.7057 0.9997 0.4361   -0.169745
 N 0.0711 0.7779 0.6259   0.087383
 N 0.2057 0.4361 0.9997   -0.169745
 N 0.5711 0.6259 0.7779   0.087382
 N 0.2943 0.000300000000003 0.5639   -0.169745
 N 0.9289 0.2221 0.3741   0.087382
 O 0.9151 0.6091 0.2257   -0.717265
 O 0.0142 0.5241 0.1137   -0.574997
 O 0.3438 0.41328 0.47888   -0.595185
 O 0.2806 0.3041 0.3949   -0.610662
 O 0.5849 0.7743 0.3909   -0.717265
 O 0.4858 0.8863 0.4759   -0.574997
 O 0.1562 0.52112 0.58672   -0.595185
 O 0.2194 0.6051 0.6959   -0.610664
 O 0.0849 0.3909 0.7743   -0.717265
 O 0.9858 0.4759 0.8863   -0.574997
 O 0.6562 0.58672 0.52112   -0.595185
 O 0.7194 0.6959 0.6051   -0.610662
 O 0.4151 0.2257 0.6091   -0.717265
 O 0.5142 0.1137 0.5241   -0.574997
 O 0.8438 0.47888 0.41328   -0.595185
 O 0.7806 0.3949 0.3041   -0.610664
