{'_ref': 'TBD', '_srcid': 'CAKYAQ_clean', 'submitters': [{'name': 'Dalar Nazarian Jeff Camp and David Sholl', 'email': 'dalar@gatech.edu jcamp6@gatech.edu'}], '_method': 'VASP DFT with PBE;DDEC'}
data_ZnNi(CN)4
_symmetry_space_group_name_H-M   'P 1'
_cell_length_a   7.44740000
_cell_length_b   7.44740000
_cell_length_c   13.05000000
_cell_angle_alpha   90.00000000
_cell_angle_beta   90.00000000
_cell_angle_gamma   90.00000000
_symmetry_Int_Tables_number   1
_chemical_formula_structural   ZnNi(CN)4
_chemical_formula_sum   'Zn2 Ni2 C8 N8'
_cell_volume   723.802156218
_cell_formula_units_Z   2
loop_
 _symmetry_equiv_pos_site_id
 _symmetry_equiv_pos_as_xyz
  1  'x, y, z'
loop_
 _atom_site_label
 _atom_site_fract_x
 _atom_site_fract_y
 _atom_site_fract_z
 _atom_site_charge
 Zn 0.0 0.0 0.75   0.943589
 Zn 0.0 0.0 0.25   0.943589
 Ni 0.5 0.0 0.0   0.031785
 Ni 0.0 0.5 0.5   0.031785
 C 0.6772 0.0 0.89998   0.165607
 C 0.3228 0.0 0.89998   0.165603
 C 0.0 0.6772 0.39998   0.165607
 C 0.0 0.3228 0.39998   0.165603
 C 0.3228 0.0 0.10002   0.165606
 C 0.6772 0.0 0.10002   0.165603
 C 0.0 0.6772 0.60002   0.165606
 C 0.0 0.3228 0.60002   0.165603
 N 0.7888 0.0 0.83985   -0.409448
 N 0.2112 0.0 0.83985   -0.409448
 N 0.0 0.7888 0.33985   -0.409448
 N 0.0 0.2112 0.33985   -0.409448
 N 0.2112 0.0 0.16015   -0.409448
 N 0.7888 0.0 0.16015   -0.409448
 N 0.0 0.7888 0.66015   -0.409448
 N 0.0 0.2112 0.66015   -0.409448
