{'_ref': 'TBD', '_srcid': 'CAKYAQ_clean', 'submitters': [{'name': 'Dalar Nazarian Jeff Camp and David Sholl', 'email': 'dalar@gatech.edu jcamp6@gatech.edu'}], '_method': 'VASP DFT with PBE;DDEC'}
data_SrH3(CO)5
_symmetry_space_group_name_H-M   'P 1'
_cell_length_a   8.09870000
_cell_length_b   9.77280022
_cell_length_c   11.18060000
_cell_angle_alpha   97.12689711
_cell_angle_beta   90.00000000
_cell_angle_gamma   114.47799809
_symmetry_Int_Tables_number   1
_chemical_formula_structural   SrH3(CO)5
_chemical_formula_sum   'Sr4 H12 C20 O20'
_cell_volume   797.857060102
_cell_formula_units_Z   4
loop_
 _symmetry_equiv_pos_site_id
 _symmetry_equiv_pos_as_xyz
  1  'x, y, z'
loop_
 _atom_site_label
 _atom_site_fract_x
 _atom_site_fract_y
 _atom_site_fract_z
 _atom_site_charge
 Sr 0.89256 0.51716 0.68609   1.617171
 Sr 0.3754 0.48284 0.81391   1.617289
 Sr 0.10744 0.48284 0.31391   1.61717
 Sr 0.6246 0.51716 0.18609   1.617288
 H 0.9952 0.2536 0.6609   0.481539
 H 0.0962 0.35 0.5885   0.456564
 H 0.3605 0.0522 0.8445   0.100768
 H 0.7416 0.7464 0.8391   0.480685
 H 0.7462 0.65 0.9115   0.456521
 H 0.3083 0.9478 0.6555   0.101204
 H 0.0048 0.7464 0.3391   0.481539
 H 0.9038 0.65 0.4115   0.456564
 H 0.6395 0.9478 0.1555   0.100767
 H 0.2584 0.2536 0.1609   0.480685
 H 0.2538 0.35 0.0885   0.456521
 H 0.6917 0.0522 0.3445   0.101203
 C 0.1953 0.7608 0.8556   0.702883
 C 0.3493 0.884 0.9346   -0.123945
 C 0.43181 0.85182 0.0306   -0.109478
 C 0.41768 0.03096 0.9072   -0.043056
 C 0.36158 0.69756 0.0752   0.774756
 C 0.4345 0.2392 0.6444   0.7026
 C 0.4653 0.116 0.5654   -0.123727
 C 0.57999 0.14818 0.4694   -0.109392
 C 0.38672 0.96904 0.5928   -0.043678
 C 0.66402 0.30244 0.4248   0.773841
 C 0.8047 0.2392 0.1444   0.702883
 C 0.6507 0.116 0.0654   -0.123947
 C 0.56819 0.14818 0.9694   -0.109474
 C 0.58232 0.96904 0.0928   -0.043051
 C 0.63842 0.30244 0.9248   0.774754
 C 0.5655 0.7608 0.3556   0.702599
 C 0.5347 0.884 0.4346   -0.123728
 C 0.42001 0.85182 0.5306   -0.109389
 C 0.61328 0.03096 0.4072   -0.043675
 C 0.33598 0.69756 0.5752   0.77384
 O 0.16992 0.62464 0.8572   -0.771392
 O 0.10148 0.79876 0.7887   -0.667744
 O 0.44419 0.61558 0.0449   -0.822716
 O 0.23326 0.66652 0.1444   -0.681613
 O 0.06747 0.34634 0.6614   -0.913928
 O 0.54528 0.37536 0.6428   -0.771512
 O 0.30272 0.20124 0.7113   -0.667324
 O 0.82861 0.38442 0.4551   -0.822093
 O 0.56674 0.33348 0.3556   -0.681308
 O 0.72113 0.65366 0.8386   -0.912913
 O 0.83008 0.37536 0.1428   -0.771392
 O 0.89852 0.20124 0.2113   -0.667744
 O 0.55581 0.38442 0.9551   -0.822716
 O 0.76674 0.33348 0.8556   -0.681613
 O 0.93253 0.65366 0.3386   -0.913928
 O 0.45472 0.62464 0.3572   -0.771512
 O 0.69728 0.79876 0.2887   -0.667324
 O 0.17139 0.61558 0.5449   -0.822093
 O 0.43326 0.66652 0.6444   -0.681308
 O 0.27887 0.34634 0.1614   -0.912913
