{'_ref': 'TBD', '_srcid': 'CAKYAQ_clean', 'submitters': [{'name': 'Dalar Nazarian Jeff Camp and David Sholl', 'email': 'dalar@gatech.edu jcamp6@gatech.edu'}], '_method': 'VASP DFT with PBE;DDEC'}
data_Cd3H26C40S6(N4O)4
_symmetry_space_group_name_H-M   'P 1'
_cell_length_a   11.34100036
_cell_length_b   12.22999978
_cell_length_c   15.25100000
_cell_angle_alpha   93.34000067
_cell_angle_beta   107.37100121
_cell_angle_gamma   117.03100084
_symmetry_Int_Tables_number   1
_chemical_formula_structural   Cd3H26C40S6(N4O)4
_chemical_formula_sum   'Cd3 H26 C40 S6 N16 O4'
_cell_volume   1750.88368855
_cell_formula_units_Z   1
loop_
 _symmetry_equiv_pos_site_id
 _symmetry_equiv_pos_as_xyz
  1  'x, y, z'
loop_
 _atom_site_label
 _atom_site_fract_x
 _atom_site_fract_y
 _atom_site_fract_z
 _atom_site_charge
 Cd 0.23232 0.29727 0.37193   0.818692
 Cd 0.76768 0.70273 0.62807   0.818692
 Cd 0.0 0.0 0.0   0.800075
 H 0.6711 0.6114 0.124   0.310982
 H 0.5224 0.2981 0.3798   0.071408
 H 0.7431 0.3514 0.4521   0.266186
 H 0.3235 0.4391 0.2134   0.072382
 H 0.1739 0.2423 0.5652   0.088565
 H 0.9693 0.3304 0.3518   0.089041
 H 0.8154 0.7669 0.0713   0.091046
 H 0.6987 0.5045 0.2139   0.089563
 H 0.038 0.2507 0.6463   0.125825
 H 0.4049 0.6688 0.9865   0.129156
 H 0.8664 0.3064 0.5811   0.121799
 H 0.6691 0.9285 0.8924   0.082186
 H 0.4479 0.8147 0.896   0.13326
 H 0.3289 0.3886 0.876   0.310982
 H 0.4776 0.7019 0.6202   0.071408
 H 0.2569 0.6486 0.5479   0.266186
 H 0.6765 0.5609 0.7866   0.072382
 H 0.8261 0.7577 0.4348   0.088565
 H 0.0307 0.6696 0.6482   0.089041
 H 0.1846 0.2331 0.9287   0.091046
 H 0.3013 0.4955 0.7861   0.089563
 H 0.962 0.7493 0.3537   0.125825
 H 0.5951 0.3312 0.0135   0.129155
 H 0.1336 0.6936 0.4189   0.121799
 H 0.3309 0.0715 0.1076   0.082186
 H 0.5521 0.1853 0.104   0.13326
 C 0.5187 0.3455 0.3345   0.189674
 C 0.4698 0.6147 0.4479   0.337693
 C 0.6307 0.398 0.3024   -0.208994
 C 0.0201 0.2333 0.1482   0.373032
 C 0.7566 0.3784 0.3331   0.54342
 C 0.6063 0.7021 0.0398   0.148403
 C 0.122 0.0254 0.2361   0.341495
 C 0.4026 0.4288 0.2365   0.230483
 C 0.1031 0.2619 0.5376   0.121105
 C 0.4874 0.5555 0.1281   0.533907
 C 0.8978 0.3227 0.4576   0.156451
 C 0.9825 0.3142 0.4118   0.072834
 C 0.5086 0.4841 0.2013   -0.207653
 C 0.7399 0.7766 0.0357   0.061762
 C 0.6243 0.468 0.2357   0.04607
 C 0.0233 0.2681 0.5867   -0.137412
 C 0.4958 0.7171 0.9859   -0.099165
 C 0.9202 0.3001 0.5476   -0.094
 C 0.6542 0.8715 0.9312   0.131277
 C 0.5212 0.8028 0.9322   -0.129687
 C 0.4813 0.6545 0.6655   0.189674
 C 0.5302 0.3853 0.5521   0.337693
 C 0.3693 0.602 0.6976   -0.208994
 C 0.9799 0.7667 0.8518   0.373032
 C 0.2434 0.6216 0.6669   0.54342
 C 0.3937 0.2979 0.9602   0.148403
 C 0.878 0.9746 0.7639   0.341495
 C 0.5974 0.5712 0.7635   0.230483
 C 0.8969 0.7381 0.4624   0.121105
 C 0.5126 0.4445 0.8719   0.533907
 C 0.1022 0.6773 0.5424   0.156451
 C 0.0175 0.6858 0.5882   0.072834
 C 0.4914 0.5159 0.7987   -0.207653
 C 0.2601 0.2234 0.9643   0.061762
 C 0.3757 0.532 0.7643   0.04607
 C 0.9767 0.7319 0.4133   -0.137412
 C 0.5042 0.2829 0.0141   -0.099165
 C 0.0798 0.6999 0.4524   -0.094
 C 0.3458 0.1285 0.0688   0.131276
 C 0.4788 0.1972 0.0678   -0.129687
 S 0.29801 0.55365 0.3949   -0.378205
 S 0.1821 0.0606 0.35197   -0.386564
 S 0.954 0.1969 0.03253   -0.391452
 S 0.70199 0.44635 0.6051   -0.378205
 S 0.8179 0.9394 0.64803   -0.386564
 S 0.046 0.8031 0.96747   -0.391453
 N 0.0826 0.2836 0.4501   -0.300694
 N 0.4058 0.3616 0.3017   -0.317638
 N 0.5896 0.6564 0.4842   -0.516176
 N 0.5981 0.6208 0.1011   -0.404373
 N 0.792 0.351 0.4186   -0.378673
 N 0.7633 0.861 0.9829   -0.287262
 N 0.067 0.262 0.2292   -0.515888
 N 0.0768 0.9959 0.1546   -0.490645
 N 0.9174 0.7164 0.5499   -0.300694
 N 0.5942 0.6384 0.6983   -0.317638
 N 0.4104 0.3436 0.5158   -0.516176
 N 0.4019 0.3792 0.8989   -0.404373
 N 0.208 0.649 0.5814   -0.378673
 N 0.2367 0.139 0.0171   -0.287262
 N 0.933 0.738 0.7708   -0.515888
 N 0.9232 0.0041 0.8454   -0.490645
 O 0.3728 0.5506 0.093   -0.469017
 O 0.8206 0.3872 0.2824   -0.464234
 O 0.6272 0.4494 0.907   -0.469017
 O 0.1794 0.6128 0.7176   -0.464234
