{'_ref': 'TBD', '_srcid': 'CAKYAQ_clean', 'submitters': [{'name': 'Dalar Nazarian Jeff Camp and David Sholl', 'email': 'dalar@gatech.edu jcamp6@gatech.edu'}], '_method': 'VASP DFT with PBE;DDEC'}
data_ZnNiH8C15N7O
_symmetry_space_group_name_H-M   'P 1'
_cell_length_a   7.36200006
_cell_length_b   12.94600000
_cell_length_c   13.62800000
_cell_angle_alpha   90.00000000
_cell_angle_beta   91.31200277
_cell_angle_gamma   90.00000000
_symmetry_Int_Tables_number   1
_chemical_formula_structural   ZnNiH8C15N7O
_chemical_formula_sum   'Zn2 Ni2 H16 C30 N14 O2'
_cell_volume   1298.52307765
_cell_formula_units_Z   2
loop_
 _symmetry_equiv_pos_site_id
 _symmetry_equiv_pos_as_xyz
  1  'x, y, z'
loop_
 _atom_site_label
 _atom_site_fract_x
 _atom_site_fract_y
 _atom_site_fract_z
 _atom_site_charge
 Zn 0.50024 0.25 0.08624   0.778344
 Zn 0.49976 0.75 0.91376   0.778344
 Ni 0.0 0.0 0.0   0.182702
 Ni 0.0 0.5 0.0   0.182696
 H 0.5211 0.4044 0.9097   0.087696
 H 0.5636 0.4035 0.7412   0.129558
 H 0.4587 0.4048 0.4337   0.150308
 H 0.5047 0.4027 0.2651   0.080046
 H 0.4789 0.9044 0.0903   0.087696
 H 0.4364 0.9035 0.2588   0.129558
 H 0.5413 0.9048 0.5663   0.150308
 H 0.4953 0.9027 0.7349   0.080046
 H 0.4789 0.5956 0.0903   0.087696
 H 0.4364 0.5965 0.2588   0.129559
 H 0.5413 0.5952 0.5663   0.150316
 H 0.4953 0.5973 0.7349   0.080045
 H 0.5211 0.0956 0.9097   0.087696
 H 0.5636 0.0965 0.7412   0.129559
 H 0.4587 0.0952 0.4337   0.150316
 H 0.5047 0.0973 0.2651   0.080045
 C 0.8277 0.0782 0.0464   0.036671
 C 0.1995 0.0917 0.0378   0.100957
 C 0.5306 0.3418 0.8767   0.151586
 C 0.5517 0.3414 0.7747   -0.172423
 C 0.469 0.3425 0.4002   -0.248227
 C 0.4948 0.3407 0.299   0.177547
 C 0.1723 0.5782 0.9536   0.036671
 C 0.8005 0.5917 0.9622   0.100957
 C 0.4694 0.8418 0.1233   0.151585
 C 0.4483 0.8414 0.2253   -0.172423
 C 0.531 0.8425 0.5998   -0.248227
 C 0.5052 0.8407 0.701   0.177547
 C 0.1723 0.9218 0.9536   0.036667
 C 0.8005 0.9083 0.9622   0.100952
 C 0.4694 0.6582 0.1233   0.151581
 C 0.4483 0.6586 0.2253   -0.172423
 C 0.531 0.6575 0.5998   -0.24823
 C 0.5052 0.6593 0.701   0.177541
 C 0.8277 0.4218 0.0464   0.036667
 C 0.1995 0.4083 0.0378   0.100952
 C 0.5306 0.1582 0.8767   0.151581
 C 0.5517 0.1586 0.7747   -0.172423
 C 0.469 0.1575 0.4002   -0.24823
 C 0.4948 0.1593 0.299   0.177541
 C 0.5547 0.25 0.7239   0.053636
 C 0.5758 0.25 0.615   0.485775
 C 0.4593 0.25 0.4487   0.332616
 C 0.4453 0.75 0.2761   0.053636
 C 0.4242 0.75 0.385   0.485775
 C 0.5407 0.75 0.5513   0.332616
 N 0.3055 0.1398 0.0765   -0.338639
 N 0.7103 0.1336 0.0777   -0.366421
 N 0.6945 0.6398 0.9235   -0.338639
 N 0.2897 0.6336 0.9223   -0.366421
 N 0.6945 0.8602 0.9235   -0.33864
 N 0.2897 0.8664 0.9223   -0.366423
 N 0.3055 0.3602 0.0765   -0.33864
 N 0.7103 0.3664 0.0777   -0.366423
 N 0.5238 0.25 0.929   -0.283225
 N 0.4397 0.25 0.559   -0.4248
 N 0.5057 0.25 0.2489   -0.316231
 N 0.4762 0.75 0.071   -0.283225
 N 0.5603 0.75 0.441   -0.4248
 N 0.4943 0.75 0.7511   -0.316231
 O 0.7312 0.25 0.5774   -0.386113
 O 0.2688 0.75 0.4226   -0.386113
