{'_ref': 'TBD', '_srcid': 'CAKYAQ_clean', 'submitters': [{'name': 'Dalar Nazarian Jeff Camp and David Sholl', 'email': 'dalar@gatech.edu jcamp6@gatech.edu'}], '_method': 'VASP DFT with PBE;DDEC'}
data_CdH10C16(N3O2)2
_symmetry_space_group_name_H-M   'P 1'
_cell_length_a   11.47200000
_cell_length_b   13.76200000
_cell_length_c   25.09000005
_cell_angle_alpha   102.93999978
_cell_angle_beta   90.00000000
_cell_angle_gamma   90.00000000
_symmetry_Int_Tables_number   1
_chemical_formula_structural   CdH10C16(N3O2)2
_chemical_formula_sum   'Cd8 H80 C128 N48 O32'
_cell_volume   3860.55757312
_cell_formula_units_Z   8
loop_
 _symmetry_equiv_pos_site_id
 _symmetry_equiv_pos_as_xyz
  1  'x, y, z'
loop_
 _atom_site_label
 _atom_site_fract_x
 _atom_site_fract_y
 _atom_site_fract_z
 _atom_site_charge
 Cd 0.18128 0.63129 0.27801   0.942157
 Cd 0.81872 0.13129 0.27801   0.942157
 Cd 0.68128 0.63129 0.77801   0.942157
 Cd 0.31872 0.13129 0.77801   0.942157
 Cd 0.81872 0.36871 0.72199   0.942157
 Cd 0.18128 0.86871 0.72199   0.942157
 Cd 0.31872 0.36871 0.22199   0.942157
 Cd 0.68128 0.86871 0.22199   0.942157
 H 0.27 0.1506 0.3433   0.075166
 H 0.73 0.6506 0.3433   0.075166
 H 0.77 0.1506 0.8433   0.075166
 H 0.23 0.6506 0.8433   0.075166
 H 0.73 0.8494 0.6567   0.075166
 H 0.27 0.3494 0.6567   0.075166
 H 0.23 0.8494 0.1567   0.075166
 H 0.77 0.3494 0.1567   0.075166
 H 0.0931 0.2129 0.3274   0.100932
 H 0.9069 0.7129 0.3274   0.100932
 H 0.5931 0.2129 0.8274   0.100932
 H 0.4069 0.7129 0.8274   0.100932
 H 0.9069 0.7871 0.6726   0.100932
 H 0.0931 0.2871 0.6726   0.100932
 H 0.4069 0.7871 0.1726   0.100932
 H 0.5931 0.2871 0.1726   0.100932
 H 0.1166 0.6339 0.4017   0.075319
 H 0.8834 0.1339 0.4017   0.075319
 H 0.6166 0.6339 0.9017   0.075319
 H 0.3834 0.1339 0.9017   0.075319
 H 0.8834 0.3661 0.5983   0.075319
 H 0.1166 0.8661 0.5983   0.075319
 H 0.3834 0.3661 0.0983   0.075319
 H 0.6166 0.8661 0.0983   0.075319
 H 0.1843 0.6221 0.4865   0.150681
 H 0.8157 0.1221 0.4865   0.150681
 H 0.6843 0.6221 0.9865   0.150681
 H 0.3157 0.1221 0.9865   0.150681
 H 0.8157 0.3779 0.5135   0.150681
 H 0.1843 0.8779 0.5135   0.150681
 H 0.3157 0.3779 0.0135   0.150681
 H 0.6843 0.8779 0.0135   0.150681
 H 0.5096 0.6236 0.4292   0.139435
 H 0.4904 0.1236 0.4292   0.139435
 H 0.0096 0.6236 0.9292   0.139435
 H 0.9904 0.1236 0.9292   0.139435
 H 0.4904 0.3764 0.5708   0.139435
 H 0.5096 0.8764 0.5708   0.139435
 H 0.9904 0.3764 0.0708   0.139435
 H 0.0096 0.8764 0.0708   0.139435
 H 0.4295 0.6264 0.3437   0.077249
 H 0.5705 0.1264 0.3437   0.077249
 H 0.9295 0.6264 0.8437   0.077249
 H 0.0705 0.1264 0.8437   0.077249
 H 0.5705 0.3736 0.6563   0.077249
 H 0.4295 0.8736 0.6563   0.077249
 H 0.0705 0.3736 0.1563   0.077249
 H 0.9295 0.8736 0.1563   0.077249
 H 0.365 0.6202 0.6191   0.133978
 H 0.635 0.1202 0.6191   0.133978
 H 0.865 0.6202 0.1191   0.133978
 H 0.135 0.1202 0.1191   0.133978
 H 0.635 0.3798 0.3809   0.133978
 H 0.365 0.8798 0.3809   0.133978
 H 0.135 0.3798 0.8809   0.133978
 H 0.865 0.8798 0.8809   0.133978
 H 0.4368 0.6178 0.7054   0.069972
 H 0.5632 0.1178 0.7054   0.069972
 H 0.9368 0.6178 0.2054   0.069972
 H 0.0632 0.1178 0.2054   0.069972
 H 0.5632 0.3822 0.2946   0.069972
 H 0.4368 0.8822 0.2946   0.069972
 H 0.0632 0.3822 0.7946   0.069972
 H 0.9368 0.8822 0.7946   0.069972
 H 0.7601 0.6299 0.6554   0.086911
 H 0.2399 0.1299 0.6554   0.086911
 H 0.2601 0.6299 0.1554   0.086911
 H 0.7399 0.1299 0.1554   0.086911
 H 0.2399 0.3701 0.3446   0.086911
 H 0.7601 0.8701 0.3446   0.086911
 H 0.7399 0.3701 0.8446   0.086911
 H 0.2601 0.8701 0.8446   0.086911
 H 0.6982 0.6392 0.569   0.143414
 H 0.3018 0.1392 0.569   0.143414
 H 0.1982 0.6392 0.069   0.143414
 H 0.8018 0.1392 0.069   0.143414
 H 0.3018 0.3608 0.431   0.143415
 H 0.6982 0.8608 0.431   0.143415
 H 0.8018 0.3608 0.931   0.143415
 H 0.1982 0.8608 0.931   0.143415
 C 0.1392 0.9482 0.3102   0.12758
 C 0.8608 0.4482 0.3102   0.12758
 C 0.6392 0.9482 0.8102   0.12758
 C 0.3608 0.4482 0.8102   0.12758
 C 0.8608 0.0518 0.6898   0.12758
 C 0.1392 0.5518 0.6898   0.12758
 C 0.3608 0.0518 0.1898   0.12758
 C 0.6392 0.5518 0.1898   0.12758
 C 0.0345 0.9847 0.2958   0.030167
 C 0.9655 0.4847 0.2958   0.030167
 C 0.5345 0.9847 0.7958   0.030167
 C 0.4655 0.4847 0.7958   0.030167
 C 0.9655 0.0153 0.7042   0.030167
 C 0.0345 0.5153 0.7042   0.030167
 C 0.4655 0.0153 0.2042   0.030167
 C 0.5345 0.5153 0.2042   0.030167
 C 0.1031 0.1428 0.3216   0.082434
 C 0.8969 0.6428 0.3216   0.082434
 C 0.6031 0.1428 0.8216   0.082434
 C 0.3969 0.6428 0.8216   0.082434
 C 0.8969 0.8572 0.6784   0.082434
 C 0.1031 0.3572 0.6784   0.082434
 C 0.3969 0.8572 0.1784   0.082434
 C 0.6031 0.3572 0.1784   0.082434
 C 0.2075 0.1051 0.3326   0.104423
 C 0.7925 0.6051 0.3326   0.104423
 C 0.7075 0.1051 0.8326   0.104423
 C 0.2925 0.6051 0.8326   0.104423
 C 0.7925 0.8949 0.6674   0.104423
 C 0.2075 0.3949 0.6674   0.104423
 C 0.2925 0.8949 0.1674   0.104423
 C 0.7075 0.3949 0.1674   0.104423
 C 0.1577 0.8371 0.3077   0.623978
 C 0.8423 0.3371 0.3077   0.623978
 C 0.6577 0.8371 0.8077   0.623978
 C 0.3423 0.3371 0.8077   0.623978
 C 0.8423 0.1629 0.6923   0.623978
 C 0.1577 0.6629 0.6923   0.623978
 C 0.3423 0.1629 0.1923   0.623978
 C 0.6577 0.6629 0.1923   0.623978
 C 0.9386 0.916 0.268   0.602504
 C 0.0614 0.416 0.268   0.602504
 C 0.4386 0.916 0.768   0.602504
 C 0.5614 0.416 0.768   0.602504
 C 0.0614 0.084 0.732   0.602504
 C 0.9386 0.584 0.732   0.602504
 C 0.5614 0.084 0.232   0.602504
 C 0.4386 0.584 0.232   0.602504
 C 0.1984 0.6297 0.4068   0.182905
 C 0.8016 0.1297 0.4068   0.182905
 C 0.6984 0.6297 0.9068   0.182905
 C 0.3016 0.1297 0.9068   0.182905
 C 0.8016 0.3703 0.5932   0.182905
 C 0.1984 0.8703 0.5932   0.182905
 C 0.3016 0.3703 0.0932   0.182905
 C 0.6984 0.8703 0.0932   0.182905
 C 0.2376 0.6248 0.4579   -0.243768
 C 0.7624 0.1248 0.4579   -0.243768
 C 0.7376 0.6248 0.9579   -0.243768
 C 0.2624 0.1248 0.9579   -0.243768
 C 0.7624 0.3752 0.5421   -0.243768
 C 0.2376 0.8752 0.5421   -0.243768
 C 0.2624 0.3752 0.0421   -0.243768
 C 0.7376 0.8752 0.0421   -0.243768
 C 0.3539 0.6239 0.4664   0.234998
 C 0.6461 0.1239 0.4664   0.234998
 C 0.8539 0.6239 0.9664   0.234998
 C 0.1461 0.1239 0.9664   0.234998
 C 0.6461 0.3761 0.5336   0.234998
 C 0.3539 0.8761 0.5336   0.234998
 C 0.1461 0.3761 0.0336   0.234998
 C 0.8539 0.8761 0.0336   0.234998
 C 0.4275 0.6246 0.4244   -0.239924
 C 0.5725 0.1246 0.4244   -0.239924
 C 0.9275 0.6246 0.9244   -0.239924
 C 0.0725 0.1246 0.9244   -0.239924
 C 0.5725 0.3754 0.5756   -0.239924
 C 0.4275 0.8754 0.5756   -0.239924
 C 0.0725 0.3754 0.0756   -0.239924
 C 0.9275 0.8754 0.0756   -0.239924
 C 0.3782 0.6267 0.3735   0.191586
 C 0.6218 0.1267 0.3735   0.191586
 C 0.8782 0.6267 0.8735   0.191586
 C 0.1218 0.1267 0.8735   0.191586
 C 0.6218 0.3733 0.6265   0.191586
 C 0.3782 0.8733 0.6265   0.191586
 C 0.1218 0.3733 0.1265   0.191586
 C 0.8782 0.8733 0.1265   0.191586
 C 0.5246 0.6296 0.5849   0.224532
 C 0.4754 0.1296 0.5849   0.224532
 C 0.0246 0.6296 0.0849   0.224532
 C 0.9754 0.1296 0.0849   0.224532
 C 0.4754 0.3704 0.4151   0.224532
 C 0.5246 0.8704 0.4151   0.224532
 C 0.9754 0.3704 0.9151   0.224532
 C 0.0246 0.8704 0.9151   0.224532
 C 0.4466 0.6232 0.6258   -0.218545
 C 0.5534 0.1232 0.6258   -0.218545
 C 0.9466 0.6232 0.1258   -0.218545
 C 0.0534 0.1232 0.1258   -0.218545
 C 0.5534 0.3768 0.3742   -0.218545
 C 0.4466 0.8768 0.3742   -0.218545
 C 0.0534 0.3768 0.8742   -0.218545
 C 0.9466 0.8768 0.8742   -0.218545
 C 0.4905 0.6213 0.6771   0.213376
 C 0.5095 0.1213 0.6771   0.213376
 C 0.9905 0.6213 0.1771   0.213376
 C 0.0095 0.1213 0.1771   0.213376
 C 0.5095 0.3787 0.3229   0.213376
 C 0.4905 0.8787 0.3229   0.213376
 C 0.0095 0.3787 0.8229   0.213376
 C 0.9905 0.8787 0.8229   0.213376
 C 0.6789 0.6293 0.648   0.172091
 C 0.3211 0.1293 0.648   0.172091
 C 0.1789 0.6293 0.148   0.172091
 C 0.8211 0.1293 0.148   0.172091
 C 0.3211 0.3707 0.352   0.172091
 C 0.6789 0.8707 0.352   0.172091
 C 0.8211 0.3707 0.852   0.172091
 C 0.1789 0.8707 0.852   0.172091
 C 0.643 0.6336 0.5964   -0.243993
 C 0.357 0.1336 0.5964   -0.243993
 C 0.143 0.6336 0.0964   -0.243993
 C 0.857 0.1336 0.0964   -0.243993
 C 0.357 0.3664 0.4036   -0.243994
 C 0.643 0.8664 0.4036   -0.243994
 C 0.857 0.3664 0.9036   -0.243994
 C 0.143 0.8664 0.9036   -0.243994
 N 0.2285 0.0089 0.3294   -0.31689
 N 0.7715 0.5089 0.3294   -0.31689
 N 0.7285 0.0089 0.8294   -0.31689
 N 0.2715 0.5089 0.8294   -0.31689
 N 0.7715 0.9911 0.6706   -0.31689
 N 0.2285 0.4911 0.6706   -0.31689
 N 0.2715 0.9911 0.1706   -0.31689
 N 0.7285 0.4911 0.1706   -0.31689
 N 0.0152 0.0826 0.3027   -0.26579
 N 0.9848 0.5826 0.3027   -0.26579
 N 0.5152 0.0826 0.8027   -0.26579
 N 0.4848 0.5826 0.8027   -0.26579
 N 0.9848 0.9174 0.6973   -0.26579
 N 0.0152 0.4174 0.6973   -0.26579
 N 0.4848 0.9174 0.1973   -0.26579
 N 0.5152 0.4174 0.1973   -0.26579
 N 0.2659 0.6291 0.3645   -0.31361
 N 0.7341 0.1291 0.3645   -0.31361
 N 0.7659 0.6291 0.8645   -0.31361
 N 0.2341 0.1291 0.8645   -0.31361
 N 0.7341 0.3709 0.6355   -0.31361
 N 0.2659 0.8709 0.6355   -0.31361
 N 0.2341 0.3709 0.1355   -0.31361
 N 0.7659 0.8709 0.1355   -0.31361
 N 0.6038 0.6242 0.6886   -0.327298
 N 0.3962 0.1242 0.6886   -0.327298
 N 0.1038 0.6242 0.1886   -0.327298
 N 0.8962 0.1242 0.1886   -0.327298
 N 0.3962 0.3758 0.3114   -0.327298
 N 0.6038 0.8758 0.3114   -0.327298
 N 0.8962 0.3758 0.8114   -0.327298
 N 0.1038 0.8758 0.8114   -0.327298
 N 0.3882 0.6205 0.5214   -0.124979
 N 0.6118 0.1205 0.5214   -0.124979
 N 0.8882 0.6205 0.0214   -0.124979
 N 0.1118 0.1205 0.0214   -0.124979
 N 0.6118 0.3795 0.4786   -0.124979
 N 0.3882 0.8795 0.4786   -0.124979
 N 0.1118 0.3795 0.9786   -0.124979
 N 0.8882 0.8795 0.9786   -0.124979
 N 0.4936 0.6308 0.5293   -0.143168
 N 0.5064 0.1308 0.5293   -0.143168
 N 0.9936 0.6308 0.0293   -0.143168
 N 0.0064 0.1308 0.0293   -0.143168
 N 0.5064 0.3692 0.4707   -0.143168
 N 0.4936 0.8692 0.4707   -0.143168
 N 0.0064 0.3692 0.9707   -0.143168
 N 0.9936 0.8692 0.9707   -0.143168
 O 0.2261 0.7929 0.2734   -0.579831
 O 0.7739 0.2929 0.2734   -0.579831
 O 0.7261 0.7929 0.7734   -0.579831
 O 0.2739 0.2929 0.7734   -0.579831
 O 0.7739 0.2071 0.7266   -0.579831
 O 0.2261 0.7071 0.7266   -0.579831
 O 0.2739 0.2071 0.2266   -0.579831
 O 0.7261 0.7071 0.2266   -0.579831
 O 0.1043 0.7987 0.3395   -0.624509
 O 0.8957 0.2987 0.3395   -0.624509
 O 0.6043 0.7987 0.8395   -0.624509
 O 0.3957 0.2987 0.8395   -0.624509
 O 0.8957 0.2013 0.6605   -0.624509
 O 0.1043 0.7013 0.6605   -0.624509
 O 0.3957 0.2013 0.1605   -0.624509
 O 0.6043 0.7013 0.1605   -0.624509
 O 0.9643 0.8307 0.2472   -0.528076
 O 0.0357 0.3307 0.2472   -0.528076
 O 0.4643 0.8307 0.7472   -0.528076
 O 0.5357 0.3307 0.7472   -0.528076
 O 0.0357 0.1693 0.7528   -0.528076
 O 0.9643 0.6693 0.7528   -0.528076
 O 0.5357 0.1693 0.2528   -0.528076
 O 0.4643 0.6693 0.2528   -0.528076
 O 0.8396 0.9543 0.2661   -0.615407
 O 0.1604 0.4543 0.2661   -0.615407
 O 0.3396 0.9543 0.7661   -0.615407
 O 0.6604 0.4543 0.7661   -0.615407
 O 0.1604 0.0457 0.7339   -0.615407
 O 0.8396 0.5457 0.7339   -0.615407
 O 0.6604 0.0457 0.2339   -0.615407
 O 0.3396 0.5457 0.2339   -0.615407
