{'_ref': 'TBD', '_srcid': 'CAKYAQ_clean', 'submitters': [{'name': 'Dalar Nazarian Jeff Camp and David Sholl', 'email': 'dalar@gatech.edu jcamp6@gatech.edu'}], '_method': 'VASP DFT with PBE;DDEC'}
data_GdH3(C3O2)3
_symmetry_space_group_name_H-M   'P 1'
_cell_length_a   10.36350000
_cell_length_b   10.36350000
_cell_length_c   13.83210000
_cell_angle_alpha   90.00000000
_cell_angle_beta   90.00000000
_cell_angle_gamma   90.00000000
_symmetry_Int_Tables_number   1
_chemical_formula_structural   GdH3(C3O2)3
_chemical_formula_sum   'Gd4 H12 C36 O24'
_cell_volume   1485.5970335
_cell_formula_units_Z   4
loop_
 _symmetry_equiv_pos_site_id
 _symmetry_equiv_pos_as_xyz
  1  'x, y, z'
loop_
 _atom_site_label
 _atom_site_fract_x
 _atom_site_fract_y
 _atom_site_fract_z
 _atom_site_charge
 Gd 0.1226 0.8774 0.875   2.25496
 Gd 0.8774 0.1226 0.375   2.25496
 Gd 0.1226 0.1226 0.625   2.25496
 Gd 0.8774 0.8774 0.125   2.25496
 H 0.0644 0.4607 0.8631   0.111692
 H 0.9356 0.5393 0.3631   0.111692
 H 0.5393 0.0644 0.6131   0.111692
 H 0.4607 0.9356 0.1131   0.111692
 H 0.9356 0.4607 0.1369   0.111692
 H 0.0644 0.5393 0.6369   0.111692
 H 0.4607 0.0644 0.3869   0.111692
 H 0.5393 0.9356 0.8869   0.111692
 H 0.0 0.1298 0.0   0.063138
 H 0.0 0.8702 0.5   0.063138
 H 0.8702 0.0 0.75   0.063138
 H 0.1298 0.0 0.25   0.063138
 C 0.0719 0.2097 0.829   0.795122
 C 0.0375 0.4167 0.9182   0.052312
 C 0.0355 0.2838 0.9175   -0.194952
 C 0.9281 0.7903 0.329   0.795122
 C 0.9625 0.5833 0.4182   0.052312
 C 0.9645 0.7162 0.4175   -0.194952
 C 0.7903 0.0719 0.579   0.795122
 C 0.5833 0.0375 0.6682   0.052312
 C 0.7162 0.0355 0.6675   -0.194952
 C 0.2097 0.9281 0.079   0.795122
 C 0.4167 0.9625 0.1682   0.052312
 C 0.2838 0.9645 0.1675   -0.194952
 C 0.9281 0.2097 0.171   0.795122
 C 0.9625 0.4167 0.0818   0.052311
 C 0.9645 0.2838 0.0825   -0.194952
 C 0.0719 0.7903 0.671   0.795122
 C 0.0375 0.5833 0.5818   0.052311
 C 0.0355 0.7162 0.5825   -0.194952
 C 0.2097 0.0719 0.421   0.795122
 C 0.4167 0.0375 0.3318   0.052311
 C 0.2838 0.0355 0.3325   -0.194953
 C 0.7903 0.9281 0.921   0.795122
 C 0.5833 0.9625 0.8318   0.052311
 C 0.7162 0.9645 0.8325   -0.194953
 C 0.0 0.6267 0.0   0.822217
 C 0.0 0.4869 0.0   -0.189646
 C 0.0 0.2196 0.0   0.053438
 C 0.0 0.3733 0.5   0.822217
 C 0.0 0.5131 0.5   -0.189646
 C 0.0 0.7804 0.5   0.053438
 C 0.3733 0.0 0.75   0.822217
 C 0.5131 0.0 0.75   -0.189646
 C 0.7804 0.0 0.75   0.053438
 C 0.6267 0.0 0.25   0.822217
 C 0.4869 0.0 0.25   -0.189646
 C 0.2196 0.0 0.25   0.053438
 O 0.0824 0.6839 0.9476   -0.745251
 O 0.0824 0.2698 0.7506   -0.696315
 O 0.087 0.0918 0.8319   -0.82466
 O 0.9176 0.3161 0.4476   -0.745251
 O 0.9176 0.7302 0.2506   -0.696315
 O 0.913 0.9082 0.3319   -0.82466
 O 0.3161 0.0824 0.6976   -0.745251
 O 0.7302 0.0824 0.5006   -0.696315
 O 0.9082 0.087 0.5819   -0.82466
 O 0.6839 0.9176 0.1976   -0.745251
 O 0.2698 0.9176 0.000599999999999   -0.696315
 O 0.0918 0.913 0.0819   -0.82466
 O 0.9176 0.6839 0.0524   -0.745251
 O 0.9176 0.2698 0.2494   -0.696315
 O 0.913 0.0918 0.1681   -0.82466
 O 0.0824 0.3161 0.5524   -0.745251
 O 0.0824 0.7302 0.7494   -0.696315
 O 0.087 0.9082 0.6681   -0.82466
 O 0.6839 0.0824 0.3024   -0.745251
 O 0.2698 0.0824 0.4994   -0.696315
 O 0.0918 0.087 0.4181   -0.82466
 O 0.3161 0.9176 0.8024   -0.745251
 O 0.7302 0.9176 0.9994   -0.696315
 O 0.9082 0.913 0.9181   -0.82466
