{'_ref': 'TBD', '_srcid': 'CAKYAQ_clean', 'submitters': [{'name': 'Dalar Nazarian Jeff Camp and David Sholl', 'email': 'dalar@gatech.edu jcamp6@gatech.edu'}], '_method': 'VASP DFT with PBE;DDEC'}
data_GdH3(C3O2)3
_symmetry_space_group_name_H-M   'P 1'
_cell_length_a   10.36040000
_cell_length_b   10.36040000
_cell_length_c   14.50590000
_cell_angle_alpha   90.00000000
_cell_angle_beta   90.00000000
_cell_angle_gamma   90.00000000
_symmetry_Int_Tables_number   1
_chemical_formula_structural   GdH3(C3O2)3
_chemical_formula_sum   'Gd4 H12 C36 O24'
_cell_volume   1557.03267186
_cell_formula_units_Z   4
loop_
 _symmetry_equiv_pos_site_id
 _symmetry_equiv_pos_as_xyz
  1  'x, y, z'
loop_
 _atom_site_label
 _atom_site_fract_x
 _atom_site_fract_y
 _atom_site_fract_z
 _atom_site_charge
 Gd 0.14567 0.14567 0.375   2.283441
 Gd 0.85433 0.85433 0.875   2.283441
 Gd 0.85433 0.14567 0.625   2.283441
 Gd 0.14567 0.85433 0.125   2.283441
 H 0.0698 0.5566 0.3717   0.107948
 H 0.9302 0.4434 0.8717   0.107948
 H 0.4434 0.0698 0.6217   0.107948
 H 0.5566 0.9302 0.1217   0.107948
 H 0.9302 0.5566 0.6283   0.107948
 H 0.0698 0.4434 0.1283   0.107948
 H 0.5566 0.0698 0.3783   0.107948
 H 0.4434 0.9302 0.8783   0.107948
 H 0.0 0.8904 0.5   0.074082
 H 0.0 0.1096 0.0   0.074082
 H 0.1096 0.0 0.75   0.074082
 H 0.8904 0.0 0.25   0.074082
 C 0.0828 0.811 0.3394   0.821275
 C 0.0412 0.6022 0.423   0.048008
 C 0.0399 0.7375 0.422   -0.199182
 C 0.9172 0.189 0.8394   0.821275
 C 0.9588 0.3978 0.923   0.048008
 C 0.9601 0.2625 0.922   -0.199182
 C 0.189 0.0828 0.5894   0.821275
 C 0.3978 0.0412 0.673   0.048008
 C 0.2625 0.0399 0.672   -0.199182
 C 0.811 0.9172 0.0894   0.821275
 C 0.6022 0.9588 0.173   0.048008
 C 0.7375 0.9601 0.172   -0.199182
 C 0.9172 0.811 0.6606   0.821275
 C 0.9588 0.6022 0.577   0.048008
 C 0.9601 0.7375 0.578   -0.199182
 C 0.0828 0.189 0.1606   0.821275
 C 0.0412 0.3978 0.077   0.048008
 C 0.0399 0.2625 0.078   -0.199182
 C 0.811 0.0828 0.4106   0.821275
 C 0.6022 0.0412 0.327   0.048008
 C 0.7375 0.0399 0.328   -0.199182
 C 0.189 0.9172 0.9106   0.821275
 C 0.3978 0.9588 0.827   0.048008
 C 0.2625 0.9601 0.828   -0.199182
 C 0.0 0.3893 0.5   0.853577
 C 0.0 0.5371 0.5   -0.206377
 C 0.0 0.8006 0.5   0.05262
 C 0.0 0.6107 0.0   0.853577
 C 0.0 0.4629 0.0   -0.206377
 C 0.0 0.1994 0.0   0.05262
 C 0.6107 0.0 0.75   0.853577
 C 0.4629 0.0 0.75   -0.206377
 C 0.1994 0.0 0.75   0.05262
 C 0.3893 0.0 0.25   0.853577
 C 0.5371 0.0 0.25   -0.206377
 C 0.8006 0.0 0.25   0.05262
 O 0.0692 0.3355 0.4414   -0.770004
 O 0.0895 0.7525 0.2638   -0.753031
 O 0.1069 0.9276 0.3455   -0.783687
 O 0.9308 0.6645 0.9414   -0.770004
 O 0.9105 0.2475 0.7638   -0.753031
 O 0.8931 0.0724 0.8455   -0.783687
 O 0.6645 0.0692 0.6914   -0.770004
 O 0.2475 0.0895 0.5138   -0.753031
 O 0.0724 0.1069 0.5955   -0.783687
 O 0.3355 0.9308 0.1914   -0.770004
 O 0.7525 0.9105 0.0138   -0.753031
 O 0.9276 0.8931 0.0955   -0.783687
 O 0.9308 0.3355 0.5586   -0.770004
 O 0.9105 0.7525 0.7362   -0.753031
 O 0.8931 0.9276 0.6545   -0.783686
 O 0.0692 0.6645 0.0586   -0.770004
 O 0.0895 0.2475 0.2362   -0.753031
 O 0.1069 0.0724 0.1545   -0.783686
 O 0.3355 0.0692 0.3086   -0.770004
 O 0.7525 0.0895 0.4862   -0.753031
 O 0.9276 0.1069 0.4045   -0.783686
 O 0.6645 0.9308 0.8086   -0.770004
 O 0.2475 0.9105 0.9862   -0.753031
 O 0.0724 0.8931 0.9045   -0.783686
