{'_ref': 'TBD', '_srcid': 'CAKYAQ_clean', 'submitters': [{'name': 'Dalar Nazarian Jeff Camp and David Sholl', 'email': 'dalar@gatech.edu jcamp6@gatech.edu'}], '_method': 'VASP DFT with PBE;DDEC'}
data_GdH3(C3O2)3
_symmetry_space_group_name_H-M   'P 1'
_cell_length_a   10.47100000
_cell_length_b   10.47100000
_cell_length_c   14.64500000
_cell_angle_alpha   90.00000000
_cell_angle_beta   90.00000000
_cell_angle_gamma   90.00000000
_symmetry_Int_Tables_number   1
_chemical_formula_structural   GdH3(C3O2)3
_chemical_formula_sum   'Gd4 H12 C36 O24'
_cell_volume   1605.70476145
_cell_formula_units_Z   4
loop_
 _symmetry_equiv_pos_site_id
 _symmetry_equiv_pos_as_xyz
  1  'x, y, z'
loop_
 _atom_site_label
 _atom_site_fract_x
 _atom_site_fract_y
 _atom_site_fract_z
 _atom_site_charge
 Gd 0.14273 0.85727 0.875   2.280157
 Gd 0.85727 0.14273 0.375   2.280157
 Gd 0.14273 0.14273 0.625   2.280157
 Gd 0.85727 0.85727 0.125   2.280157
 H 0.0643 0.444 0.8692   0.112499
 H 0.9357 0.556 0.3692   0.112499
 H 0.556 0.0643 0.6192   0.112499
 H 0.444 0.9357 0.1192   0.112499
 H 0.9357 0.444 0.1308   0.112499
 H 0.0643 0.556 0.6308   0.112499
 H 0.444 0.0643 0.3808   0.112499
 H 0.556 0.9357 0.8808   0.112499
 H 0.0 0.1095 0.0   0.07974
 H 0.0 0.8905 0.5   0.07974
 H 0.8905 0.0 0.75   0.07974
 H 0.1095 0.0 0.25   0.07974
 C 0.0755 0.1897 0.8367   0.809365
 C 0.0384 0.3995 0.9209   0.044821
 C 0.0376 0.2649 0.9206   -0.194412
 C 0.9245 0.8103 0.3367   0.809365
 C 0.9616 0.6005 0.4209   0.044821
 C 0.9624 0.7351 0.4206   -0.194412
 C 0.8103 0.0755 0.5867   0.809365
 C 0.6005 0.0384 0.6709   0.044821
 C 0.7351 0.0376 0.6706   -0.194412
 C 0.1897 0.9245 0.0867   0.809365
 C 0.3995 0.9616 0.1709   0.044821
 C 0.2649 0.9624 0.1706   -0.194412
 C 0.9245 0.1897 0.1633   0.809365
 C 0.9616 0.3995 0.0791   0.044821
 C 0.9624 0.2649 0.0794   -0.194411
 C 0.0755 0.8103 0.6633   0.809365
 C 0.0384 0.6005 0.5791   0.044821
 C 0.0376 0.7351 0.5794   -0.194411
 C 0.1897 0.0755 0.4133   0.809365
 C 0.3995 0.0384 0.3291   0.044822
 C 0.2649 0.0376 0.3294   -0.194411
 C 0.8103 0.9245 0.9133   0.809365
 C 0.6005 0.9616 0.8291   0.044822
 C 0.7351 0.9624 0.8294   -0.194411
 C 0.0 0.6127 0.0   0.844181
 C 0.0 0.4669 0.0   -0.210672
 C 0.0 0.1983 0.0   0.045419
 C 0.0 0.3873 0.5   0.844181
 C 0.0 0.5331 0.5   -0.210672
 C 0.0 0.8017 0.5   0.045419
 C 0.3873 0.0 0.75   0.844181
 C 0.5331 0.0 0.75   -0.210672
 C 0.8017 0.0 0.75   0.045419
 C 0.6127 0.0 0.25   0.844181
 C 0.4669 0.0 0.25   -0.210672
 C 0.1983 0.0 0.25   0.045419
 O 0.0686 0.6682 0.9408   -0.767899
 O 0.0757 0.2475 0.7607   -0.750318
 O 0.1028 0.0762 0.843   -0.773471
 O 0.9314 0.3318 0.4408   -0.767899
 O 0.9243 0.7525 0.2607   -0.750318
 O 0.8972 0.9238 0.343   -0.773471
 O 0.3318 0.0686 0.6908   -0.767899
 O 0.7525 0.0757 0.5107   -0.750318
 O 0.9238 0.1028 0.593   -0.773471
 O 0.6682 0.9314 0.1908   -0.767899
 O 0.2475 0.9243 0.0107   -0.750318
 O 0.0762 0.8972 0.093   -0.773471
 O 0.9314 0.6682 0.0592   -0.767899
 O 0.9243 0.2475 0.2393   -0.750318
 O 0.8972 0.0762 0.157   -0.773471
 O 0.0686 0.3318 0.5592   -0.767899
 O 0.0757 0.7525 0.7393   -0.750318
 O 0.1028 0.9238 0.657   -0.773471
 O 0.6682 0.0686 0.3092   -0.767899
 O 0.2475 0.0757 0.4893   -0.750318
 O 0.0762 0.1028 0.407   -0.773471
 O 0.3318 0.9314 0.8092   -0.767899
 O 0.7525 0.9243 0.9893   -0.750318
 O 0.9238 0.8972 0.907   -0.773471
