{'_ref': 'TBD', '_srcid': 'CAKYAQ_clean', 'submitters': [{'name': 'Dalar Nazarian Jeff Camp and David Sholl', 'email': 'dalar@gatech.edu jcamp6@gatech.edu'}], '_method': 'VASP DFT with PBE;DDEC'}
data_GdH3(C3O2)3
_symmetry_space_group_name_H-M   'P 1'
_cell_length_a   10.31970000
_cell_length_b   10.31970000
_cell_length_c   14.04440000
_cell_angle_alpha   90.00000000
_cell_angle_beta   90.00000000
_cell_angle_gamma   90.00000000
_symmetry_Int_Tables_number   1
_chemical_formula_structural   GdH3(C3O2)3
_chemical_formula_sum   'Gd4 H12 C36 O24'
_cell_volume   1495.6753449
_cell_formula_units_Z   4
loop_
 _symmetry_equiv_pos_site_id
 _symmetry_equiv_pos_as_xyz
  1  'x, y, z'
loop_
 _atom_site_label
 _atom_site_fract_x
 _atom_site_fract_y
 _atom_site_fract_z
 _atom_site_charge
 Gd 0.13679 0.87104 0.91626   2.24975
 Gd 0.86321 0.12896 0.41626   2.24975
 Gd 0.12896 0.13679 0.66626   2.249749
 Gd 0.87104 0.86321 0.16626   2.249749
 H 0.994 0.4544 0.1999   0.117696
 H 0.0084 0.1162 0.0494   0.077348
 H 0.0952 0.4524 0.9217   0.107645
 H 0.006 0.5456 0.6999   0.117696
 H 0.9916 0.8838 0.5494   0.077348
 H 0.9048 0.5476 0.4217   0.107645
 H 0.5456 0.994 0.9499   0.117696
 H 0.8838 0.0084 0.7994   0.077348
 H 0.5476 0.0952 0.6717   0.107645
 H 0.4544 0.006 0.4499   0.117696
 H 0.1162 0.9916 0.2994   0.077348
 H 0.4524 0.9048 0.1717   0.107645
 C 0.0448 0.6226 0.0585   0.829554
 C 0.9583 0.2002 0.2277   0.710741
 C 0.0772 0.2013 0.8833   0.789194
 C 0.044 0.475 0.0591   -0.191513
 C 0.0089 0.4081 0.1425   0.027639
 C 0.9958 0.2723 0.1406   -0.160098
 C 0.0184 0.2076 0.0527   0.045908
 C 0.0537 0.2734 0.9741   -0.18919
 C 0.0682 0.4073 0.9772   0.042957
 C 0.9552 0.3774 0.5585   0.829554
 C 0.0417 0.7998 0.7277   0.710741
 C 0.9228 0.7987 0.3833   0.789194
 C 0.956 0.525 0.5591   -0.191513
 C 0.9911 0.5919 0.6425   0.027639
 C 0.0042 0.7277 0.6406   -0.160098
 C 0.9816 0.7924 0.5527   0.045908
 C 0.9463 0.7266 0.4741   -0.18919
 C 0.9318 0.5927 0.4772   0.042957
 C 0.3774 0.0448 0.8085   0.829554
 C 0.7998 0.9583 0.9777   0.710741
 C 0.7987 0.0772 0.6333   0.789194
 C 0.525 0.044 0.8091   -0.191513
 C 0.5919 0.0089 0.8925   0.02764
 C 0.7277 0.9958 0.8906   -0.160097
 C 0.7924 0.0184 0.8027   0.045908
 C 0.7266 0.0537 0.7241   -0.18919
 C 0.5927 0.0682 0.7272   0.042958
 C 0.6226 0.9552 0.3085   0.829554
 C 0.2002 0.0417 0.4777   0.710741
 C 0.2013 0.9228 0.1333   0.789194
 C 0.475 0.956 0.3091   -0.191513
 C 0.4081 0.9911 0.3925   0.02764
 C 0.2723 0.0042 0.3906   -0.160097
 C 0.2076 0.9816 0.3027   0.045908
 C 0.2734 0.9463 0.2241   -0.18919
 C 0.4073 0.9318 0.2272   0.042958
 O 0.1071 0.675 0.9941   -0.744522
 O 0.9791 0.674 0.1238   -0.756744
 O 0.9918 0.252 0.309   -0.68062
 O 0.8952 0.0943 0.2245   -0.773725
 O 0.072 0.0789 0.8851   -0.817064
 O 0.0929 0.2618 0.8076   -0.684957
 O 0.8929 0.325 0.4941   -0.744522
 O 0.0209 0.326 0.6238   -0.756744
 O 0.0082 0.748 0.809   -0.68062
 O 0.1048 0.9057 0.7245   -0.773725
 O 0.928 0.9211 0.3851   -0.817064
 O 0.9071 0.7382 0.3076   -0.684957
 O 0.325 0.1071 0.7441   -0.744522
 O 0.326 0.9791 0.8738   -0.756744
 O 0.748 0.9918 0.059   -0.68062
 O 0.9057 0.8952 0.9745   -0.773725
 O 0.9211 0.072 0.6351   -0.817064
 O 0.7382 0.0929 0.5576   -0.684957
 O 0.675 0.8929 0.2441   -0.744522
 O 0.674 0.0209 0.3738   -0.756744
 O 0.252 0.0082 0.559   -0.68062
 O 0.0943 0.1048 0.4745   -0.773725
 O 0.0789 0.928 0.1351   -0.817064
 O 0.2618 0.9071 0.0576   -0.684957
