{'_ref': 'TBD', '_srcid': 'CAKYAQ_clean', 'submitters': [{'name': 'Dalar Nazarian Jeff Camp and David Sholl', 'email': 'dalar@gatech.edu jcamp6@gatech.edu'}], '_method': 'VASP DFT with PBE;DDEC'}
data_Ni3H22(C8O5)2
_symmetry_space_group_name_H-M   'P 1'
_cell_length_a   6.38049954
_cell_length_b   10.05600047
_cell_length_c   11.24290000
_cell_angle_alpha   116.56499942
_cell_angle_beta   96.35430202
_cell_angle_gamma   89.99999998
_symmetry_Int_Tables_number   1
_chemical_formula_structural   Ni3H22(C8O5)2
_chemical_formula_sum   'Ni3 H22 C16 O10'
_cell_volume   640.254926942
_cell_formula_units_Z   1
loop_
 _symmetry_equiv_pos_site_id
 _symmetry_equiv_pos_as_xyz
  1  'x, y, z'
loop_
 _atom_site_label
 _atom_site_fract_x
 _atom_site_fract_y
 _atom_site_fract_z
 _atom_site_charge
 Ni 0.0 0.65028 0.0   0.85767
 Ni 0.0 0.34972 0.0   0.857694
 Ni 0.5 0.5 0.0   1.171321
 H 0.5759 0.624 0.654   0.10194
 H 0.4139 0.6206 0.619   0.178654
 H 0.2509 0.565 0.6604   0.142863
 H 0.8603 0.4925 0.5634   0.128844
 H 0.6874 0.597 0.5706   0.155553
 H 0.4241 0.97 0.346   0.100722
 H 0.5861 0.0016 0.381   0.178901
 H 0.7491 0.9046 0.3396   0.142854
 H 0.1397 0.9291 0.4366   0.129411
 H 0.3126 0.0264 0.4294   0.156121
 H 0.4241 0.376 0.346   0.101939
 H 0.5861 0.3794 0.381   0.178648
 H 0.7491 0.435 0.3396   0.142863
 H 0.1397 0.5075 0.4366   0.128842
 H 0.3126 0.403 0.4294   0.155544
 H 0.5759 0.03 0.654   0.100721
 H 0.4139 0.9984 0.619   0.178895
 H 0.2509 0.0954 0.6604   0.142854
 H 0.8603 0.0709 0.5634   0.12941
 H 0.6874 0.9736 0.5706   0.156111
 H 0.8427 0.5765 0.153   0.426065
 H 0.1573 0.4235 0.847   0.426065
 C 0.5703 0.5258 0.6348   -0.031261
 C 0.35 0.5114 0.5922   -0.321569
 C 0.7252 0.4961 0.5428   -0.24791
 C 0.6499 0.5599 0.7772   0.658187
 C 0.4297 0.891 0.3652   -0.029605
 C 0.65 0.9192 0.4078   -0.321902
 C 0.2748 0.9533 0.4572   -0.249213
 C 0.3501 0.7827 0.2228   0.658528
 C 0.4297 0.4742 0.3652   -0.031262
 C 0.65 0.4886 0.4078   -0.321572
 C 0.2748 0.5039 0.4572   -0.247914
 C 0.3501 0.4401 0.2228   0.658187
 C 0.5703 0.109 0.6348   -0.029606
 C 0.35 0.0808 0.5922   -0.321904
 C 0.7252 0.0467 0.5428   -0.249215
 C 0.6499 0.2173 0.7772   0.658529
 O 0.8447 0.5695 0.8102   -0.61512
 O 0.5116 0.5735 0.8544   -0.64402
 O 0.1553 0.7593 0.1898   -0.614923
 O 0.4884 0.7191 0.1456   -0.644684
 O 0.1553 0.4305 0.1898   -0.615123
 O 0.4884 0.4265 0.1456   -0.64402
 O 0.8447 0.2407 0.8102   -0.614925
 O 0.5116 0.2809 0.8544   -0.644685
 O 0.817 0.5288 0.0576   -0.881753
 O 0.183 0.4712 0.9424   -0.881753
