{'_ref': 'TBD', '_srcid': 'CAKYAQ_clean', 'submitters': [{'name': 'Dalar Nazarian Jeff Camp and David Sholl', 'email': 'dalar@gatech.edu jcamp6@gatech.edu'}], '_method': 'VASP DFT with PBE;DDEC'}
data_Cu2H8C12N2O5
_symmetry_space_group_name_H-M   'P 1'
_cell_length_a   12.38900000
_cell_length_b   13.25900021
_cell_length_c   14.14600000
_cell_angle_alpha   90.00000000
_cell_angle_beta   90.00000000
_cell_angle_gamma   112.67599931
_symmetry_Int_Tables_number   1
_chemical_formula_structural   Cu2H8C12N2O5
_chemical_formula_sum   'Cu8 H32 C48 N8 O20'
_cell_volume   2144.08029391
_cell_formula_units_Z   4
loop_
 _symmetry_equiv_pos_site_id
 _symmetry_equiv_pos_as_xyz
  1  'x, y, z'
loop_
 _atom_site_label
 _atom_site_fract_x
 _atom_site_fract_y
 _atom_site_fract_z
 _atom_site_charge
 Cu 0.16466 0.42159 0.59262   0.702604
 Cu 0.52629 0.09291 0.93184   1.022687
 Cu 0.33534 0.07841 0.09262   0.702604
 Cu 0.97371 0.40709 0.43184   1.022687
 Cu 0.83534 0.57841 0.40738   0.702604
 Cu 0.47371 0.90709 0.06816   1.022687
 Cu 0.66466 0.92159 0.90738   0.702604
 Cu 0.02629 0.59291 0.56816   1.022687
 H 0.5667 0.0763 0.7301   0.084385
 H 0.7061 0.1489 0.6175   0.127097
 H 0.9155 0.3389 0.8164   0.126185
 H 0.7699 0.2589 0.9253   0.085227
 H 0.3132 0.297 0.6003   0.078983
 H 0.3871 0.2089 0.7055   0.130738
 H 0.2177 0.2952 0.9107   0.12906
 H 0.1468 0.3771 0.7987   0.075026
 H 0.9333 0.4237 0.2301   0.084385
 H 0.7939 0.3511 0.1175   0.127104
 H 0.5845 0.1611 0.3164   0.126187
 H 0.7301 0.2411 0.4253   0.085231
 H 0.1868 0.203 0.1003   0.078985
 H 0.1129 0.2911 0.2055   0.13074
 H 0.2823 0.2048 0.4107   0.129065
 H 0.3532 0.1229 0.2987   0.075026
 H 0.4333 0.9237 0.2699   0.084389
 H 0.2939 0.8511 0.3825   0.127103
 H 0.0845 0.6611 0.1836   0.12619
 H 0.2301 0.7411 0.0747   0.085227
 H 0.6868 0.703 0.3997   0.078983
 H 0.6129 0.7911 0.2945   0.130738
 H 0.7823 0.7048 0.0893   0.129062
 H 0.8532 0.6229 0.2013   0.075028
 H 0.0667 0.5763 0.7699   0.084389
 H 0.2061 0.6489 0.8825   0.12711
 H 0.4155 0.8389 0.6836   0.126192
 H 0.2699 0.7589 0.5747   0.085231
 H 0.8132 0.797 0.8997   0.078985
 H 0.8871 0.7089 0.7945   0.130741
 H 0.7177 0.7952 0.5893   0.129067
 H 0.6468 0.8771 0.7013   0.075028
 C 0.6382 0.1299 0.7474   0.142454
 C 0.7208 0.1734 0.6796   -0.150209
 C 0.8256 0.2534 0.7036   0.006989
 C 0.8446 0.2855 0.7975   -0.16292
 C 0.7566 0.237 0.8625   0.169011
 C 0.9199 0.3052 0.62944   0.652932
 C 0.2926 0.2954 0.6637   0.154379
 C 0.3387 0.2431 0.7266   -0.144876
 C 0.3118 0.2423 0.8208   -0.009276
 C 0.2381 0.2938 0.8476   -0.154254
 C 0.1958 0.3426 0.7798   0.152589
 C 0.3617 0.1897 0.8939   0.6667
 C 0.8618 0.3701 0.2474   0.142455
 C 0.7792 0.3266 0.1796   -0.150212
 C 0.6744 0.2466 0.2036   0.006989
 C 0.6554 0.2145 0.2975   -0.16292
 C 0.7434 0.263 0.3625   0.16901
 C 0.5801 0.1948 0.12944   0.652932
 C 0.2074 0.2046 0.1637   0.154379
 C 0.1613 0.2569 0.2266   -0.144877
 C 0.1882 0.2577 0.3208   -0.009275
 C 0.2619 0.2062 0.3476   -0.154256
 C 0.3042 0.1574 0.2798   0.15259
 C 0.1383 0.3103 0.3939   0.666699
 C 0.3618 0.8701 0.2526   0.142454
 C 0.2792 0.8266 0.3204   -0.150212
 C 0.1744 0.7466 0.2964   0.006989
 C 0.1554 0.7145 0.2025   -0.162922
 C 0.2434 0.763 0.1375   0.169012
 C 0.0801 0.6948 0.37056   0.652932
 C 0.7074 0.7046 0.3363   0.154379
 C 0.6613 0.7569 0.2734   -0.144876
 C 0.6882 0.7577 0.1792   -0.009276
 C 0.7619 0.7062 0.1524   -0.154255
 C 0.8042 0.6574 0.2202   0.152588
 C 0.6383 0.8103 0.1061   0.666699
 C 0.1382 0.6299 0.7526   0.142454
 C 0.2208 0.6734 0.8204   -0.150214
 C 0.3256 0.7534 0.7964   0.006989
 C 0.3446 0.7855 0.7025   -0.162922
 C 0.2566 0.737 0.6375   0.169011
 C 0.4199 0.8052 0.87056   0.652932
 C 0.7926 0.7954 0.8363   0.154378
 C 0.8387 0.7431 0.7734   -0.144877
 C 0.8118 0.7423 0.6792   -0.009275
 C 0.7381 0.7938 0.6524   -0.154257
 C 0.6958 0.8426 0.7202   0.152588
 C 0.8617 0.6897 0.6061   0.666698
 N 0.6553 0.16136 0.83954   -0.340819
 N 0.221 0.3433 0.68816   -0.322121
 N 0.8447 0.33864 0.33954   -0.340819
 N 0.279 0.1567 0.18816   -0.32212
 N 0.3447 0.83864 0.16046   -0.340819
 N 0.779 0.6567 0.31184   -0.32212
 N 0.1553 0.66136 0.66046   -0.340819
 N 0.721 0.8433 0.81184   -0.32212
 O 0.01664 0.37684 0.66159   -0.62455
 O 0.89859 0.28079 0.54633   -0.593078
 O 0.3342 0.19025 0.97758   -0.580918
 O 0.43077 0.14826 0.85972   -0.607257
 O 0.10859 0.50698 0.50653   -0.816784
 O 0.48336 0.12316 0.16159   -0.62455
 O 0.60141 0.21921 0.04633   -0.593078
 O 0.1658 0.30975 0.47758   -0.580917
 O 0.06923 0.35174 0.35972   -0.607257
 O 0.39141 0.99302 0.00653   -0.816784
 O 0.98336 0.62316 0.33841   -0.62455
 O 0.10141 0.71921 0.45367   -0.593078
 O 0.6658 0.80975 0.02242   -0.580918
 O 0.56923 0.85174 0.14028   -0.607257
 O 0.89141 0.49302 0.49347   -0.816784
 O 0.51664 0.87684 0.83841   -0.62455
 O 0.39859 0.78079 0.95367   -0.593078
 O 0.8342 0.69025 0.52242   -0.580917
 O 0.93077 0.64826 0.64028   -0.607257
 O 0.60859 0.00698 0.99347   -0.816784
