{'_ref': 'TBD', '_srcid': 'CAKYAQ_clean', 'submitters': [{'name': 'Dalar Nazarian Jeff Camp and David Sholl', 'email': 'dalar@gatech.edu jcamp6@gatech.edu'}], '_method': 'VASP DFT with PBE;DDEC'}
data_CdH8C12(NO2)2
_symmetry_space_group_name_H-M   'P 1'
_cell_length_a   12.18100000
_cell_length_b   15.35400000
_cell_length_c   18.78500000
_cell_angle_alpha   90.00000000
_cell_angle_beta   90.00000000
_cell_angle_gamma   90.00000000
_symmetry_Int_Tables_number   1
_chemical_formula_structural   CdH8C12(NO2)2
_chemical_formula_sum   'Cd8 H64 C96 N16 O32'
_cell_volume   3513.30358509
_cell_formula_units_Z   8
loop_
 _symmetry_equiv_pos_site_id
 _symmetry_equiv_pos_as_xyz
  1  'x, y, z'
loop_
 _atom_site_label
 _atom_site_fract_x
 _atom_site_fract_y
 _atom_site_fract_z
 _atom_site_charge
 Cd 0.69302 0.78414 0.18403   0.926837
 Cd 0.80698 0.21586 0.68403   0.926837
 Cd 0.30698 0.28414 0.31597   0.926837
 Cd 0.19302 0.71586 0.81597   0.926837
 Cd 0.30698 0.21586 0.81597   0.926837
 Cd 0.19302 0.78414 0.31597   0.926837
 Cd 0.69302 0.71586 0.68403   0.926837
 Cd 0.80698 0.28414 0.18403   0.926837
 H 0.5177 0.7055 0.2936   0.073359
 H 0.4206 0.5821 0.3227   0.120764
 H 0.6027 0.4497 0.1826   0.134905
 H 0.6939 0.5763 0.1572   0.089998
 H 0.5033 0.8839 0.0951   0.073559
 H 0.3877 0.8732 0.9997   0.129962
 H 0.5445 0.6567 0.9422   0.134717
 H 0.6609 0.6769 0.036   0.075556
 H 0.9823 0.2945 0.7936   0.073359
 H 0.0794 0.4179 0.8227   0.120764
 H 0.8973 0.5503 0.6826   0.134905
 H 0.8061 0.4237 0.6572   0.089998
 H 0.9967 0.1161 0.5951   0.073559
 H 0.1123 0.1268 0.4997   0.129962
 H 0.9555 0.3433 0.4422   0.134717
 H 0.8391 0.3231 0.536   0.075556
 H 0.4823 0.2055 0.2064   0.073359
 H 0.5794 0.0821 0.1773   0.120764
 H 0.3973 0.9497 0.3174   0.134905
 H 0.3061 0.0763 0.3428   0.089998
 H 0.4967 0.3839 0.4049   0.073559
 H 0.6123 0.3732 0.5003   0.129962
 H 0.4555 0.1567 0.5578   0.134717
 H 0.3391 0.1769 0.464   0.075556
 H 0.0177 0.7945 0.7064   0.073359
 H 0.9206 0.9179 0.6773   0.120764
 H 0.1027 0.0503 0.8174   0.134905
 H 0.1939 0.9237 0.8428   0.089998
 H 0.0033 0.6161 0.9049   0.073559
 H 0.8877 0.6268 0.000300000000003   0.129962
 H 0.0445 0.8433 0.0578   0.134717
 H 0.1609 0.8231 0.964   0.075556
 H 0.4823 0.2945 0.7064   0.073359
 H 0.5794 0.4179 0.6773   0.120764
 H 0.3973 0.5503 0.8174   0.134905
 H 0.3061 0.4237 0.8428   0.089998
 H 0.4967 0.1161 0.9049   0.073559
 H 0.6123 0.1268 0.000300000000003   0.129962
 H 0.4555 0.3433 0.0578   0.134717
 H 0.3391 0.3231 0.964   0.075556
 H 0.0177 0.7055 0.2064   0.073359
 H 0.9206 0.5821 0.1773   0.120764
 H 0.1027 0.4497 0.3174   0.134905
 H 0.1939 0.5763 0.3428   0.089998
 H 0.0033 0.8839 0.4049   0.073559
 H 0.8877 0.8732 0.5003   0.129962
 H 0.0445 0.6567 0.5578   0.134717
 H 0.1609 0.6769 0.464   0.075556
 H 0.5177 0.7945 0.7936   0.073359
 H 0.4206 0.9179 0.8227   0.120764
 H 0.6027 0.0503 0.6826   0.134905
 H 0.6939 0.9237 0.6572   0.089998
 H 0.5033 0.6161 0.5951   0.073559
 H 0.3877 0.6268 0.4997   0.129962
 H 0.5445 0.8433 0.4422   0.134717
 H 0.6609 0.8231 0.536   0.075556
 H 0.9823 0.2055 0.2936   0.073359
 H 0.0794 0.0821 0.3227   0.120764
 H 0.8973 0.9497 0.1826   0.134905
 H 0.8061 0.0763 0.1572   0.089998
 H 0.9967 0.3839 0.0951   0.073559
 H 0.1123 0.3732 0.9997   0.129962
 H 0.9555 0.1567 0.9422   0.134717
 H 0.8391 0.1769 0.036   0.075556
 C 0.5344 0.6536 0.2704   0.166231
 C 0.4754 0.5797 0.2882   -0.155815
 C 0.4991 0.503 0.2543   -0.005718
 C 0.5832 0.5013 0.2052   -0.136252
 C 0.6375 0.5775 0.1905   0.161635
 C 0.4354 0.4218 0.2728   0.604701
 C 0.5115 0.8374 0.0639   0.168344
 C 0.4412 0.8309 0.0069   -0.165489
 C 0.4497 0.7624 0.9608   0.004116
 C 0.5344 0.7038 0.9727   -0.158659
 C 0.603 0.7156 0.0296   0.156123
 C 0.3662 0.7476 0.9037   0.606747
 C 0.9656 0.3464 0.7704   0.166231
 C 0.0246 0.4203 0.7882   -0.155815
 C 0.000900000000001 0.497 0.7543   -0.005718
 C 0.9168 0.4987 0.7052   -0.136252
 C 0.8625 0.4225 0.6905   0.161635
 C 0.0646 0.5782 0.7728   0.604701
 C 0.9885 0.1626 0.5639   0.168344
 C 0.0588 0.1691 0.5069   -0.165489
 C 0.0503 0.2376 0.4608   0.004116
 C 0.9656 0.2962 0.4727   -0.158659
 C 0.897 0.2844 0.5296   0.156123
 C 0.1338 0.2524 0.4037   0.606747
 C 0.4656 0.1536 0.2296   0.166231
 C 0.5246 0.0797 0.2118   -0.155815
 C 0.5009 0.003 0.2457   -0.005718
 C 0.4168 0.0013 0.2948   -0.136252
 C 0.3625 0.0775 0.3095   0.161635
 C 0.5646 0.9218 0.2272   0.604701
 C 0.4885 0.3374 0.4361   0.168344
 C 0.5588 0.3309 0.4931   -0.165489
 C 0.5503 0.2624 0.5392   0.004115
 C 0.4656 0.2038 0.5273   -0.158659
 C 0.397 0.2156 0.4704   0.156123
 C 0.6338 0.2476 0.5963   0.606746
 C 0.0344 0.8464 0.7296   0.166231
 C 0.9754 0.9203 0.7118   -0.155815
 C 0.9991 0.997 0.7457   -0.005718
 C 0.0832 0.9987 0.7948   -0.136252
 C 0.1375 0.9225 0.8095   0.161635
 C 0.9354 0.0782 0.7272   0.604701
 C 0.0115 0.6626 0.9361   0.168344
 C 0.9412 0.6691 0.9931   -0.165489
 C 0.9497 0.7376 0.0392   0.004115
 C 0.0344 0.7962 0.0273   -0.158659
 C 0.103 0.7844 0.9704   0.156123
 C 0.8662 0.7524 0.0963   0.606746
 C 0.4656 0.3464 0.7296   0.166231
 C 0.5246 0.4203 0.7118   -0.155815
 C 0.5009 0.497 0.7457   -0.005718
 C 0.4168 0.4987 0.7948   -0.136251
 C 0.3625 0.4225 0.8095   0.161635
 C 0.5646 0.5782 0.7272   0.604701
 C 0.4885 0.1626 0.9361   0.168344
 C 0.5588 0.1691 0.9931   -0.165489
 C 0.5503 0.2376 0.0392   0.004115
 C 0.4656 0.2962 0.0273   -0.158659
 C 0.397 0.2844 0.9704   0.156123
 C 0.6338 0.2524 0.0963   0.606747
 C 0.0344 0.6536 0.2296   0.166231
 C 0.9754 0.5797 0.2118   -0.155815
 C 0.9991 0.503 0.2457   -0.005718
 C 0.0832 0.5013 0.2948   -0.136251
 C 0.1375 0.5775 0.3095   0.161635
 C 0.9354 0.4218 0.2272   0.604701
 C 0.0115 0.8374 0.4361   0.168344
 C 0.9412 0.8309 0.4931   -0.165489
 C 0.9497 0.7624 0.5392   0.004115
 C 0.0344 0.7038 0.5273   -0.158659
 C 0.103 0.7156 0.4704   0.156123
 C 0.8662 0.7476 0.5963   0.606747
 C 0.5344 0.8464 0.7704   0.166231
 C 0.4754 0.9203 0.7882   -0.155815
 C 0.4991 0.997 0.7543   -0.005718
 C 0.5832 0.9987 0.7052   -0.136251
 C 0.6375 0.9225 0.6905   0.161635
 C 0.4354 0.0782 0.7728   0.604701
 C 0.5115 0.6626 0.5639   0.168344
 C 0.4412 0.6691 0.5069   -0.165489
 C 0.4497 0.7376 0.4608   0.004115
 C 0.5344 0.7962 0.4727   -0.158659
 C 0.603 0.7844 0.5296   0.156123
 C 0.3662 0.7524 0.4037   0.606746
 C 0.9656 0.1536 0.2704   0.166231
 C 0.0246 0.0797 0.2882   -0.155815
 C 0.000900000000001 0.003 0.2543   -0.005718
 C 0.9168 0.0013 0.2052   -0.136251
 C 0.8625 0.0775 0.1905   0.161635
 C 0.0646 0.9218 0.2728   0.604701
 C 0.9885 0.3374 0.0639   0.168344
 C 0.0588 0.3309 0.0069   -0.165489
 C 0.0503 0.2624 0.9608   0.004115
 C 0.9656 0.2038 0.9727   -0.158659
 C 0.897 0.2156 0.0296   0.156123
 C 0.1338 0.2476 0.9037   0.606746
 N 0.6134 0.6541 0.2219   -0.364415
 N 0.5906 0.78 0.076   -0.343251
 N 0.8866 0.3459 0.7219   -0.364415
 N 0.9094 0.22 0.576   -0.343251
 N 0.3866 0.1541 0.2781   -0.364415
 N 0.4094 0.28 0.424   -0.343251
 N 0.1134 0.8459 0.7781   -0.364415
 N 0.0906 0.72 0.924   -0.343251
 N 0.3866 0.3459 0.7781   -0.364415
 N 0.4094 0.22 0.924   -0.343251
 N 0.1134 0.6541 0.2781   -0.364415
 N 0.0906 0.78 0.424   -0.343251
 N 0.6134 0.8459 0.7219   -0.364415
 N 0.5906 0.72 0.576   -0.343251
 N 0.8866 0.1541 0.2219   -0.364415
 N 0.9094 0.28 0.076   -0.343251
 O 0.4736 0.3489 0.2574   -0.591092
 O 0.3458 0.4317 0.3053   -0.567247
 O 0.3504 0.6712 0.8826   -0.563332
 O 0.312 0.8114 0.8833   -0.576284
 O 0.0264 0.6511 0.7574   -0.591092
 O 0.1542 0.5683 0.8053   -0.567247
 O 0.1496 0.3288 0.3826   -0.563332
 O 0.188 0.1886 0.3833   -0.576284
 O 0.5264 0.8489 0.2426   -0.591092
 O 0.6542 0.9317 0.1947   -0.567247
 O 0.6496 0.1712 0.6174   -0.563332
 O 0.688 0.3114 0.6167   -0.576284
 O 0.9736 0.1511 0.7426   -0.591092
 O 0.8458 0.0683 0.6947   -0.567247
 O 0.8504 0.8288 0.1174   -0.563332
 O 0.812 0.6886 0.1167   -0.576284
 O 0.5264 0.6511 0.7426   -0.591092
 O 0.6542 0.5683 0.6947   -0.567247
 O 0.6496 0.3288 0.1174   -0.563332
 O 0.688 0.1886 0.1167   -0.576284
 O 0.9736 0.3489 0.2426   -0.591092
 O 0.8458 0.4317 0.1947   -0.567247
 O 0.8504 0.6712 0.6174   -0.563332
 O 0.812 0.8114 0.6167   -0.576284
 O 0.4736 0.1511 0.7574   -0.591092
 O 0.3458 0.0683 0.8053   -0.567247
 O 0.3504 0.8288 0.3826   -0.563332
 O 0.312 0.6886 0.3833   -0.576284
 O 0.0264 0.8489 0.2574   -0.591092
 O 0.1542 0.9317 0.3053   -0.567247
 O 0.1496 0.1712 0.8826   -0.563332
 O 0.188 0.3114 0.8833   -0.576284
