{'_ref': 'TBD', '_srcid': 'CAKYAQ_clean', 'submitters': [{'name': 'Dalar Nazarian Jeff Camp and David Sholl', 'email': 'dalar@gatech.edu jcamp6@gatech.edu'}], '_method': 'VASP DFT with PBE;DDEC'}
data_Co2H6C6N9Cl
_symmetry_space_group_name_H-M   'P 1'
_cell_length_a   7.49140000
_cell_length_b   9.93970000
_cell_length_c   17.38050000
_cell_angle_alpha   90.00000000
_cell_angle_beta   90.00000000
_cell_angle_gamma   90.00000000
_symmetry_Int_Tables_number   1
_chemical_formula_structural   Co2H6C6N9Cl
_chemical_formula_sum   'Co8 H24 C24 N36 Cl4'
_cell_volume   1294.19145905
_cell_formula_units_Z   4
loop_
 _symmetry_equiv_pos_site_id
 _symmetry_equiv_pos_as_xyz
  1  'x, y, z'
loop_
 _atom_site_label
 _atom_site_fract_x
 _atom_site_fract_y
 _atom_site_fract_z
 _atom_site_charge
 Co 0.12709 0.75 0.57937   0.829787
 Co 0.02576 0.75 0.23781   0.486542
 Co 0.37291 0.25 0.07937   0.829787
 Co 0.47424 0.25 0.73781   0.486542
 Co 0.87291 0.25 0.42063   0.829785
 Co 0.97424 0.25 0.76219   0.486529
 Co 0.62709 0.75 0.92063   0.829785
 Co 0.52576 0.75 0.26219   0.486529
 H 0.4514 0.9698 0.6276   0.083315
 H 0.9435 0.9593 0.6806   0.078182
 H 0.0486 0.0302 0.1276   0.083315
 H 0.5565 0.0407 0.1806   0.078182
 H 0.5486 0.4698 0.3724   0.083315
 H 0.0565 0.4593 0.3194   0.078182
 H 0.9514 0.5302 0.8724   0.083315
 H 0.4435 0.5407 0.8194   0.078182
 H 0.5486 0.0302 0.3724   0.083315
 H 0.0565 0.0407 0.3194   0.078182
 H 0.9514 0.9698 0.8724   0.083315
 H 0.4435 0.9593 0.8194   0.078182
 H 0.4514 0.5302 0.6276   0.083315
 H 0.9435 0.5407 0.6806   0.078182
 H 0.0486 0.4698 0.1276   0.083315
 H 0.5565 0.4593 0.1806   0.078182
 H 0.9718 0.75 0.4198   0.078728
 H 0.4867 0.75 0.4594   0.078212
 H 0.5282 0.25 0.9198   0.078728
 H 0.0133 0.25 0.9594   0.078212
 H 0.0282 0.25 0.5802   0.078728
 H 0.5133 0.25 0.5406   0.078212
 H 0.4718 0.75 0.0802   0.078728
 H 0.9867 0.75 0.0406   0.078212
 C 0.3379 0.992 0.64835   0.225818
 C 0.0648 0.9862 0.67686   0.221599
 C 0.1621 0.008 0.14835   0.225818
 C 0.4352 0.0138 0.17686   0.221599
 C 0.6621 0.492 0.35165   0.225818
 C 0.9352 0.4862 0.32314   0.2216
 C 0.8379 0.508 0.85165   0.225818
 C 0.5648 0.5138 0.82314   0.2216
 C 0.6621 0.008 0.35165   0.225817
 C 0.9352 0.0138 0.32314   0.2216
 C 0.8379 0.992 0.85165   0.225817
 C 0.5648 0.9862 0.82314   0.2216
 C 0.3379 0.508 0.64835   0.225818
 C 0.0648 0.5138 0.67686   0.221599
 C 0.1621 0.492 0.14835   0.225818
 C 0.4352 0.4862 0.17686   0.221599
 C 0.0976 0.75 0.41265   0.220646
 C 0.3744 0.75 0.43401   0.227516
 C 0.4024 0.25 0.91265   0.220646
 C 0.1256 0.25 0.93401   0.227516
 C 0.9024 0.25 0.58735   0.220645
 C 0.6256 0.25 0.56599   0.227516
 C 0.5976 0.75 0.08735   0.220645
 C 0.8744 0.75 0.06599   0.227516
 N 0.3078 0.09918 0.69116   -0.19577
 N 0.1292 0.09516 0.70984   -0.201109
 N 0.1891 0.91694 0.63728   -0.469707
 N 0.1922 0.90082 0.19116   -0.19577
 N 0.3708 0.90484 0.20984   -0.201109
 N 0.3109 0.08306 0.13728   -0.469707
 N 0.6922 0.59918 0.30884   -0.195768
 N 0.8708 0.59516 0.29016   -0.201111
 N 0.8109 0.41694 0.36272   -0.469707
 N 0.8078 0.40082 0.80884   -0.195768
 N 0.6292 0.40484 0.79016   -0.201111
 N 0.6891 0.58306 0.86272   -0.469707
 N 0.6922 0.90082 0.30884   -0.195768
 N 0.8708 0.90484 0.29016   -0.201111
 N 0.8109 0.08306 0.36272   -0.469707
 N 0.8078 0.09918 0.80884   -0.195768
 N 0.6292 0.09516 0.79016   -0.201111
 N 0.6891 0.91694 0.86272   -0.469707
 N 0.3078 0.40082 0.69116   -0.19577
 N 0.1292 0.40484 0.70984   -0.201109
 N 0.1891 0.58306 0.63728   -0.469707
 N 0.1922 0.59918 0.19116   -0.19577
 N 0.3708 0.59516 0.20984   -0.201109
 N 0.3109 0.41694 0.13728   -0.469707
 N 0.2154 0.75 0.47111   -0.469796
 N 0.1747 0.75 0.34446   -0.196196
 N 0.3549 0.75 0.35839   -0.200204
 N 0.2846 0.25 0.97111   -0.469796
 N 0.3253 0.25 0.84446   -0.196196
 N 0.1451 0.25 0.85839   -0.200204
 N 0.7846 0.25 0.52889   -0.469796
 N 0.8253 0.25 0.65554   -0.196194
 N 0.6451 0.25 0.64161   -0.200206
 N 0.7154 0.75 0.02889   -0.469796
 N 0.6747 0.75 0.15554   -0.196194
 N 0.8549 0.75 0.14161   -0.200206
 Cl 0.82291 0.75 0.57271   -0.539882
 Cl 0.67709 0.25 0.07271   -0.539882
 Cl 0.17709 0.25 0.42729   -0.539882
 Cl 0.32291 0.75 0.92729   -0.539882
