{'_ref': 'TBD', '_srcid': 'CAKYAQ_clean', 'submitters': [{'name': 'Dalar Nazarian Jeff Camp and David Sholl', 'email': 'dalar@gatech.edu jcamp6@gatech.edu'}], '_method': 'VASP DFT with PBE;DDEC'}
data_YbH9(C2O)6
_symmetry_space_group_name_H-M   'P 1'
_cell_length_a   6.04400027
_cell_length_b   10.77999976
_cell_length_c   11.48600000
_cell_angle_alpha   68.71000098
_cell_angle_beta   75.01000414
_cell_angle_gamma   87.60999925
_symmetry_Int_Tables_number   1
_chemical_formula_structural   YbH9(C2O)6
_chemical_formula_sum   'Yb2 H18 C24 O12'
_cell_volume   672.427886825
_cell_formula_units_Z   2
loop_
 _symmetry_equiv_pos_site_id
 _symmetry_equiv_pos_as_xyz
  1  'x, y, z'
loop_
 _atom_site_label
 _atom_site_fract_x
 _atom_site_fract_y
 _atom_site_fract_z
 _atom_site_charge
 Yb 0.73908 0.87773 0.54479   1.541046
 Yb 0.26092 0.12227 0.45521   1.541044
 H 0.2315 0.9705 0.0109   0.122659
 H 0.3017 0.6235 0.2855   0.133399
 H 0.1424 0.6243 0.9686   0.12041
 H 0.1058 0.9751 0.8302   0.145204
 H 0.0101 0.839 0.8297   0.171258
 H 0.3806 0.9786 0.18   0.147668
 H 0.454 0.844 0.2766   0.169027
 H 0.3656 0.4303 0.2258   0.156748
 H 0.2767 0.4242 0.1085   0.163766
 H 0.7685 0.0295 0.9891   0.122653
 H 0.6983 0.3765 0.7145   0.133399
 H 0.8576 0.3757 0.0314   0.120401
 H 0.8942 0.0249 0.1698   0.145199
 H 0.9899 0.161 0.1703   0.171248
 H 0.6194 0.0214 0.82   0.147662
 H 0.546 0.156 0.7234   0.169022
 H 0.6344 0.5697 0.7742   0.156745
 H 0.7233 0.5758 0.8915   0.163756
 C 0.182 0.8081 0.9706   0.183287
 C 0.229 0.8758 0.043   -0.256351
 C 0.273 0.8097 0.1604   0.187014
 C 0.271 0.6713 0.2042   -0.182676
 C 0.226 0.6028 0.1337   0.163794
 C 0.178 0.6718 0.0173   -0.181286
 C 0.142 0.8824 0.8387   -0.413622
 C 0.352 0.8838 0.733   0.772363
 C 0.328 0.8857 0.2381   -0.414032
 C 0.121 0.8868 0.3445   0.773143
 C 0.238 0.4534 0.1834   -0.420155
 C 0.026 0.3769 0.2765   0.735647
 C 0.818 0.1919 0.0294   0.183284
 C 0.771 0.1242 0.957   -0.256349
 C 0.727 0.1903 0.8396   0.187013
 C 0.729 0.3287 0.7958   -0.182676
 C 0.774 0.3972 0.8663   0.163791
 C 0.822 0.3282 0.9827   -0.181282
 C 0.858 0.1176 0.1613   -0.413618
 C 0.648 0.1162 0.267   0.77236
 C 0.672 0.1143 0.7619   -0.414029
 C 0.879 0.1132 0.6555   0.773142
 C 0.762 0.5466 0.8166   -0.42015
 C 0.974 0.6231 0.7235   0.735646
 O 0.5102 0.8111 0.7547   -0.631825
 O 0.3631 0.9612 0.6181   -0.737855
 O 0.126 0.9643 0.4037   -0.711133
 O 0.945 0.8154 0.3754   -0.64312
 O 0.051 0.2606 0.3525   -0.627157
 O 0.835 0.4204 0.2748   -0.467195
 O 0.4898 0.1889 0.2453   -0.631826
 O 0.6369 0.0388 0.3819   -0.737855
 O 0.874 0.0357 0.5963   -0.711133
 O 0.055 0.1846 0.6246   -0.64312
 O 0.949 0.7394 0.6475   -0.627158
 O 0.165 0.5796 0.7252   -0.467195
