{'_ref': 'TBD', '_srcid': 'CAKYAQ_clean', 'submitters': [{'name': 'Dalar Nazarian Jeff Camp and David Sholl', 'email': 'dalar@gatech.edu jcamp6@gatech.edu'}], '_method': 'VASP DFT with PBE;DDEC'}
data_U3P4H8(C2O7)2
_symmetry_space_group_name_H-M   'P 1'
_cell_length_a   9.51150000
_cell_length_b   12.91999970
_cell_length_c   12.92000000
_cell_angle_alpha   91.98189794
_cell_angle_beta   90.00000000
_cell_angle_gamma   90.00000000
_symmetry_Int_Tables_number   1
_chemical_formula_structural   U3P4H8(C2O7)2
_chemical_formula_sum   'U6 P8 H16 C8 O28'
_cell_volume   1586.77064777
_cell_formula_units_Z   2
loop_
 _symmetry_equiv_pos_site_id
 _symmetry_equiv_pos_as_xyz
  1  'x, y, z'
loop_
 _atom_site_label
 _atom_site_fract_x
 _atom_site_fract_y
 _atom_site_fract_z
 _atom_site_charge
 U 0.77706 0.6804 0.09918   1.650667
 U 0.27706 0.3196 0.90082   1.650667
 U 0.27706 0.90082 0.3196   1.650666
 U 0.77706 0.09918 0.6804   1.650666
 U 0.94812 0.20613 0.20613   1.822181
 U 0.44812 0.79387 0.79387   1.82218
 P 0.9043 0.22989 0.92781   1.596559
 P 0.9706 0.43029 0.03619   1.627729
 P 0.4043 0.77011 0.07219   1.596559
 P 0.4706 0.56971 0.96381   1.627729
 P 0.4043 0.07219 0.77011   1.596559
 P 0.4706 0.96381 0.56971   1.627729
 P 0.9043 0.92781 0.22989   1.596559
 P 0.9706 0.03619 0.43029   1.627729
 H 0.9525 0.4192 0.8122   0.056245
 H 0.7967 0.3856 0.7902   0.072299
 H 0.8282 0.4903 0.8507   0.100734
 H 0.6906 0.4293 0.9973   0.378854
 H 0.4525 0.5808 0.1878   0.056245
 H 0.2967 0.6144 0.2098   0.072299
 H 0.3282 0.5097 0.1493   0.100734
 H 0.1906 0.5707 0.0027   0.378854
 H 0.4525 0.1878 0.5808   0.056246
 H 0.2967 0.2098 0.6144   0.0723
 H 0.3282 0.1493 0.5097   0.100735
 H 0.1906 0.0027 0.5707   0.378854
 H 0.9525 0.8122 0.4192   0.056246
 H 0.7967 0.7902 0.3856   0.0723
 H 0.8282 0.8507 0.4903   0.100735
 H 0.6906 0.9973 0.4293   0.378854
 C 0.855 0.3644 0.9404   -0.402428
 C 0.8584 0.42 0.8392   -0.187951
 C 0.355 0.6356 0.0596   -0.402428
 C 0.3584 0.58 0.1608   -0.187952
 C 0.355 0.0596 0.6356   -0.402428
 C 0.3584 0.1608 0.58   -0.187951
 C 0.855 0.9404 0.3644   -0.402428
 C 0.8584 0.8392 0.42   -0.187951
 O 0.9097 0.5356 0.0574   -0.86589
 O 0.8136 0.1779 0.8451   -0.829078
 O 0.8856 0.1783 0.0319   -0.832031
 O 0.1145 0.4358 0.9836   -0.867319
 O 0.9721 0.3665 0.1351   -0.989049
 O 0.0585 0.2331 0.8951   -0.901637
 O 0.7115 0.3689 0.9831   -0.518796
 O 0.4097 0.4644 0.9426   -0.86589
 O 0.3136 0.8221 0.1549   -0.829078
 O 0.3856 0.8217 0.9681   -0.832031
 O 0.6145 0.5642 0.0164   -0.867319
 O 0.4721 0.6335 0.8649   -0.989049
 O 0.5585 0.7669 0.1049   -0.901637
 O 0.2115 0.6311 0.0169   -0.518796
 O 0.4097 0.9426 0.4644   -0.86589
 O 0.3136 0.1549 0.8221   -0.829078
 O 0.3856 0.9681 0.8217   -0.832031
 O 0.6145 0.0164 0.5642   -0.867319
 O 0.4721 0.8649 0.6335   -0.989049
 O 0.5585 0.1049 0.7669   -0.901637
 O 0.2115 0.0169 0.6311   -0.518796
 O 0.9097 0.0574 0.5356   -0.86589
 O 0.8136 0.8451 0.1779   -0.829078
 O 0.8856 0.0319 0.1783   -0.832031
 O 0.1145 0.9836 0.4358   -0.867319
 O 0.9721 0.1351 0.3665   -0.989049
 O 0.0585 0.8951 0.2331   -0.901637
 O 0.7115 0.9831 0.3689   -0.518796
