{'_ref': 'TBD', '_srcid': 'CAKYAQ_clean', 'submitters': [{'name': 'Dalar Nazarian Jeff Camp and David Sholl', 'email': 'dalar@gatech.edu jcamp6@gatech.edu'}], '_method': 'VASP DFT with PBE;DDEC'}
data_ZnH15C16N7O4
_symmetry_space_group_name_H-M   'P 1'
_cell_length_a   9.41700000
_cell_length_b   13.12800000
_cell_length_c   15.91300000
_cell_angle_alpha   90.00000000
_cell_angle_beta   90.00000000
_cell_angle_gamma   90.00000000
_symmetry_Int_Tables_number   1
_chemical_formula_structural   ZnH15C16N7O4
_chemical_formula_sum   'Zn4 H60 C64 N28 O16'
_cell_volume   1967.26652129
_cell_formula_units_Z   4
loop_
 _symmetry_equiv_pos_site_id
 _symmetry_equiv_pos_as_xyz
  1  'x, y, z'
loop_
 _atom_site_label
 _atom_site_fract_x
 _atom_site_fract_y
 _atom_site_fract_z
 _atom_site_charge
 Zn 0.76853 0.66994 0.801   0.884017
 Zn 0.73147 0.16994 0.699   0.884017
 Zn 0.23147 0.33006 0.199   0.884017
 Zn 0.26853 0.83006 0.301   0.884017
 H 0.5043 0.6967 0.0293   0.085701
 H 0.1176 0.6081 0.1098   0.09486
 H 0.2692 0.5147 0.8872   0.10579
 H 0.7469 0.3728 0.6098   0.074316
 H 0.8231 0.7504 0.9774   0.123921
 H 0.0267 0.5469 0.7228   0.119087
 H 0.9117 0.4154 0.4863   0.080166
 H 0.0747 0.4165 0.467   0.092044
 H 0.1261 0.4284 0.6083   0.090184
 H 0.0308 0.3322 0.5921   0.096247
 H 0.1066 0.7307 0.8016   0.104843
 H 0.994 0.8334 0.0927   0.126369
 H 0.1391 0.874 0.0576   0.105374
 H 0.9843 0.0074 0.0844   0.094906
 H 0.873 0.9602 0.023   0.059891
 H 0.9957 0.1967 0.4707   0.085701
 H 0.3824 0.1081 0.3902   0.09486
 H 0.2308 0.0147 0.6128   0.105789
 H 0.7531 0.8728 0.8902   0.074315
 H 0.6769 0.2504 0.5226   0.123921
 H 0.4733 0.0469 0.7772   0.119087
 H 0.5883 0.9154 0.0137   0.080166
 H 0.4253 0.9165 0.033   0.092044
 H 0.3739 0.9284 0.8917   0.090184
 H 0.4692 0.8322 0.9079   0.096247
 H 0.3934 0.2307 0.6984   0.104842
 H 0.506 0.3334 0.4073   0.126369
 H 0.3609 0.374 0.4424   0.105374
 H 0.5157 0.5074 0.4156   0.094906
 H 0.627 0.4602 0.477   0.059892
 H 0.4957 0.3033 0.9707   0.085701
 H 0.8824 0.3919 0.8902   0.094861
 H 0.7308 0.4853 0.1128   0.105788
 H 0.2531 0.6272 0.3902   0.074315
 H 0.1769 0.2496 0.0226   0.123921
 H 0.9733 0.4531 0.2772   0.119087
 H 0.0883 0.5846 0.5137   0.080166
 H 0.9253 0.5835 0.533   0.092043
 H 0.8739 0.5716 0.3917   0.090185
 H 0.9692 0.6678 0.4079   0.096247
 H 0.8934 0.2693 0.1984   0.104842
 H 0.006 0.1666 0.9073   0.126368
 H 0.8609 0.126 0.9424   0.105374
 H 0.0157 0.9926 0.9156   0.094906
 H 0.127 0.0398 0.977   0.059891
 H 0.0043 0.8033 0.5293   0.085701
 H 0.6176 0.8919 0.6098   0.094861
 H 0.7692 0.9853 0.3872   0.105787
 H 0.2469 0.1272 0.1098   0.074315
 H 0.3231 0.7496 0.4774   0.123921
 H 0.5267 0.9531 0.2228   0.119087
 H 0.4117 0.0846 0.9863   0.080166
 H 0.5747 0.0835 0.967   0.092044
 H 0.6261 0.0716 0.1083   0.090185
 H 0.5308 0.1678 0.0921   0.096247
 H 0.6066 0.7693 0.3016   0.104841
 H 0.494 0.6666 0.5927   0.126368
 H 0.6391 0.626 0.5576   0.105374
 H 0.4843 0.4926 0.5844   0.094906
 H 0.373 0.5398 0.523   0.059892
 C 0.4203 0.6613 0.0197   0.001796
 C 0.5141 0.6131 0.8774   0.684544
 C 0.3118 0.6633 0.0816   -0.119806
 C 0.404 0.6083 0.9463   -0.134397
 C 0.3331 0.7243 0.1595   0.661894
 C 0.1891 0.6084 0.0694   -0.093209
 C 0.1749 0.5539 0.9956   0.142878
 C 0.2811 0.5532 0.9357   -0.082547
 C 0.788 0.4196 0.6464   0.127463
 C 0.9067 0.7565 0.9467   0.13993
 C 0.9409 0.5162 0.7088   0.134041
 C 0.0022 0.443 0.5044   -0.168974
 C 0.0322 0.4061 0.5913   -0.027348
 C 0.0625 0.747 0.8521   0.308525
 C 0.0389 0.8665 0.0451   -0.071993
 C 0.974 0.9697 0.0324   -0.148389
 C 0.0797 0.1613 0.4803   0.001796
 C 0.9859 0.1131 0.6226   0.684544
 C 0.1882 0.1633 0.4184   -0.119806
 C 0.096 0.1083 0.5537   -0.134397
 C 0.1669 0.2243 0.3405   0.661894
 C 0.3109 0.1084 0.4306   -0.093209
 C 0.3251 0.0539 0.5044   0.142878
 C 0.2189 0.0532 0.5643   -0.082547
 C 0.712 0.9196 0.8536   0.127463
 C 0.5933 0.2565 0.5533   0.13993
 C 0.5591 0.0162 0.7912   0.134041
 C 0.4978 0.943 0.9956   -0.168974
 C 0.4678 0.9061 0.9087   -0.027348
 C 0.4375 0.247 0.6479   0.308525
 C 0.4611 0.3665 0.4549   -0.071993
 C 0.526 0.4697 0.4676   -0.148389
 C 0.5797 0.3387 0.9803   0.001796
 C 0.4859 0.3869 0.1226   0.684544
 C 0.6882 0.3367 0.9184   -0.119807
 C 0.596 0.3917 0.0537   -0.134396
 C 0.6669 0.2757 0.8405   0.661894
 C 0.8109 0.3916 0.9306   -0.093206
 C 0.8251 0.4461 0.0044   0.142868
 C 0.7189 0.4468 0.0643   -0.082548
 C 0.212 0.5804 0.3536   0.127463
 C 0.0933 0.2435 0.0533   0.139932
 C 0.0591 0.4838 0.2912   0.134041
 C 0.9978 0.557 0.4956   -0.168972
 C 0.9678 0.5939 0.4087   -0.027349
 C 0.9375 0.253 0.1479   0.308525
 C 0.9611 0.1335 0.9549   -0.071993
 C 0.026 0.0303 0.9676   -0.148387
 C 0.9203 0.8387 0.5197   0.001796
 C 0.0141 0.8869 0.3774   0.684544
 C 0.8118 0.8367 0.5816   -0.119807
 C 0.904 0.8917 0.4463   -0.134396
 C 0.8331 0.7757 0.6595   0.661894
 C 0.6891 0.8916 0.5694   -0.093206
 C 0.6749 0.9461 0.4956   0.142868
 C 0.7811 0.9468 0.4357   -0.082548
 C 0.288 0.0804 0.1464   0.127463
 C 0.4067 0.7435 0.4467   0.139932
 C 0.4409 0.9838 0.2088   0.134041
 C 0.5022 0.057 0.0044   -0.168973
 C 0.5322 0.0939 0.0913   -0.027348
 C 0.5625 0.753 0.3521   0.308525
 C 0.5389 0.6335 0.5451   -0.071993
 C 0.474 0.5303 0.5324   -0.148387
 N 0.7238 0.4743 0.7042   -0.239773
 N 0.9289 0.7191 0.8714   -0.428483
 N 0.0221 0.8042 0.9717   0.178745
 N 0.8162 0.5377 0.7445   -0.201046
 N 0.052 0.4937 0.9769   -0.171098
 N 0.9254 0.4457 0.6513   0.015748
 N 0.1233 0.7988 0.911   -0.367841
 N 0.7762 0.9743 0.7958   -0.239773
 N 0.5711 0.2191 0.6286   -0.428483
 N 0.4779 0.3042 0.5283   0.178745
 N 0.6838 0.0377 0.7555   -0.201046
 N 0.448 0.9937 0.5231   -0.171098
 N 0.5746 0.9457 0.8487   0.015748
 N 0.3767 0.2988 0.589   -0.367841
 N 0.2762 0.5257 0.2958   -0.239773
 N 0.0711 0.2809 0.1286   -0.428484
 N 0.9779 0.1958 0.0283   0.178745
 N 0.1838 0.4623 0.2555   -0.201046
 N 0.948 0.5063 0.0231   -0.17101
 N 0.0746 0.5543 0.3487   0.015748
 N 0.8767 0.2012 0.089   -0.367841
 N 0.2238 0.0257 0.2042   -0.239773
 N 0.4289 0.7809 0.3714   -0.428484
 N 0.5221 0.6958 0.4717   0.178745
 N 0.3162 0.9623 0.2445   -0.201046
 N 0.552 0.0063 0.4769   -0.17101
 N 0.4254 0.0543 0.1513   0.015748
 N 0.6233 0.7012 0.411   -0.367841
 O 0.6256 0.6627 0.8915   -0.648372
 O 0.2229 0.7409 0.206   -0.625542
 O 0.4514 0.7581 0.1747   -0.611184
 O 0.4925 0.5727 0.8096   -0.593317
 O 0.8744 0.1627 0.6085   -0.648372
 O 0.2771 0.2409 0.294   -0.625542
 O 0.0486 0.2581 0.3253   -0.611184
 O 0.0075 0.0727 0.6904   -0.593317
 O 0.3744 0.3373 0.1085   -0.648372
 O 0.7771 0.2591 0.794   -0.625543
 O 0.5486 0.2419 0.8253   -0.611184
 O 0.5075 0.4273 0.1904   -0.593317
 O 0.1256 0.8373 0.3915   -0.648372
 O 0.7229 0.7591 0.706   -0.625543
 O 0.9514 0.7419 0.6747   -0.611184
 O 0.9925 0.9273 0.3096   -0.593317
