{'_ref': 'TBD', '_srcid': 'CAKYAQ_clean', 'submitters': [{'name': 'Dalar Nazarian Jeff Camp and David Sholl', 'email': 'dalar@gatech.edu jcamp6@gatech.edu'}], '_method': 'VASP DFT with PBE;DDEC'}
data_MnRe3C3Se4N3
_symmetry_space_group_name_H-M   'P 1'
_cell_length_a   16.59600000
_cell_length_b   16.79300000
_cell_length_c   17.94000000
_cell_angle_alpha   90.00000000
_cell_angle_beta   90.00000000
_cell_angle_gamma   90.00000000
_symmetry_Int_Tables_number   1
_chemical_formula_structural   MnRe3C3Se4N3
_chemical_formula_sum   'Mn8 Re24 C24 Se32 N24'
_cell_volume   4999.81750632
_cell_formula_units_Z   8
loop_
 _symmetry_equiv_pos_site_id
 _symmetry_equiv_pos_as_xyz
  1  'x, y, z'
loop_
 _atom_site_label
 _atom_site_fract_x
 _atom_site_fract_y
 _atom_site_fract_z
 _atom_site_charge
 Mn 0.10533 0.63012 0.86892   1.131394
 Mn 0.89467 0.86988 0.36892   1.131394
 Mn 0.60533 0.36988 0.63108   1.131394
 Mn 0.39467 0.13012 0.13108   1.131394
 Mn 0.89467 0.36988 0.13108   1.131389
 Mn 0.10533 0.13012 0.63108   1.131389
 Mn 0.39467 0.63012 0.36892   1.131389
 Mn 0.60533 0.86988 0.86892   1.131389
 Re 0.39937 0.53508 0.96745   -0.125746
 Re 0.54088 0.60246 0.98942   -0.139457
 Re 0.47163 0.52269 0.09777   -0.153319
 Re 0.60063 0.96492 0.46745   -0.125746
 Re 0.45912 0.89754 0.48942   -0.139457
 Re 0.52837 0.97731 0.59777   -0.153319
 Re 0.89937 0.46492 0.53255   -0.125746
 Re 0.04088 0.39754 0.51058   -0.139457
 Re 0.97163 0.47731 0.40223   -0.153319
 Re 0.10063 0.03508 0.03255   -0.125746
 Re 0.95912 0.10246 0.01058   -0.139457
 Re 0.02837 0.02269 0.90223   -0.153319
 Re 0.60063 0.46492 0.03255   -0.125746
 Re 0.45912 0.39754 0.01058   -0.139457
 Re 0.52837 0.47731 0.90223   -0.153319
 Re 0.39937 0.03508 0.53255   -0.125746
 Re 0.54088 0.10246 0.51058   -0.139457
 Re 0.47163 0.02269 0.40223   -0.153319
 Re 0.10063 0.53508 0.46745   -0.125746
 Re 0.95912 0.60246 0.48942   -0.139457
 Re 0.02837 0.52269 0.59777   -0.153319
 Re 0.89937 0.96492 0.96745   -0.125746
 Re 0.04088 0.89754 0.98942   -0.139457
 Re 0.97163 0.97731 0.09777   -0.153319
 C 0.2848 0.5728 0.9257   0.231684
 C 0.0856 0.7786 0.9753   0.223001
 C 0.0629 0.5477 0.709   0.255511
 C 0.7152 0.9272 0.4257   0.231684
 C 0.9144 0.7214 0.4753   0.223001
 C 0.9371 0.9523 0.209   0.255511
 C 0.7848 0.4272 0.5743   0.231684
 C 0.5856 0.2214 0.5247   0.223001
 C 0.5629 0.4523 0.791   0.255511
 C 0.2152 0.0728 0.0743   0.231684
 C 0.4144 0.2786 0.0247   0.223001
 C 0.4371 0.0477 0.291   0.255511
 C 0.7152 0.4272 0.0743   0.231684
 C 0.9144 0.2214 0.0247   0.223001
 C 0.9371 0.4523 0.291   0.255511
 C 0.2848 0.0728 0.5743   0.231684
 C 0.0856 0.2786 0.5247   0.223001
 C 0.0629 0.0477 0.791   0.255511
 C 0.2152 0.5728 0.4257   0.231684
 C 0.4144 0.7786 0.4753   0.223001
 C 0.4371 0.5477 0.209   0.255511
 C 0.7848 0.9272 0.9257   0.231684
 C 0.5856 0.7214 0.9753   0.223001
 C 0.5629 0.9523 0.709   0.255511
 Se 0.41576 0.65327 0.05311   0.03565
 Se 0.33772 0.45828 0.07355   0.037528
 Se 0.392 0.41294 0.88562   0.043513
 Se 0.47055 0.61051 0.8656   0.011937
 Se 0.58424 0.84673 0.55311   0.03565
 Se 0.66228 0.04172 0.57355   0.037528
 Se 0.608 0.08706 0.38562   0.043512
 Se 0.52945 0.88949 0.3656   0.011937
 Se 0.91576 0.34673 0.44689   0.03565
 Se 0.83772 0.54172 0.42645   0.037528
 Se 0.892 0.58706 0.61438   0.043512
 Se 0.97055 0.38949 0.6344   0.011937
 Se 0.08424 0.15327 0.94689   0.03565
 Se 0.16228 0.95828 0.92645   0.037528
 Se 0.108 0.91294 0.11438   0.043512
 Se 0.02945 0.11051 0.1344   0.011937
 Se 0.58424 0.34673 0.94689   0.03565
 Se 0.66228 0.54172 0.92645   0.037527
 Se 0.608 0.58706 0.11438   0.043512
 Se 0.52945 0.38949 0.1344   0.011937
 Se 0.41576 0.15327 0.44689   0.03565
 Se 0.33772 0.95828 0.42645   0.037527
 Se 0.392 0.91294 0.61438   0.043512
 Se 0.47055 0.11051 0.6344   0.011936
 Se 0.08424 0.65327 0.55311   0.035651
 Se 0.16228 0.45828 0.57355   0.037527
 Se 0.108 0.41294 0.38562   0.043512
 Se 0.02945 0.61051 0.3656   0.011937
 Se 0.91576 0.84673 0.05311   0.03565
 Se 0.83772 0.04172 0.07355   0.037527
 Se 0.892 0.08706 0.88562   0.043512
 Se 0.97055 0.88949 0.8656   0.011936
 N 0.228 0.5933 0.9011   -0.501511
 N 0.1049 0.7174 0.9638   -0.513209
 N 0.0819 0.5614 0.7665   -0.536973
 N 0.772 0.9067 0.4011   -0.501511
 N 0.8951 0.7826 0.4638   -0.513209
 N 0.9181 0.9386 0.2665   -0.536973
 N 0.728 0.4067 0.5989   -0.501511
 N 0.6049 0.2826 0.5362   -0.513209
 N 0.5819 0.4386 0.7335   -0.536973
 N 0.272 0.0933 0.0989   -0.501511
 N 0.3951 0.2174 0.0362   -0.513209
 N 0.4181 0.0614 0.2335   -0.536973
 N 0.772 0.4067 0.0989   -0.50151
 N 0.8951 0.2826 0.0362   -0.513209
 N 0.9181 0.4386 0.2335   -0.536973
 N 0.228 0.0933 0.5989   -0.50151
 N 0.1049 0.2174 0.5362   -0.513209
 N 0.0819 0.0614 0.7335   -0.536973
 N 0.272 0.5933 0.4011   -0.50151
 N 0.3951 0.7174 0.4638   -0.513209
 N 0.4181 0.5614 0.2665   -0.536973
 N 0.728 0.9067 0.9011   -0.50151
 N 0.6049 0.7826 0.9638   -0.513209
 N 0.5819 0.9386 0.7665   -0.536973
