{'_ref': 'TBD', '_srcid': 'CAKYAQ_clean', 'submitters': [{'name': 'Dalar Nazarian Jeff Camp and David Sholl', 'email': 'dalar@gatech.edu jcamp6@gatech.edu'}], '_method': 'VASP DFT with PBE;DDEC'}
data_ZnCoH2(C5O4)2
_symmetry_space_group_name_H-M   'P 1'
_cell_length_a   11.76030000
_cell_length_b   18.71070000
_cell_length_c   18.71070000
_cell_angle_alpha   90.00000000
_cell_angle_beta   90.00000000
_cell_angle_gamma   90.00000000
_symmetry_Int_Tables_number   1
_chemical_formula_structural   ZnCoH2(C5O4)2
_chemical_formula_sum   'Zn8 Co8 H16 C80 O64'
_cell_volume   4117.16689029
_cell_formula_units_Z   8
loop_
 _symmetry_equiv_pos_site_id
 _symmetry_equiv_pos_as_xyz
  1  'x, y, z'
loop_
 _atom_site_label
 _atom_site_fract_x
 _atom_site_fract_y
 _atom_site_fract_z
 _atom_site_charge
 Zn 0.64386 0.28571 0.78162   1.052231
 Zn 0.64386 0.71429 0.21838   1.052231
 Zn 0.14386 0.21838 0.28571   1.052231
 Zn 0.14386 0.78162 0.71429   1.052231
 Zn 0.64386 0.78571 0.71838   1.05223
 Zn 0.64386 0.21429 0.28162   1.05223
 Zn 0.14386 0.71838 0.21429   1.05223
 Zn 0.14386 0.28162 0.78571   1.05223
 Co 0.81794 0.15389 0.82168   1.085896
 Co 0.81794 0.84611 0.17832   1.085899
 Co 0.31794 0.17832 0.15389   1.085897
 Co 0.31794 0.82168 0.84611   1.0859
 Co 0.81794 0.65389 0.67832   1.085896
 Co 0.81794 0.34611 0.32168   1.085899
 Co 0.31794 0.67832 0.34611   1.085897
 Co 0.31794 0.32168 0.65389   1.0859
 H 0.0898 0.2717 0.5087   0.123931
 H 0.7098 0.221 0.5567   0.119235
 H 0.0898 0.7283 0.4913   0.123931
 H 0.7098 0.779 0.4433   0.119235
 H 0.5898 0.4913 0.2717   0.123931
 H 0.2098 0.4433 0.221   0.119235
 H 0.5898 0.5087 0.7283   0.123931
 H 0.2098 0.5567 0.779   0.119235
 H 0.0898 0.7717 0.9913   0.123931
 H 0.7098 0.721 0.9433   0.119235
 H 0.0898 0.2283 0.0087   0.123931
 H 0.7098 0.279 0.0567   0.119235
 H 0.5898 0.9913 0.2283   0.123931
 H 0.2098 0.9433 0.279   0.119235
 H 0.5898 0.0087 0.7717   0.123931
 H 0.2098 0.0567 0.721   0.119235
 C 0.8101 0.2409 0.6783   0.721058
 C 0.8594 0.2458 0.6047   -0.042691
 C 0.9715 0.262 0.5887   -0.116007
 C 0.0119 0.2621 0.518   -0.026123
 C 0.939 0.2482 0.4624   -0.097656
 C 0.8229 0.2332 0.4755   -0.118775
 C 0.7871 0.2319 0.547   -0.03172
 C 0.0577 0.2821 0.6448   0.723189
 C 0.9925 0.2518 0.3894   0.698551
 C 0.7333 0.2208 0.4199   0.668656
 C 0.8101 0.7591 0.3217   0.721058
 C 0.8594 0.7542 0.3953   -0.042691
 C 0.9715 0.738 0.4113   -0.116007
 C 0.0119 0.7379 0.482   -0.026123
 C 0.939 0.7518 0.5376   -0.097656
 C 0.8229 0.7668 0.5245   -0.118774
 C 0.7871 0.7681 0.453   -0.031719
 C 0.0577 0.7179 0.3552   0.723189
 C 0.9925 0.7482 0.6106   0.698551
 C 0.7333 0.7792 0.5801   0.668657
 C 0.3101 0.3217 0.2409   0.721058
 C 0.3594 0.3953 0.2458   -0.042691
 C 0.4715 0.4113 0.262   -0.116007
 C 0.5119 0.482 0.2621   -0.026123
 C 0.439 0.5376 0.2482   -0.097656
 C 0.3229 0.5245 0.2332   -0.118775
 C 0.2871 0.453 0.2319   -0.03172
 C 0.5577 0.3552 0.2821   0.723189
 C 0.4925 0.6106 0.2518   0.698551
 C 0.2333 0.5801 0.2208   0.668656
 C 0.3101 0.6783 0.7591   0.721058
 C 0.3594 0.6047 0.7542   -0.042691
 C 0.4715 0.5887 0.738   -0.116007
 C 0.5119 0.518 0.7379   -0.026123
 C 0.439 0.4624 0.7518   -0.097656
 C 0.3229 0.4755 0.7668   -0.118774
 C 0.2871 0.547 0.7681   -0.031719
 C 0.5577 0.6448 0.7179   0.723189
 C 0.4925 0.3894 0.7482   0.698551
 C 0.2333 0.4199 0.7792   0.668657
 C 0.8101 0.7409 0.8217   0.721058
 C 0.8594 0.7458 0.8953   -0.042691
 C 0.9715 0.762 0.9113   -0.116007
 C 0.0119 0.7621 0.982   -0.026122
 C 0.939 0.7482 0.0376   -0.097656
 C 0.8229 0.7332 0.0245   -0.118775
 C 0.7871 0.7319 0.953   -0.03172
 C 0.0577 0.7821 0.8552   0.723189
 C 0.9925 0.7518 0.1106   0.698551
 C 0.7333 0.7208 0.0801   0.668657
 C 0.8101 0.2591 0.1783   0.721058
 C 0.8594 0.2542 0.1047   -0.042691
 C 0.9715 0.238 0.0887   -0.116007
 C 0.0119 0.2379 0.018   -0.026122
 C 0.939 0.2518 0.9624   -0.097656
 C 0.8229 0.2668 0.9755   -0.118774
 C 0.7871 0.2681 0.047   -0.031719
 C 0.0577 0.2179 0.1448   0.723189
 C 0.9925 0.2482 0.8894   0.698551
 C 0.7333 0.2792 0.9199   0.668658
 C 0.3101 0.8217 0.2591   0.721058
 C 0.3594 0.8953 0.2542   -0.042691
 C 0.4715 0.9113 0.238   -0.116007
 C 0.5119 0.982 0.2379   -0.026122
 C 0.439 0.0376 0.2518   -0.097656
 C 0.3229 0.0245 0.2668   -0.118775
 C 0.2871 0.953 0.2681   -0.03172
 C 0.5577 0.8552 0.2179   0.723189
 C 0.4925 0.1106 0.2482   0.698551
 C 0.2333 0.0801 0.2792   0.668656
 C 0.3101 0.1783 0.7409   0.721058
 C 0.3594 0.1047 0.7458   -0.042691
 C 0.4715 0.0887 0.762   -0.116007
 C 0.5119 0.018 0.7621   -0.026122
 C 0.439 0.9624 0.7482   -0.097656
 C 0.3229 0.9755 0.7332   -0.118774
 C 0.2871 0.047 0.7319   -0.031719
 C 0.5577 0.1448 0.7821   0.723189
 C 0.4925 0.8894 0.7518   0.698551
 C 0.2333 0.9199 0.7208   0.668658
 O 0.8268 0.1871 0.7149   -0.586785
 O 0.7404 0.292 0.6952   -0.61386
 O 0.0312 0.2774 0.709   -0.555497
 O 0.1531 0.3053 0.6226   -0.666794
 O 0.073 0.2075 0.3795   -0.527762
 O 0.9713 0.3021 0.3454   -0.621211
 O 0.7598 0.2374 0.3544   -0.684188
 O 0.6388 0.1996 0.4354   -0.50368
 O 0.8268 0.8129 0.2851   -0.586785
 O 0.7404 0.708 0.3048   -0.61386
 O 0.0312 0.7226 0.291   -0.555497
 O 0.1531 0.6947 0.3774   -0.666794
 O 0.073 0.7925 0.6205   -0.527762
 O 0.9713 0.6979 0.6546   -0.621211
 O 0.7598 0.7626 0.6456   -0.684188
 O 0.6388 0.8004 0.5646   -0.50368
 O 0.3268 0.2851 0.1871   -0.586785
 O 0.2404 0.3048 0.292   -0.613861
 O 0.5312 0.291 0.2774   -0.555497
 O 0.6531 0.3774 0.3053   -0.666794
 O 0.573 0.6205 0.2075   -0.527762
 O 0.4713 0.6546 0.3021   -0.621212
 O 0.2598 0.6456 0.2374   -0.684188
 O 0.1388 0.5646 0.1996   -0.50368
 O 0.3268 0.7149 0.8129   -0.586785
 O 0.2404 0.6952 0.708   -0.613861
 O 0.5312 0.709 0.7226   -0.555497
 O 0.6531 0.6226 0.6947   -0.666794
 O 0.573 0.3795 0.7925   -0.527762
 O 0.4713 0.3454 0.6979   -0.621212
 O 0.2598 0.3544 0.7626   -0.684188
 O 0.1388 0.4354 0.8004   -0.50368
 O 0.8268 0.6871 0.7851   -0.586785
 O 0.7404 0.792 0.8048   -0.61386
 O 0.0312 0.7774 0.791   -0.555497
 O 0.1531 0.8053 0.8774   -0.666794
 O 0.073 0.7075 0.1205   -0.527762
 O 0.9713 0.8021 0.1546   -0.621211
 O 0.7598 0.7374 0.1456   -0.684188
 O 0.6388 0.6996 0.0646   -0.50368
 O 0.8268 0.3129 0.2149   -0.586785
 O 0.7404 0.208 0.1952   -0.61386
 O 0.0312 0.2226 0.209   -0.555497
 O 0.1531 0.1947 0.1226   -0.666794
 O 0.073 0.2925 0.8795   -0.527762
 O 0.9713 0.1979 0.8454   -0.621211
 O 0.7598 0.2626 0.8544   -0.684188
 O 0.6388 0.3004 0.9354   -0.50368
 O 0.3268 0.7851 0.3129   -0.586785
 O 0.2404 0.8048 0.208   -0.613861
 O 0.5312 0.791 0.2226   -0.555497
 O 0.6531 0.8774 0.1947   -0.666794
 O 0.573 0.1205 0.2925   -0.527762
 O 0.4713 0.1546 0.1979   -0.621212
 O 0.2598 0.1456 0.2626   -0.684188
 O 0.1388 0.0646 0.3004   -0.50368
 O 0.3268 0.2149 0.6871   -0.586785
 O 0.2404 0.1952 0.792   -0.613861
 O 0.5312 0.209 0.7774   -0.555497
 O 0.6531 0.1226 0.8053   -0.666794
 O 0.573 0.8795 0.7075   -0.527762
 O 0.4713 0.8454 0.8021   -0.621212
 O 0.2598 0.8544 0.7374   -0.684189
 O 0.1388 0.9354 0.6996   -0.50368
