{'_ref': 'TBD', '_srcid': 'CAKYAQ_clean', 'submitters': [{'name': 'Dalar Nazarian Jeff Camp and David Sholl', 'email': 'dalar@gatech.edu jcamp6@gatech.edu'}], '_method': 'VASP DFT with PBE;DDEC'}
data_AlH5C8O5
_symmetry_space_group_name_H-M   'P 1'
_cell_length_a   6.63100000
_cell_length_b   11.07368169
_cell_length_c   11.07735553
_cell_angle_alpha   77.86959166
_cell_angle_beta   72.64994823
_cell_angle_gamma   72.64400939
_symmetry_Int_Tables_number   1
_chemical_formula_structural   AlH5C8O5
_chemical_formula_sum   'Al2 H10 C16 O10'
_cell_volume   734.462044137
_cell_formula_units_Z   2
loop_
 _symmetry_equiv_pos_site_id
 _symmetry_equiv_pos_as_xyz
  1  'x, y, z'
loop_
 _atom_site_label
 _atom_site_fract_x
 _atom_site_fract_y
 _atom_site_fract_z
 _atom_site_charge
 Al 0.495848 0.497797 0.499658   1.860666
 Al 0.996148 0.498687 0.499308   1.863313
 H 0.613604 0.113262 0.502583   0.111014
 H 0.877522 0.496311 0.882312   0.110497
 H 0.730261 0.881521 0.496962   0.116202
 H 0.760715 0.501373 0.115314   0.113784
 H 0.379211 0.88103 0.497091   0.112119
 H 0.112144 0.501442 0.114343   0.110266
 H 0.262304 0.113753 0.502414   0.113663
 H 0.228322 0.496292 0.883313   0.116695
 H 0.250101 0.380445 0.60813   0.474439
 H 0.751279 0.605662 0.380448   0.47548
 C 0.781126 0.064379 0.501981   -0.073309
 C 0.70989 0.497495 0.931555   -0.069306
 C 0.848549 0.930583 0.497204   -0.074227
 C 0.643376 0.499869 0.066151   -0.07583
 C 0.211779 0.930313 0.497293   -0.072027
 C 0.280285 0.499908 0.065651   -0.071446
 C 0.144256 0.064639 0.501882   -0.074247
 C 0.346531 0.497486 0.932065   -0.078079
 C 0.928617 0.132993 0.499307   -0.095913
 C 0.856848 0.275996 0.50011   0.71904
 C 0.565556 0.494846 0.864115   -0.098332
 C 0.637376 0.493744 0.721613   0.717754
 C 0.065528 0.862508 0.498297   -0.100101
 C 0.136907 0.720016 0.497385   0.720511
 C 0.426179 0.501437 0.13399   -0.099241
 C 0.35494 0.501869 0.276962   0.722646
 O 0.654716 0.334125 0.504293   -0.645886
 O 0.83505 0.494518 0.661072   -0.638466
 O 0.993319 0.659877 0.495312   -0.67004
 O 0.498004 0.500342 0.335991   -0.653516
 O 0.33618 0.659288 0.496462   -0.643739
 O 0.154354 0.501453 0.335481   -0.650263
 O 0.998135 0.334704 0.503072   -0.654773
 O 0.492499 0.493417 0.661592   -0.66816
 O 0.747945 0.547411 0.445794   -1.126405
 O 0.247535 0.445133 0.548975   -1.124782
