{'_ref': 'TBD', '_srcid': 'CAKYAQ_clean', 'submitters': [{'name': 'Dalar Nazarian Jeff Camp and David Sholl', 'email': 'dalar@gatech.edu jcamp6@gatech.edu'}], '_method': 'VASP DFT with PBE;DDEC'}
data_NdH12(C3O2)3
_symmetry_space_group_name_H-M   'P 1'
_cell_length_a   9.24099954
_cell_length_b   9.74590052
_cell_length_c   10.66100000
_cell_angle_alpha   67.71160216
_cell_angle_beta   84.68000268
_cell_angle_gamma   61.73519963
_symmetry_Int_Tables_number   1
_chemical_formula_structural   NdH12(C3O2)3
_chemical_formula_sum   'Nd2 H24 C18 O12'
_cell_volume   778.027010466
_cell_formula_units_Z   2
loop_
 _symmetry_equiv_pos_site_id
 _symmetry_equiv_pos_as_xyz
  1  'x, y, z'
loop_
 _atom_site_label
 _atom_site_fract_x
 _atom_site_fract_y
 _atom_site_fract_z
 _atom_site_charge
 Nd 0.77969 0.45649 0.01839   2.27971
 Nd 0.22031 0.54351 0.98161   2.279713
 H 0.5883 0.9627 0.1279   0.127099
 H 0.564 0.967 0.2728   0.115453
 H 0.5662 0.6998 0.3895   0.069582
 H 0.6382 0.6597 0.2494   0.075332
 H 0.5448 0.4623 0.382   0.135907
 H 0.3618 0.622 0.3739   0.129919
 H 0.1159 0.2771 0.4305   0.132604
 H 0.1767 0.4062 0.3567   0.130759
 H 0.3236 0.9399 0.2639   0.047733
 H 0.379 0.9054 0.135   0.064287
 H 0.8741 0.4779 0.4634   0.070259
 H 0.9015 0.6328 0.3673   0.066462
 H 0.4117 0.0373 0.8721   0.127096
 H 0.436 0.033 0.7272   0.115444
 H 0.4338 0.3002 0.6105   0.069569
 H 0.3618 0.3403 0.7506   0.075331
 H 0.4552 0.5377 0.618   0.135897
 H 0.6382 0.378 0.6261   0.129912
 H 0.8841 0.7229 0.5695   0.132601
 H 0.8233 0.5938 0.6433   0.130752
 H 0.6764 0.0601 0.7361   0.047734
 H 0.621 0.0946 0.865   0.064286
 H 0.1259 0.5221 0.5366   0.070255
 H 0.0985 0.3672 0.6327   0.066463
 C 0.4093 0.5852 0.19054   0.867208
 C 0.5132 0.9865 0.1899   -0.325324
 C 0.5355 0.6994 0.2985   -0.096876
 C 0.9922 0.4051 0.25053   0.824377
 C 0.4555 0.5873 0.3208   -0.368519
 C 0.0782 0.3843 0.3742   -0.340827
 C 0.4056 0.1748 0.1221   0.724785
 C 0.4215 0.8849 0.2149   -0.047235
 C 0.9584 0.5055 0.4388   -0.069979
 C 0.5907 0.4148 0.80946   0.867207
 C 0.4868 0.0135 0.8101   -0.32532
 C 0.4645 0.3006 0.7015   -0.096873
 C 0.0078 0.5949 0.74947   0.824376
 C 0.5445 0.4127 0.6792   -0.368514
 C 0.9218 0.6157 0.6258   -0.340825
 C 0.5944 0.8252 0.8779   0.724784
 C 0.5785 0.1151 0.7851   -0.047237
 C 0.0416 0.4945 0.5612   -0.069979
 O 0.5166 0.5489 0.11082   -0.831081
 O 0.02816 0.4668 0.13285   -0.852427
 O 0.30521 0.23722 0.01884   -0.69938
 O 0.26342 0.6169 0.16619   -0.774265
 O 0.42071 0.27039 0.16802   -0.709611
 O 0.8778 0.3663 0.26385   -0.74593
 O 0.4834 0.4511 0.88918   -0.831081
 O 0.97184 0.5332 0.86715   -0.852426
 O 0.69479 0.76278 0.98116   -0.69938
 O 0.73658 0.3831 0.83381   -0.774265
 O 0.57929 0.72961 0.83198   -0.70961
 O 0.1222 0.6337 0.73615   -0.74593
