{'_ref': 'TBD', '_srcid': 'CAKYAQ_clean', 'submitters': [{'name': 'Dalar Nazarian Jeff Camp and David Sholl', 'email': 'dalar@gatech.edu jcamp6@gatech.edu'}], '_method': 'VASP DFT with PBE;DDEC'}
data_Co3H8C20(N3O2)4
_symmetry_space_group_name_H-M   'P 1'
_cell_length_a   8.21519995
_cell_length_b   8.93869976
_cell_length_c   12.39610000
_cell_angle_alpha   109.84600156
_cell_angle_beta   92.65100113
_cell_angle_gamma   106.72499745
_symmetry_Int_Tables_number   1
_chemical_formula_structural   Co3H8C20(N3O2)4
_chemical_formula_sum   'Co3 H8 C20 N12 O8'
_cell_volume   809.463867536
_cell_formula_units_Z   1
loop_
 _symmetry_equiv_pos_site_id
 _symmetry_equiv_pos_as_xyz
  1  'x, y, z'
loop_
 _atom_site_label
 _atom_site_fract_x
 _atom_site_fract_y
 _atom_site_fract_z
 _atom_site_charge
 Co 0.03208 0.05585 0.17923   0.720299
 Co 0.96792 0.94415 0.82077   0.720302
 Co 0.5 0.5 0.5   1.056971
 H 0.971 0.224 0.449   0.11886
 H 0.804 0.3761 0.5444   0.110477
 H 0.5773 0.3355 0.2477   0.111729
 H 0.3781 0.8672 0.3062   0.107587
 H 0.029 0.776 0.551   0.11886
 H 0.196 0.6239 0.4556   0.110481
 H 0.4227 0.6645 0.7523   0.111729
 H 0.6219 0.1328 0.6938   0.107593
 C 0.7584 0.1699 0.1068   0.30073
 C 0.7623 0.2268 0.2325   0.122843
 C 0.8918 0.2468 0.4062   0.110166
 C 0.7899 0.3374 0.4638   0.076042
 C 0.6585 0.3148 0.2904   0.12487
 C 0.5331 0.8547 0.4312   -0.092749
 C 0.608 0.9351 0.5486   -0.144588
 C 0.427 0.9206 0.3842   -0.037762
 C 0.5517 0.6917 0.3528   0.671184
 C 0.725 0.8721 0.6062   0.682272
 C 0.2416 0.8301 0.8932   0.30073
 C 0.2377 0.7732 0.7675   0.122843
 C 0.1082 0.7532 0.5938   0.110167
 C 0.2101 0.6626 0.5362   0.07604
 C 0.3415 0.6852 0.7096   0.124869
 C 0.4669 0.1453 0.5688   -0.092742
 C 0.392 0.0649 0.4514   -0.144608
 C 0.573 0.0794 0.6158   -0.037782
 C 0.4483 0.3083 0.6472   0.671183
 C 0.275 0.1279 0.3938   0.682273
 N 0.866 0.0912 0.05806   -0.319433
 N 0.8334 0.0635 0.94512   -0.027337
 N 0.7096 0.1222 0.9268   -0.051201
 N 0.66 0.1906 0.0285   -0.277656
 N 0.8791 0.1916 0.29104   -0.277565
 N 0.672 0.3704 0.40614   -0.278171
 N 0.134 0.9088 0.94194   -0.319434
 N 0.1666 0.9365 0.05488   -0.027337
 N 0.2904 0.8778 0.0732   -0.051201
 N 0.34 0.8094 0.9715   -0.277657
 N 0.1209 0.8084 0.70896   -0.277566
 N 0.328 0.6296 0.59386   -0.278171
 O 0.656 0.6935 0.2852   -0.53556
 O 0.4518 0.5585 0.35965   -0.592692
 O 0.7065 0.7179 0.57058   -0.615973
 O 0.8383 0.9807 0.689   -0.534845
 O 0.344 0.3065 0.7148   -0.535559
 O 0.5482 0.4415 0.64035   -0.592692
 O 0.2935 0.2821 0.42942   -0.615973
 O 0.1617 0.0193 0.311   -0.534843
