{'_ref': 'TBD', '_srcid': 'CAKYAQ_clean', 'submitters': [{'name': 'Dalar Nazarian Jeff Camp and David Sholl', 'email': 'dalar@gatech.edu jcamp6@gatech.edu'}], '_method': 'VASP DFT with PBE;DDEC'}
data_CaCdH8(C8O5)2
_symmetry_space_group_name_H-M   'P 1'
_cell_length_a   14.20859996
_cell_length_b   15.58830008
_cell_length_c   15.58830000
_cell_angle_alpha   78.01220025
_cell_angle_beta   62.88710002
_cell_angle_gamma   62.88709863
_symmetry_Int_Tables_number   1
_chemical_formula_structural   CaCdH8(C8O5)2
_chemical_formula_sum   'Ca4 Cd4 H32 C64 O40'
_cell_volume   2735.49778126
_cell_formula_units_Z   4
loop_
 _symmetry_equiv_pos_site_id
 _symmetry_equiv_pos_as_xyz
  1  'x, y, z'
loop_
 _atom_site_label
 _atom_site_fract_x
 _atom_site_fract_y
 _atom_site_fract_z
 _atom_site_charge
 Ca 0.54746 0.0 0.40508   1.670287
 Ca 0.95254 0.0 0.59492   1.670231
 Ca 0.04746 0.40508 0.0   1.670289
 Ca 0.45254 0.59492 0.0   1.670229
 Cd 0.23224 0.03553 0.5   1.085692
 Cd 0.76776 0.96447 0.5   1.084493
 Cd 0.26777 0.5 0.96446   1.084443
 Cd 0.73223 0.5 0.03554   1.08572
 H 0.6016 0.3456 0.2732   0.388514
 H 0.446 0.2252 0.3994   0.112629
 H 0.4881 0.4138 0.1824   0.132571
 H 0.2786 0.2853 0.2297   0.099435
 H 0.2204 0.6544 0.7268   0.386229
 H 0.0706 0.7748 0.6006   0.112468
 H 0.0843 0.5862 0.8176   0.132918
 H 0.7936 0.7147 0.7703   0.09843
 H 0.1252 0.2732 0.6544   0.38883
 H 0.1546 0.3994 0.7748   0.112851
 H 0.3295 0.1824 0.5862   0.133158
 H 0.4917 0.2297 0.7147   0.097721
 H 0.0528 0.7268 0.3456   0.387335
 H 0.3288 0.6006 0.2252   0.112706
 H 0.0981 0.8176 0.4138   0.133978
 H 0.4361 0.7703 0.2853   0.097242
 H 0.7204 0.7268 0.6544   0.386232
 H 0.5706 0.6006 0.7748   0.11247
 H 0.5843 0.8176 0.5862   0.132918
 H 0.2936 0.7703 0.7147   0.098429
 H 0.1016 0.2732 0.3456   0.388516
 H 0.946 0.3994 0.2252   0.11263
 H 0.9881 0.1824 0.4138   0.132575
 H 0.7786 0.2297 0.2853   0.099432
 H 0.5528 0.3456 0.7268   0.387333
 H 0.8288 0.2252 0.6006   0.112705
 H 0.5981 0.4138 0.8176   0.133974
 H 0.9361 0.2853 0.7703   0.097242
 H 0.6252 0.6544 0.2732   0.38883
 H 0.6546 0.7748 0.3994   0.112849
 H 0.8295 0.5862 0.1824   0.133157
 H 0.9917 0.7147 0.2297   0.097717
 C 0.3042 0.1743 0.3809   0.72036
 C 0.3534 0.41339 0.10961   0.756165
 C 0.3546 0.24405 0.32255   -0.145056
 C 0.43 0.258 0.3472   -0.207293
 C 0.4805 0.3206 0.294   0.33004
 C 0.4553 0.37078 0.21722   -0.18174
 C 0.3807 0.35677 0.19203   -0.104125
 C 0.3295 0.2938 0.2456   -0.033045
 C 0.8594 0.8257 0.6191   0.715592
 C 0.8764 0.58661 0.89039   0.755845
 C 0.9212 0.75595 0.67745   -0.14264
 C 0.0352 0.742 0.6528   -0.206116
 C 0.0951 0.6794 0.706   0.327305
 C 0.0433 0.62922 0.78278   -0.181623
 C 0.9295 0.64323 0.80797   -0.104492
 C 0.8689 0.7062 0.7544   -0.032461
 C 0.3149 0.3809 0.8257   0.718069
 C 0.53699 0.10961 0.58661   0.754946
 C 0.32285 0.32255 0.75595   -0.143443
 C 0.2228 0.3472 0.742   -0.205288
 C 0.2255 0.294 0.6794   0.328169
 C 0.32748 0.21722 0.62922   -0.182096
 C 0.42727 0.19203 0.64323   -0.103994
 C 0.4249 0.2456 0.7062   -0.031719
 C 0.5215 0.6191 0.1743   0.714767
 C 0.23321 0.89039 0.41339   0.757614
 C 0.40135 0.67745 0.24405   -0.142872
 C 0.312 0.6528 0.258   -0.20621
 C 0.1989 0.706 0.3206   0.329859
 C 0.17392 0.78278 0.37078   -0.18358
 C 0.26253 0.80797 0.35677   -0.105345
 C 0.3767 0.7544 0.2938   -0.031193
 C 0.3594 0.6191 0.8257   0.71558
 C 0.3764 0.89039 0.58661   0.755836
 C 0.4212 0.67745 0.75595   -0.142644
 C 0.5352 0.6528 0.742   -0.206111
 C 0.5951 0.706 0.6794   0.327306
 C 0.5433 0.78278 0.62922   -0.181616
 C 0.4295 0.80797 0.64323   -0.104497
 C 0.3689 0.7544 0.7062   -0.032458
 C 0.8042 0.3809 0.1743   0.720359
 C 0.8534 0.10961 0.41339   0.756164
 C 0.8546 0.32255 0.24405   -0.14506
 C 0.93 0.3472 0.258   -0.207288
 C 0.9805 0.294 0.3206   0.330039
 C 0.9553 0.21722 0.37078   -0.181735
 C 0.8807 0.19203 0.35677   -0.10413
 C 0.8295 0.2456 0.2938   -0.033041
 C 0.0215 0.1743 0.6191   0.714772
 C 0.73321 0.41339 0.89039   0.757613
 C 0.90135 0.24405 0.67745   -0.14287
 C 0.812 0.258 0.6528   -0.206213
 C 0.6989 0.3206 0.706   0.329858
 C 0.67392 0.37078 0.78278   -0.183586
 C 0.76253 0.35677 0.80797   -0.105341
 C 0.8767 0.2938 0.7544   -0.031194
 C 0.8149 0.8257 0.3809   0.718063
 C 0.03699 0.58661 0.10961   0.754947
 C 0.82285 0.75595 0.32255   -0.143437
 C 0.7228 0.742 0.3472   -0.205298
 C 0.7255 0.6794 0.294   0.32817
 C 0.82748 0.62922 0.21722   -0.182098
 C 0.92727 0.64323 0.19203   -0.103991
 C 0.9249 0.7062 0.2456   -0.031718
 O 0.35611 0.11125 0.42893   -0.787807
 O 0.21456 0.17631 0.38197   -0.566973
 O 0.30454 0.38686 0.07586   -0.617178
 O 0.38158 0.4816 0.07584   -0.764968
 O 0.555 0.3293 0.3201   -0.509837
 O 0.89629 0.88875 0.57107   -0.785798
 O 0.77284 0.82369 0.61803   -0.564967
 O 0.76726 0.61314 0.92414   -0.61782
 O 0.93902 0.5184 0.92416   -0.763145
 O 0.2044 0.6707 0.6799   -0.506949
 O 0.21496 0.42893 0.88875   -0.787289
 O 0.40347 0.38197 0.82369   -0.566406
 O 0.6196 0.07586 0.61314   -0.616726
 O 0.54258 0.07584 0.5184   -0.763821
 O 0.1249 0.3201 0.6707   -0.510453
 O 0.53264 0.57107 0.11125   -0.785614
 O 0.60913 0.61803 0.17631   -0.564524
 O 0.3086 0.92414 0.38686   -0.618124
 O 0.13682 0.92416 0.4816   -0.764018
 O 0.1157 0.6799 0.3293   -0.509734
 O 0.39629 0.57107 0.88875   -0.785766
 O 0.27284 0.61803 0.82369   -0.564944
 O 0.26726 0.92414 0.61314   -0.617786
 O 0.43902 0.92416 0.5184   -0.763134
 O 0.7044 0.6799 0.6707   -0.506945
 O 0.85611 0.42893 0.11125   -0.787807
 O 0.71456 0.38197 0.17631   -0.566967
 O 0.80454 0.07586 0.38686   -0.617182
 O 0.88158 0.07584 0.4816   -0.764965
 O 0.055 0.3201 0.3293   -0.509834
 O 0.03264 0.11125 0.57107   -0.785617
 O 0.10913 0.17631 0.61803   -0.564528
 O 0.8086 0.38686 0.92414   -0.618117
 O 0.63682 0.4816 0.92416   -0.764027
 O 0.6157 0.3293 0.6799   -0.509737
 O 0.71496 0.88875 0.42893   -0.787286
 O 0.90347 0.82369 0.38197   -0.566408
 O 0.1196 0.61314 0.07586   -0.616714
 O 0.04258 0.5184 0.07584   -0.76382
 O 0.6249 0.6707 0.3201   -0.510457
