{'_ref': 'TBD', '_srcid': 'CAKYAQ_clean', 'submitters': [{'name': 'Dalar Nazarian Jeff Camp and David Sholl', 'email': 'dalar@gatech.edu jcamp6@gatech.edu'}], '_method': 'VASP DFT with PBE;DDEC'}
data_CaCd2H48(C3O)16
_symmetry_space_group_name_H-M   'P 1'
_cell_length_a   9.95930000
_cell_length_b   19.82270000
_cell_length_c   19.82270000
_cell_angle_alpha   90.00000000
_cell_angle_beta   90.00000000
_cell_angle_gamma   90.00000000
_symmetry_Int_Tables_number   1
_chemical_formula_structural   CaCd2H48(C3O)16
_chemical_formula_sum   'Ca2 Cd4 H96 C96 O32'
_cell_volume   3913.40171788
_cell_formula_units_Z   2
loop_
 _symmetry_equiv_pos_site_id
 _symmetry_equiv_pos_as_xyz
  1  'x, y, z'
loop_
 _atom_site_label
 _atom_site_fract_x
 _atom_site_fract_y
 _atom_site_fract_z
 _atom_site_charge
 Ca 0.0 0.0 0.5   1.589274
 Ca 0.0 0.5 0.0   1.589274
 Cd 0.0 0.07081 0.65752   1.04674
 Cd 0.0 0.92919 0.34248   1.04674
 Cd 0.0 0.34248 0.07081   1.04674
 Cd 0.0 0.65752 0.92919   1.04674
 H 0.1285 0.6909 0.4731   0.114569
 H 0.1217 0.7647 0.5013   0.123572
 H 0.2045 0.7095 0.5398   0.106269
 H 0.0787 0.6183 0.6009   0.115403
 H 0.7008 0.8895 0.5343   0.094568
 H 0.4213 0.7661 0.595   0.103244
 H 0.3854 0.8628 0.7009   0.12889
 H 0.3836 0.9291 0.6579   0.120131
 H 0.3029 0.8657 0.6336   0.099226
 H 0.1285 0.3091 0.5269   0.114569
 H 0.1217 0.2353 0.4987   0.123572
 H 0.2045 0.2905 0.4602   0.106269
 H 0.0787 0.3817 0.3991   0.115403
 H 0.7008 0.1105 0.4657   0.094568
 H 0.4213 0.2339 0.405   0.103244
 H 0.3854 0.1372 0.2991   0.12889
 H 0.3836 0.0709 0.3421   0.120131
 H 0.3029 0.1343 0.3664   0.099226
 H 0.1285 0.5269 0.6909   0.114569
 H 0.1217 0.4987 0.7647   0.123572
 H 0.2045 0.4602 0.7095   0.106269
 H 0.0787 0.3991 0.6183   0.115403
 H 0.7008 0.4657 0.8895   0.094568
 H 0.4213 0.405 0.7661   0.103244
 H 0.3854 0.2991 0.8628   0.12889
 H 0.3836 0.3421 0.9291   0.120131
 H 0.3029 0.3664 0.8657   0.099226
 H 0.1285 0.4731 0.3091   0.114569
 H 0.1217 0.5013 0.2353   0.123572
 H 0.2045 0.5398 0.2905   0.106269
 H 0.0787 0.6009 0.3817   0.115403
 H 0.7008 0.5343 0.1105   0.094568
 H 0.4213 0.595 0.2339   0.103244
 H 0.3854 0.7009 0.1372   0.12889
 H 0.3836 0.6579 0.0709   0.120131
 H 0.3029 0.6336 0.1343   0.099226
 H 0.8715 0.3091 0.5269   0.114569
 H 0.8783 0.2353 0.4987   0.123572
 H 0.7955 0.2905 0.4602   0.106269
 H 0.9213 0.3817 0.3991   0.115403
 H 0.2992 0.1105 0.4657   0.094568
 H 0.5787 0.2339 0.405   0.103244
 H 0.6146 0.1372 0.2991   0.12889
 H 0.6164 0.0709 0.3421   0.120131
 H 0.6971 0.1343 0.3664   0.099226
 H 0.8715 0.6909 0.4731   0.114569
 H 0.8783 0.7647 0.5013   0.123572
 H 0.7955 0.7095 0.5398   0.106269
 H 0.9213 0.6183 0.6009   0.115403
 H 0.2992 0.8895 0.5343   0.094568
 H 0.5787 0.7661 0.595   0.103244
 H 0.6146 0.8628 0.7009   0.12889
 H 0.6164 0.9291 0.6579   0.120131
 H 0.6971 0.8657 0.6336   0.099226
 H 0.8715 0.4731 0.3091   0.114568
 H 0.8783 0.5013 0.2353   0.123572
 H 0.7955 0.5398 0.2905   0.106269
 H 0.9213 0.6009 0.3817   0.115403
 H 0.2992 0.5343 0.1105   0.094568
 H 0.5787 0.595 0.2339   0.103244
 H 0.6146 0.7009 0.1372   0.12889
 H 0.6164 0.6579 0.0709   0.120131
 H 0.6971 0.6336 0.1343   0.099226
 H 0.8715 0.5269 0.6909   0.114568
 H 0.8783 0.4987 0.7647   0.123572
 H 0.7955 0.4602 0.7095   0.106269
 H 0.9213 0.3991 0.6183   0.115403
 H 0.2992 0.4657 0.8895   0.094568
 H 0.5787 0.405 0.7661   0.103244
 H 0.6146 0.2991 0.8628   0.12889
 H 0.6164 0.3421 0.9291   0.120131
 H 0.6971 0.3664 0.8657   0.099226
 H 0.0 0.8526 0.7742   0.121329
 H 0.0 0.6697 0.687   0.091433
 H 0.0 0.8334 0.5719   0.09698
 H 0.0 0.5998 0.5349   0.115706
 H 0.0 0.1474 0.2258   0.121329
 H 0.0 0.3303 0.313   0.091433
 H 0.0 0.1666 0.4281   0.09698
 H 0.0 0.4002 0.4651   0.115706
 H 0.0 0.2258 0.8526   0.121329
 H 0.0 0.313 0.6697   0.091433
 H 0.0 0.4281 0.8334   0.09698
 H 0.0 0.4651 0.5998   0.115706
 H 0.0 0.7742 0.1474   0.121329
 H 0.0 0.687 0.3303   0.091433
 H 0.0 0.5719 0.1666   0.09698
 H 0.0 0.5349 0.4002   0.115706
 H 0.5 0.9339 0.3648   0.109952
 H 0.5 0.7655 0.6635   0.123276
 H 0.5 0.0661 0.6352   0.109952
 H 0.5 0.2345 0.3365   0.123276
 H 0.5 0.6352 0.9339   0.109952
 H 0.5 0.3365 0.7655   0.123276
 H 0.5 0.3648 0.0661   0.109952
 H 0.5 0.6635 0.2345   0.123276
 C 0.7511 0.9248 0.4102   0.686191
 C 0.1255 0.7178 0.5133   -0.379183
 C 0.6206 0.9139 0.4442   -0.157822
 C 0.6194 0.8951 0.512   -0.044487
 C 0.3831 0.8807 0.6559   -0.391633
 C 0.7511 0.0752 0.5898   0.686191
 C 0.1255 0.2822 0.4867   -0.379183
 C 0.6206 0.0861 0.5558   -0.157822
 C 0.6194 0.1049 0.488   -0.044487
 C 0.3831 0.1193 0.3441   -0.391633
 C 0.7511 0.5898 0.9248   0.686191
 C 0.1255 0.4867 0.7178   -0.379183
 C 0.6206 0.5558 0.9139   -0.157822
 C 0.6194 0.488 0.8951   -0.044487
 C 0.3831 0.3441 0.8807   -0.391633
 C 0.7511 0.4102 0.0752   0.686191
 C 0.1255 0.5133 0.2822   -0.379183
 C 0.6206 0.4442 0.0861   -0.157822
 C 0.6194 0.512 0.1049   -0.044487
 C 0.3831 0.6559 0.1193   -0.391633
 C 0.2489 0.0752 0.5898   0.686191
 C 0.8745 0.2822 0.4867   -0.379183
 C 0.3794 0.0861 0.5558   -0.157822
 C 0.3806 0.1049 0.488   -0.044487
 C 0.6169 0.1193 0.3441   -0.391633
 C 0.2489 0.9248 0.4102   0.686191
 C 0.8745 0.7178 0.5133   -0.379183
 C 0.3794 0.9139 0.4442   -0.157822
 C 0.3806 0.8951 0.512   -0.044487
 C 0.6169 0.8807 0.6559   -0.391633
 C 0.2489 0.4102 0.0752   0.686191
 C 0.8745 0.5133 0.2822   -0.379183
 C 0.3794 0.4442 0.0861   -0.157822
 C 0.3806 0.512 0.1049   -0.044487
 C 0.6169 0.6559 0.1193   -0.391633
 C 0.2489 0.5898 0.9248   0.686191
 C 0.8745 0.4867 0.7178   -0.379183
 C 0.3794 0.5558 0.9139   -0.157822
 C 0.3806 0.488 0.8951   -0.044487
 C 0.6169 0.3441 0.8807   -0.391633
 C 0.0 0.929 0.6626   0.708878
 C 0.0 0.7225 0.8096   0.624291
 C 0.0 0.8541 0.6709   -0.158832
 C 0.0 0.8254 0.7359   0.006391
 C 0.0 0.7558 0.7414   -0.132865
 C 0.0 0.7165 0.683   -0.066515
 C 0.0 0.7445 0.6199   -0.00954
 C 0.0 0.8136 0.6144   -0.048933
 C 0.0 0.6991 0.5546   0.227104
 C 0.0 0.6277 0.5745   -0.398759
 C 0.0 0.071 0.3374   0.708878
 C 0.0 0.2775 0.1904   0.624291
 C 0.0 0.1459 0.3291   -0.158832
 C 0.0 0.1746 0.2641   0.006391
 C 0.0 0.2442 0.2586   -0.132865
 C 0.0 0.2835 0.317   -0.066515
 C 0.0 0.2555 0.3801   -0.00954
 C 0.0 0.1864 0.3856   -0.048933
 C 0.0 0.3009 0.4454   0.227104
 C 0.0 0.3723 0.4255   -0.398759
 C 0.0 0.3374 0.929   0.708878
 C 0.0 0.1904 0.7225   0.624291
 C 0.0 0.3291 0.8541   -0.158832
 C 0.0 0.2641 0.8254   0.006391
 C 0.0 0.2586 0.7558   -0.132865
 C 0.0 0.317 0.7165   -0.066515
 C 0.0 0.3801 0.7445   -0.00954
 C 0.0 0.3856 0.8136   -0.048933
 C 0.0 0.4454 0.6991   0.227104
 C 0.0 0.4255 0.6277   -0.398759
 C 0.0 0.6626 0.071   0.708878
 C 0.0 0.8096 0.2775   0.624291
 C 0.0 0.6709 0.1459   -0.158832
 C 0.0 0.7359 0.1746   0.006391
 C 0.0 0.7414 0.2442   -0.132865
 C 0.0 0.683 0.2835   -0.066515
 C 0.0 0.6199 0.2555   -0.00954
 C 0.0 0.6144 0.1864   -0.048933
 C 0.0 0.5546 0.3009   0.227104
 C 0.0 0.5745 0.3723   -0.398759
 C 0.5 0.9224 0.4103   0.016987
 C 0.5 0.8845 0.5477   0.005573
 C 0.5 0.8574 0.6187   0.236485
 C 0.5 0.782 0.618   -0.367741
 C 0.5 0.0776 0.5897   0.016987
 C 0.5 0.1155 0.4523   0.005573
 C 0.5 0.1426 0.3813   0.236485
 C 0.5 0.218 0.382   -0.367741
 C 0.5 0.5897 0.9224   0.016987
 C 0.5 0.4523 0.8845   0.005573
 C 0.5 0.3813 0.8574   0.236485
 C 0.5 0.382 0.782   -0.367741
 C 0.5 0.4103 0.0776   0.016987
 C 0.5 0.5477 0.1155   0.005573
 C 0.5 0.6187 0.1426   0.236485
 C 0.5 0.618 0.218   -0.367741
 O 0.856 0.9263 0.4463   -0.700302
 O 0.7581 0.9301 0.3474   -0.503339
 O 0.856 0.0737 0.5537   -0.700302
 O 0.7581 0.0699 0.6526   -0.503339
 O 0.856 0.5537 0.9263   -0.700302
 O 0.7581 0.6526 0.9301   -0.503339
 O 0.856 0.4463 0.0737   -0.700302
 O 0.7581 0.3474 0.0699   -0.503339
 O 0.144 0.0737 0.5537   -0.700302
 O 0.2419 0.0699 0.6526   -0.503339
 O 0.144 0.9263 0.4463   -0.700302
 O 0.2419 0.9301 0.3474   -0.503339
 O 0.144 0.4463 0.0737   -0.700302
 O 0.2419 0.3474 0.0699   -0.503339
 O 0.144 0.5537 0.9263   -0.700302
 O 0.2419 0.6526 0.9301   -0.503339
 O 0.0 0.9519 0.6041   -0.726281
 O 0.0 0.9671 0.7131   -0.494757
 O 0.0 0.6602 0.8126   -0.493436
 O 0.0 0.7581 0.8613   -0.458697
 O 0.0 0.0481 0.3959   -0.726281
 O 0.0 0.0329 0.2869   -0.494757
 O 0.0 0.3398 0.1874   -0.493436
 O 0.0 0.2419 0.1387   -0.458697
 O 0.0 0.3959 0.9519   -0.726281
 O 0.0 0.2869 0.9671   -0.494757
 O 0.0 0.1874 0.6602   -0.493436
 O 0.0 0.1387 0.7581   -0.458697
 O 0.0 0.6041 0.0481   -0.726281
 O 0.0 0.7131 0.0329   -0.494757
 O 0.0 0.8126 0.3398   -0.493436
 O 0.0 0.8613 0.2419   -0.458697
