{'_ref': 'TBD', '_srcid': 'CAKYAQ_clean', 'submitters': [{'name': 'Dalar Nazarian Jeff Camp and David Sholl', 'email': 'dalar@gatech.edu jcamp6@gatech.edu'}], '_method': 'VASP DFT with PBE;DDEC'}
data_PrH7C15O7
_symmetry_space_group_name_H-M   'P 1'
_cell_length_a   9.39800052
_cell_length_b   9.91099993
_cell_length_c   11.42200000
_cell_angle_alpha   93.96500150
_cell_angle_beta   98.13100162
_cell_angle_gamma   110.78199666
_symmetry_Int_Tables_number   1
_chemical_formula_structural   PrH7C15O7
_chemical_formula_sum   'Pr2 H14 C30 O14'
_cell_volume   976.449013091
_cell_formula_units_Z   2
loop_
 _symmetry_equiv_pos_site_id
 _symmetry_equiv_pos_as_xyz
  1  'x, y, z'
loop_
 _atom_site_label
 _atom_site_fract_x
 _atom_site_fract_y
 _atom_site_fract_z
 _atom_site_charge
 Pr 0.28428 0.5456 0.48512   2.142861
 Pr 0.71572 0.4544 0.51488   2.142861
 H 0.9402 0.3978 0.074   0.090124
 H 0.8498 0.2737 0.8825   0.149851
 H 0.1701 0.0957 0.9314   0.132508
 H 0.2633 0.2219 0.1173   0.093987
 H 0.9197 0.8661 0.6637   0.133078
 H 0.3194 0.9951 0.5382   0.118164
 H 0.1986 0.2864 0.7191   0.126899
 H 0.0598 0.6022 0.926   0.090124
 H 0.1502 0.7263 0.1175   0.149853
 H 0.8299 0.9043 0.0686   0.132511
 H 0.7367 0.7781 0.8827   0.093989
 H 0.0803 0.1339 0.3363   0.133078
 H 0.6806 0.0049 0.4618   0.118163
 H 0.8014 0.7136 0.2809   0.126899
 C 0.1766 0.4105 0.2365   0.697591
 C 0.1165 0.3265 0.1166   -0.201905
 C 0.9887 0.339 0.0446   0.010322
 C 0.9341 0.2644 0.9298   -0.23523
 C 0.0045 0.1778 0.887   0.297537
 C 0.1259 0.1592 0.9592   -0.267782
 C 0.1802 0.2338 0.0706   0.028462
 C 0.0488 0.0786 0.7062   0.253659
 C 0.0114 0.9387 0.6549   -0.134187
 C 0.1115 0.9064 0.5898   -0.138264
 C 0.0754 0.7554 0.5329   0.792826
 C 0.2486 0.0168 0.5776   -0.031532
 C 0.2784 0.1575 0.6241   -0.091482
 C 0.1787 0.1908 0.6885   -0.156163
 C 0.4203 0.2746 0.6024   0.741221
 C 0.8234 0.5895 0.7635   0.697591
 C 0.8835 0.6735 0.8834   -0.201906
 C 0.0113 0.661 0.9554   0.010323
 C 0.0659 0.7356 0.0702   -0.235231
 C 0.9955 0.8222 0.113   0.297537
 C 0.8741 0.8408 0.0408   -0.267785
 C 0.8198 0.7662 0.9294   0.028465
 C 0.9512 0.9214 0.2938   0.253658
 C 0.9886 0.0613 0.3451   -0.134191
 C 0.8885 0.0936 0.4102   -0.138265
 C 0.9246 0.2446 0.4671   0.792824
 C 0.7514 0.9832 0.4224   -0.031533
 C 0.7216 0.8425 0.3759   -0.091483
 C 0.8213 0.8092 0.3115   -0.156164
 C 0.5797 0.7254 0.3976   0.741221
 O 0.2849 0.3894 0.3023   -0.697285
 O 0.1224 0.5003 0.2737   -0.649059
 O 0.9448 0.6622 0.5316   -0.768828
 O 0.1787 0.7302 0.488   -0.727719
 O 0.4147 0.3941 0.5744   -0.818976
 O 0.5462 0.2518 0.6113   -0.634167
 O 0.9444 0.1062 0.7729   -0.256507
 O 0.7151 0.6106 0.6977   -0.697285
 O 0.8776 0.4997 0.7263   -0.649059
 O 0.0552 0.3378 0.4684   -0.768828
 O 0.8213 0.2698 0.512   -0.72772
 O 0.5853 0.6059 0.4256   -0.818977
 O 0.4538 0.7482 0.3887   -0.634168
 O 0.0556 0.8938 0.2271   -0.256507
