{'_ref': 'TBD', '_srcid': 'CAKYAQ_clean', 'submitters': [{'name': 'Dalar Nazarian Jeff Camp and David Sholl', 'email': 'dalar@gatech.edu jcamp6@gatech.edu'}], '_method': 'VASP DFT with PBE;DDEC'}
data_GdH7C15O7
_symmetry_space_group_name_H-M   'P 1'
_cell_length_a   9.33099980
_cell_length_b   9.84099981
_cell_length_c   11.42300000
_cell_angle_alpha   94.22399919
_cell_angle_beta   98.50999849
_cell_angle_gamma   110.95200122
_symmetry_Int_Tables_number   1
_chemical_formula_structural   GdH7C15O7
_chemical_formula_sum   'Gd2 H14 C30 O14'
_cell_volume   959.652020952
_cell_formula_units_Z   2
loop_
 _symmetry_equiv_pos_site_id
 _symmetry_equiv_pos_as_xyz
  1  'x, y, z'
loop_
 _atom_site_label
 _atom_site_fract_x
 _atom_site_fract_y
 _atom_site_fract_z
 _atom_site_charge
 Gd 0.28115 0.54561 0.9854   2.175756
 Gd 0.71885 0.45439 0.0146   2.175756
 H 0.6814 0.0023 0.9622   0.116803
 H 0.805 0.7124 0.7789   0.123597
 H 0.0811 0.1393 0.8368   0.130743
 H 0.8235 0.8991 0.5682   0.134862
 H 0.7303 0.7731 0.3811   0.095469
 H 0.063 0.6022 0.4217   0.091921
 H 0.1555 0.7258 0.6154   0.153417
 H 0.3186 0.9977 0.0378   0.116803
 H 0.195 0.2876 0.2211   0.123597
 H 0.9189 0.8607 0.1632   0.130742
 H 0.1765 0.1009 0.4318   0.134862
 H 0.2697 0.2269 0.6189   0.095469
 H 0.937 0.3978 0.5783   0.091921
 H 0.8445 0.2742 0.3846   0.153417
 C 0.9236 0.2475 0.9667   0.803926
 C 0.8885 0.0937 0.9105   -0.139643
 C 0.7527 0.9816 0.9222   -0.033883
 C 0.7227 0.8382 0.8744   -0.095985
 C 0.8242 0.8086 0.8099   -0.155872
 C 0.954 0.9215 0.7913   0.247727
 C 0.9897 0.0642 0.845   -0.134286
 C 0.5809 0.7171 0.8969   0.760065
 C 0.9971 0.8218 0.6113   0.29184
 C 0.8702 0.8377 0.5392   -0.266093
 C 0.8161 0.7634 0.4273   0.029914
 C 0.8843 0.6726 0.3785   -0.203345
 C 0.0139 0.6607 0.4516   0.010124
 C 0.0702 0.735 0.5681   -0.237408
 C 0.8235 0.5869 0.2592   0.687378
 C 0.0764 0.7525 0.0333   0.803926
 C 0.1115 0.9063 0.0895   -0.139642
 C 0.2473 0.0184 0.0778   -0.033883
 C 0.2773 0.1618 0.1256   -0.095985
 C 0.1758 0.1914 0.1901   -0.155872
 C 0.046 0.0785 0.2087   0.247727
 C 0.0103 0.9358 0.155   -0.134286
 C 0.4191 0.2829 0.1031   0.760065
 C 0.0029 0.1782 0.3887   0.29184
 C 0.1298 0.1623 0.4608   -0.266093
 C 0.1839 0.2366 0.5727   0.029914
 C 0.1157 0.3274 0.6215   -0.203344
 C 0.9861 0.3393 0.5484   0.010124
 C 0.9298 0.265 0.4319   -0.237408
 C 0.1765 0.4131 0.7408   0.687378
 O 0.0542 0.3423 0.9681   -0.777786
 O 0.818 0.2708 0.0113   -0.744211
 O 0.4529 0.7362 0.89   -0.649714
 O 0.5937 0.6001 0.926   -0.825326
 O 0.7154 0.6096 0.1916   -0.697915
 O 0.8767 0.4944 0.2217   -0.650135
 O 0.0573 0.895 0.7257   -0.241943
 O 0.9458 0.6577 0.0319   -0.777786
 O 0.182 0.7292 0.9887   -0.744211
 O 0.5471 0.2638 0.11   -0.649715
 O 0.4063 0.3999 0.074   -0.825326
 O 0.2846 0.3904 0.8084   -0.697916
 O 0.1233 0.5056 0.7783   -0.650135
 O 0.9427 0.105 0.2743   -0.241943
