{'_ref': 'TBD', '_srcid': 'CAKYAQ_clean', 'submitters': [{'name': 'Dalar Nazarian Jeff Camp and David Sholl', 'email': 'dalar@gatech.edu jcamp6@gatech.edu'}], '_method': 'VASP DFT with PBE;DDEC'}
data_DyH7C15O7
_symmetry_space_group_name_H-M   'P 1'
_cell_length_a   9.34099971
_cell_length_b   9.81299960
_cell_length_c   11.39500000
_cell_angle_alpha   94.24699889
_cell_angle_beta   99.08700191
_cell_angle_gamma   111.25900180
_symmetry_Int_Tables_number   1
_chemical_formula_structural   DyH7C15O7
_chemical_formula_sum   'Dy2 H14 C30 O14'
_cell_volume   951.371142951
_cell_formula_units_Z   2
loop_
 _symmetry_equiv_pos_site_id
 _symmetry_equiv_pos_as_xyz
  1  'x, y, z'
loop_
 _atom_site_label
 _atom_site_fract_x
 _atom_site_fract_y
 _atom_site_fract_z
 _atom_site_charge
 Dy 0.22185 0.45483 0.01271   2.274819
 Dy 0.77815 0.54517 0.98729   2.274818
 H 0.5675 0.6072 0.4215   0.091776
 H 0.6542 0.7272 0.6176   0.152701
 H 0.3206 0.8969 0.5667   0.13533
 H 0.2308 0.7731 0.3772   0.094404
 H 0.303 0.7098 0.7765   0.126578
 H 0.1776 0.9988 0.9606   0.119638
 H 0.5802 0.1405 0.8372   0.135278
 H 0.4325 0.3928 0.5785   0.091776
 H 0.3458 0.2728 0.3824   0.152701
 H 0.6794 0.1031 0.4333   0.13533
 H 0.7692 0.2269 0.6228   0.094404
 H 0.697 0.2902 0.2235   0.126578
 H 0.8224 0.0012 0.0394   0.119637
 H 0.4198 0.8595 0.1628   0.135278
 C 0.3243 0.5883 0.2558   0.694182
 C 0.3844 0.6715 0.3766   -0.206216
 C 0.5156 0.6629 0.4513   0.014173
 C 0.5693 0.7361 0.5688   -0.238861
 C 0.4952 0.8212 0.6113   0.297332
 C 0.3683 0.8366 0.5379   -0.268531
 C 0.3158 0.7629 0.4249   0.027178
 C 0.4513 0.9218 0.7927   0.24885
 C 0.322 0.8061 0.8087   -0.154937
 C 0.2204 0.8354 0.8737   -0.100807
 C 0.2493 0.9789 0.9212   -0.027374
 C 0.3848 0.0931 0.9101   -0.144081
 C 0.4886 0.0649 0.845   -0.133064
 C 0.0804 0.7114 0.897   0.783188
 C 0.4212 0.2473 0.9684   0.81869
 C 0.6757 0.4117 0.7442   0.694182
 C 0.6156 0.3285 0.6234   -0.206215
 C 0.4844 0.3371 0.5487   0.014174
 C 0.4307 0.2639 0.4312   -0.238861
 C 0.5048 0.1788 0.3887   0.297333
 C 0.6317 0.1634 0.4621   -0.268528
 C 0.6842 0.2371 0.5751   0.027178
 C 0.5487 0.0782 0.2073   0.248849
 C 0.678 0.1939 0.1913   -0.154937
 C 0.7796 0.1646 0.1263   -0.100807
 C 0.7507 0.0211 0.0788   -0.027374
 C 0.6152 0.9069 0.0899   -0.144082
 C 0.5114 0.9351 0.155   -0.133063
 C 0.9196 0.2886 0.103   0.783188
 C 0.5788 0.7527 0.0316   0.81869
 O 0.3787 0.4952 0.219   -0.670439
 O 0.2184 0.6101 0.1855   -0.707163
 O 0.0964 0.5954 0.9243   -0.854889
 O 0.9532 0.7294 0.8921   -0.67067
 O 0.5521 0.3445 0.9697   -0.810158
 O 0.313 0.269 0.0098   -0.773695
 O 0.5558 0.8949 0.7265   -0.253234
 O 0.6213 0.5048 0.781   -0.670439
 O 0.7816 0.3899 0.8145   -0.707164
 O 0.9036 0.4046 0.0757   -0.854889
 O 0.0468 0.2706 0.1079   -0.67067
 O 0.4479 0.6555 0.0303   -0.810158
 O 0.687 0.731 0.9902   -0.773694
 O 0.4442 0.1051 0.2735   -0.253233
