{'_ref': 'TBD', '_srcid': 'CAKYAQ_clean', 'submitters': [{'name': 'Dalar Nazarian Jeff Camp and David Sholl', 'email': 'dalar@gatech.edu jcamp6@gatech.edu'}], '_method': 'VASP DFT with PBE;DDEC'}
data_CdIn2(CO2)12
_symmetry_space_group_name_H-M   'P 1'
_cell_length_a   8.56600000
_cell_length_b   8.56600034
_cell_length_c   37.81100000
_cell_angle_alpha   90.00000000
_cell_angle_beta   90.00000000
_cell_angle_gamma   119.99999869
_symmetry_Int_Tables_number   1
_chemical_formula_structural   CdIn2(CO2)12
_chemical_formula_sum   'Cd3 In6 C36 O72'
_cell_volume   2402.72992936
_cell_formula_units_Z   3
loop_
 _symmetry_equiv_pos_site_id
 _symmetry_equiv_pos_as_xyz
  1  'x, y, z'
loop_
 _atom_site_label
 _atom_site_fract_x
 _atom_site_fract_y
 _atom_site_fract_z
 _atom_site_charge
 Cd 0.0 0.0 0.66667   1.028459
 Cd 0.0 0.0 0.33333   1.028458
 Cd 0.0 0.0 0.0   1.028432
 In 0.5 0.5 0.77804   1.431791
 In 0.0 0.5 0.44471   1.431773
 In 0.5 0.0 0.11137   1.431721
 In 0.0 0.5 0.88863   1.431723
 In 0.5 0.5 0.22196   1.431792
 In 0.5 0.0 0.55529   1.431774
 C 0.2782 0.1775 0.72542   0.492833
 C 0.2261 0.3213 0.7171   0.500082
 C 0.8993 0.7218 0.39209   0.492855
 C 0.0952 0.7739 0.38377   0.500144
 C 0.8225 0.1007 0.05875   0.492667
 C 0.6787 0.9048 0.05043   0.500269
 C 0.7218 0.8225 0.72542   0.492836
 C 0.7739 0.6787 0.7171   0.500087
 C 0.1007 0.2782 0.39209   0.492857
 C 0.9048 0.2261 0.38377   0.500148
 C 0.1775 0.8993 0.05875   0.49267
 C 0.3213 0.0952 0.05043   0.500273
 C 0.1007 0.8225 0.94125   0.49267
 C 0.9048 0.6787 0.94957   0.50027
 C 0.1775 0.2782 0.27458   0.492837
 C 0.3213 0.2261 0.2829   0.500084
 C 0.7218 0.8993 0.60791   0.492858
 C 0.7739 0.0952 0.61623   0.500145
 C 0.8993 0.1775 0.94125   0.492673
 C 0.0952 0.3213 0.94957   0.500274
 C 0.8225 0.7218 0.27458   0.49284
 C 0.6787 0.7739 0.2829   0.500088
 C 0.2782 0.1007 0.60791   0.49286
 C 0.2261 0.9048 0.61623   0.500149
 C 0.7048 0.4096 0.83333   0.494925
 C 0.8072 0.6144 0.83333   0.510122
 C 0.7048 0.2952 0.5   0.494799
 C 0.8072 0.1928 0.5   0.510256
 C 0.5904 0.2952 0.16667   0.494925
 C 0.3856 0.1928 0.16667   0.510122
 C 0.2952 0.5904 0.83333   0.494931
 C 0.1928 0.3856 0.83333   0.510127
 C 0.2952 0.7048 0.5   0.494805
 C 0.1928 0.8072 0.5   0.510261
 C 0.4096 0.7048 0.16667   0.494931
 C 0.6144 0.8072 0.16667   0.510127
 O 0.5785 0.3304 0.81194   -0.424143
 O 0.2951 0.4606 0.73615   -0.478747
 O 0.1205 0.2897 0.69213   -0.322459
 O 0.3916 0.2141 0.74959   -0.369901
 O 0.7562 0.6901 0.81155   -0.457441
 O 0.2052 0.0355 0.70731   -0.415597
 O 0.7519 0.4215 0.47861   -0.424153
 O 0.1655 0.7049 0.40282   -0.478842
 O 0.1692 0.8795 0.3588   -0.322472
 O 0.8225 0.6084 0.41626   -0.369887
 O 0.9339 0.2438 0.47822   -0.457595
 O 0.8303 0.7948 0.37398   -0.415602
 O 0.6696 0.2481 0.14527   -0.424375
 O 0.5394 0.8345 0.06948   -0.478711
 O 0.7103 0.8308 0.02546   -0.322582
 O 0.7859 0.1775 0.08292   -0.369813
 O 0.3099 0.0661 0.14488   -0.457593
 O 0.9645 0.1697 0.04064   -0.415519
 O 0.4215 0.6696 0.81194   -0.424144
 O 0.7049 0.5394 0.73615   -0.478747
 O 0.8795 0.7103 0.69213   -0.322459
 O 0.6084 0.7859 0.74959   -0.3699
 O 0.2438 0.3099 0.81155   -0.457441
 O 0.7948 0.9645 0.70731   -0.415596
 O 0.2481 0.5785 0.47861   -0.424153
 O 0.8345 0.2951 0.40282   -0.478842
 O 0.8308 0.1205 0.3588   -0.322472
 O 0.1775 0.3916 0.41626   -0.369887
 O 0.0661 0.7562 0.47822   -0.457595
 O 0.1697 0.2052 0.37398   -0.415602
 O 0.3304 0.7519 0.14527   -0.424376
 O 0.4606 0.1655 0.06948   -0.478711
 O 0.2897 0.1692 0.02546   -0.322582
 O 0.2141 0.8225 0.08292   -0.369813
 O 0.6901 0.9339 0.14488   -0.457593
 O 0.0355 0.8303 0.04064   -0.415519
 O 0.2481 0.6696 0.85473   -0.424376
 O 0.8345 0.5394 0.93052   -0.478711
 O 0.8308 0.7103 0.97454   -0.322582
 O 0.1775 0.7859 0.91708   -0.369813
 O 0.0661 0.3099 0.85512   -0.457593
 O 0.1697 0.9645 0.95936   -0.415519
 O 0.3304 0.5785 0.18806   -0.424144
 O 0.4606 0.2951 0.26385   -0.478747
 O 0.2897 0.1205 0.30787   -0.322459
 O 0.2141 0.3916 0.25041   -0.369901
 O 0.6901 0.7562 0.18845   -0.457441
 O 0.0355 0.2052 0.29269   -0.415596
 O 0.4215 0.7519 0.52139   -0.424153
 O 0.7049 0.1655 0.59718   -0.478842
 O 0.8795 0.1692 0.6412   -0.322472
 O 0.6084 0.8225 0.58374   -0.369887
 O 0.2438 0.9339 0.52178   -0.457595
 O 0.7948 0.8303 0.62602   -0.415602
 O 0.7519 0.3304 0.85473   -0.424376
 O 0.1655 0.4606 0.93052   -0.478711
 O 0.1692 0.2897 0.97454   -0.322582
 O 0.8225 0.2141 0.91708   -0.369813
 O 0.9339 0.6901 0.85512   -0.457592
 O 0.8303 0.0355 0.95936   -0.415519
 O 0.6696 0.4215 0.18806   -0.424143
 O 0.5394 0.7049 0.26385   -0.478747
 O 0.7103 0.8795 0.30787   -0.322459
 O 0.7859 0.6084 0.25041   -0.3699
 O 0.3099 0.2438 0.18845   -0.457441
 O 0.9645 0.7948 0.29269   -0.415596
 O 0.5785 0.2481 0.52139   -0.424153
 O 0.2951 0.8345 0.59718   -0.478842
 O 0.1205 0.8308 0.6412   -0.322472
 O 0.3916 0.1775 0.58374   -0.369887
 O 0.7562 0.0661 0.52178   -0.457594
 O 0.2052 0.1697 0.62602   -0.415602
