{'_ref': 'TBD', '_srcid': 'CAKYAQ_clean', 'submitters': [{'name': 'Dalar Nazarian Jeff Camp and David Sholl', 'email': 'dalar@gatech.edu jcamp6@gatech.edu'}], '_method': 'VASP DFT with PBE;DDEC'}
data_CdH10C10(NO2)2
_symmetry_space_group_name_H-M   'P 1'
_cell_length_a   9.56670000
_cell_length_b   16.40810000
_cell_length_c   16.44690000
_cell_angle_alpha   90.00000000
_cell_angle_beta   90.00000000
_cell_angle_gamma   90.00000000
_symmetry_Int_Tables_number   1
_chemical_formula_structural   CdH10C10(NO2)2
_chemical_formula_sum   'Cd8 H80 C80 N16 O32'
_cell_volume   2581.69242969
_cell_formula_units_Z   8
loop_
 _symmetry_equiv_pos_site_id
 _symmetry_equiv_pos_as_xyz
  1  'x, y, z'
loop_
 _atom_site_label
 _atom_site_fract_x
 _atom_site_fract_y
 _atom_site_fract_z
 _atom_site_charge
 Cd 0.02557 0.42964 0.12079   1.02105
 Cd 0.68443 0.74988 0.85105   0.969755
 Cd 0.47443 0.57036 0.62079   1.02105
 Cd 0.81557 0.25012 0.35105   0.969755
 Cd 0.97443 0.92964 0.37921   1.02105
 Cd 0.31557 0.24988 0.64895   0.969755
 Cd 0.52557 0.07036 0.87921   1.02105
 Cd 0.18443 0.75012 0.14895   0.969755
 H 0.4747 0.7023 0.0937   0.269547
 H 0.8173 0.3691 0.000599999999999   0.286673
 H 0.4341 0.5758 0.053   0.075481
 H 0.2585 0.6955 0.9792   0.14277
 H 0.2948 0.6127 0.9369   0.141839
 H 0.4692 0.6895 0.2319   0.092853
 H 0.3807 0.6102 0.219   0.097971
 H 0.7037 0.416 0.1493   0.080275
 H 0.4977 0.484 0.1736   0.141274
 H 0.7181 0.6904 0.1887   0.138406
 H 0.917 0.6177 0.1665   0.081301
 H 0.9201 0.2487 0.972   0.081734
 H 0.824 0.1847 0.0782   0.151616
 H 0.7357 0.2644 0.0699   0.139692
 H 0.0676 0.3924 0.9294   0.090211
 H 0.9398 0.3496 0.8875   0.07761
 H 0.9896 0.6599 0.8787   0.072962
 H 0.0856 0.5373 0.9109   0.128721
 H 0.7096 0.435 0.8824   0.147323
 H 0.6237 0.5621 0.8505   0.081996
 H 0.0253 0.2977 0.5937   0.269547
 H 0.6827 0.6309 0.5006   0.286673
 H 0.0659 0.4242 0.553   0.075481
 H 0.2415 0.3045 0.4792   0.14277
 H 0.2052 0.3873 0.4369   0.141839
 H 0.0308 0.3105 0.7319   0.092854
 H 0.1193 0.3898 0.719   0.097971
 H 0.7963 0.584 0.6493   0.080275
 H 0.0023 0.516 0.6736   0.141274
 H 0.7819 0.3096 0.6887   0.138406
 H 0.583 0.3823 0.6665   0.081301
 H 0.5799 0.7513 0.472   0.081734
 H 0.676 0.8153 0.5782   0.151616
 H 0.7643 0.7356 0.5699   0.139692
 H 0.4324 0.6076 0.4294   0.090211
 H 0.5602 0.6504 0.3875   0.07761
 H 0.5104 0.3401 0.3787   0.072962
 H 0.4144 0.4627 0.4109   0.128721
 H 0.7904 0.565 0.3824   0.147323
 H 0.8763 0.4379 0.3505   0.081996
 H 0.5253 0.2023 0.4063   0.269547
 H 0.1827 0.8691 0.4994   0.286673
 H 0.5659 0.0758 0.447   0.075481
 H 0.7415 0.1955 0.5208   0.14277
 H 0.7052 0.1127 0.5631   0.141839
 H 0.5308 0.1895 0.2681   0.092853
 H 0.6193 0.1102 0.281   0.097971
 H 0.2963 0.916 0.3507   0.080275
 H 0.5023 0.984 0.3264   0.141274
 H 0.2819 0.1904 0.3113   0.138406
 H 0.083 0.1177 0.3335   0.081301
 H 0.0799 0.7487 0.528   0.081735
 H 0.176 0.6847 0.4218   0.151616
 H 0.2643 0.7644 0.4301   0.139692
 H 0.9324 0.8924 0.5706   0.090211
 H 0.0602 0.8496 0.6125   0.07761
 H 0.0104 0.1599 0.6213   0.072962
 H 0.9144 0.0373 0.5891   0.128721
 H 0.2904 0.935 0.6176   0.147323
 H 0.3763 0.0621 0.6495   0.081996
 H 0.9747 0.7977 0.9063   0.269547
 H 0.3173 0.1309 0.9994   0.286673
 H 0.9341 0.9242 0.947   0.075481
 H 0.7585 0.8045 0.0208   0.14277
 H 0.7948 0.8873 0.0631   0.141839
 H 0.9692 0.8105 0.7681   0.092854
 H 0.8807 0.8898 0.781   0.097971
 H 0.2037 0.084 0.8507   0.080275
 H 0.9977 0.016 0.8264   0.141274
 H 0.2181 0.8096 0.8113   0.138406
 H 0.417 0.8823 0.8335   0.081301
 H 0.4201 0.2513 0.028   0.081735
 H 0.324 0.3153 0.9218   0.151616
 H 0.2357 0.2356 0.9301   0.139692
 H 0.5676 0.1076 0.0706   0.090211
 H 0.4398 0.1504 0.1125   0.07761
 H 0.4896 0.8401 0.1213   0.072962
 H 0.5856 0.9627 0.0891   0.128721
 H 0.2096 0.065 0.1176   0.147323
 H 0.1237 0.9379 0.1495   0.081996
 C 0.2238 0.5717 0.0851   0.596866
 C 0.3575 0.6152 0.0572   0.054773
 C 0.3305 0.6543 0.9733   -0.36504
 C 0.4561 0.6927 0.9351   0.700348
 C 0.4508 0.6452 0.1945   -0.01898
 C 0.7064 0.4722 0.1566   0.1954
 C 0.5815 0.5126 0.1712   -0.223888
 C 0.5835 0.5968 0.1823   0.105946
 C 0.7122 0.6344 0.1804   -0.198427
 C 0.8317 0.5905 0.1664   0.20631
 C 0.0824 0.2578 0.0533   0.613511
 C 0.934 0.2773 0.0237   0.052226
 C 0.8271 0.2434 0.0845   -0.386209
 C 0.8523 0.2622 0.1729   0.723399
 C 0.9663 0.39 0.9277   0.012093
 C 0.9317 0.6144 0.8806   0.178289
 C 0.9904 0.5406 0.9   -0.214199
 C 0.9092 0.4717 0.9033   0.116899
 C 0.7684 0.4801 0.8832   -0.204708
 C 0.7177 0.5572 0.8642   0.185886
 C 0.2762 0.4283 0.5851   0.596866
 C 0.1425 0.3848 0.5572   0.054773
 C 0.1695 0.3457 0.4733   -0.36504
 C 0.0439 0.3073 0.4351   0.700348
 C 0.0492 0.3548 0.6945   -0.01898
 C 0.7936 0.5278 0.6566   0.1954
 C 0.9185 0.4874 0.6712   -0.223889
 C 0.9165 0.4032 0.6823   0.105946
 C 0.7878 0.3656 0.6804   -0.198427
 C 0.6683 0.4095 0.6664   0.20631
 C 0.4176 0.7422 0.5533   0.613511
 C 0.566 0.7227 0.5237   0.052226
 C 0.6729 0.7566 0.5845   -0.386208
 C 0.6477 0.7378 0.6729   0.723399
 C 0.5337 0.61 0.4277   0.012093
 C 0.5683 0.3856 0.3806   0.178289
 C 0.5096 0.4594 0.4   -0.214199
 C 0.5908 0.5283 0.4033   0.116899
 C 0.7316 0.5199 0.3832   -0.204708
 C 0.7823 0.4428 0.3642   0.185886
 C 0.7762 0.0717 0.4149   0.596866
 C 0.6425 0.1152 0.4428   0.054773
 C 0.6695 0.1543 0.5267   -0.365041
 C 0.5439 0.1927 0.5649   0.700349
 C 0.5492 0.1452 0.3055   -0.01898
 C 0.2936 0.9722 0.3434   0.1954
 C 0.4185 0.0126 0.3288   -0.223888
 C 0.4165 0.0968 0.3177   0.105946
 C 0.2878 0.1344 0.3196   -0.198427
 C 0.1683 0.0905 0.3336   0.20631
 C 0.9176 0.7578 0.4467   0.613511
 C 0.066 0.7773 0.4763   0.052226
 C 0.1729 0.7434 0.4155   -0.386209
 C 0.1477 0.7622 0.3271   0.7234
 C 0.0337 0.89 0.5723   0.012093
 C 0.0683 0.1144 0.6194   0.178289
 C 0.0096 0.0406 0.6   -0.214199
 C 0.0908 0.9717 0.5967   0.116899
 C 0.2316 0.9801 0.6168   -0.204708
 C 0.2823 0.0572 0.6358   0.185886
 C 0.7238 0.9283 0.9149   0.596866
 C 0.8575 0.8848 0.9428   0.054773
 C 0.8305 0.8457 0.0267   -0.365041
 C 0.9561 0.8073 0.0649   0.700349
 C 0.9508 0.8548 0.8055   -0.01898
 C 0.2064 0.0278 0.8434   0.1954
 C 0.0815 0.9874 0.8288   -0.223889
 C 0.0835 0.9032 0.8177   0.105946
 C 0.2122 0.8656 0.8196   -0.198427
 C 0.3317 0.9095 0.8336   0.20631
 C 0.5824 0.2422 0.9467   0.613511
 C 0.434 0.2227 0.9763   0.052226
 C 0.3271 0.2566 0.9155   -0.386209
 C 0.3523 0.2378 0.8271   0.7234
 C 0.4663 0.11 0.0723   0.012093
 C 0.4317 0.8856 0.1194   0.178289
 C 0.4904 0.9594 0.1   -0.214199
 C 0.4092 0.0283 0.0967   0.116899
 C 0.2684 0.0199 0.1168   -0.204708
 C 0.2177 0.9428 0.1358   0.185886
 N 0.3941 0.6794 0.117   -0.457453
 N 0.8305 0.5097 0.1524   -0.400197
 N 0.9125 0.3653 0.0084   -0.501592
 N 0.7956 0.6243 0.8644   -0.381431
 N 0.1059 0.3206 0.617   -0.457453
 N 0.6695 0.4903 0.6524   -0.400197
 N 0.5875 0.6347 0.5084   -0.501592
 N 0.7044 0.3757 0.3644   -0.381431
 N 0.6059 0.1794 0.383   -0.457453
 N 0.1695 0.0097 0.3476   -0.400197
 N 0.0875 0.8653 0.4916   -0.501592
 N 0.2044 0.1243 0.6356   -0.381431
 N 0.8941 0.8206 0.883   -0.457453
 N 0.3305 0.9903 0.8476   -0.400197
 N 0.4125 0.1347 0.9916   -0.501592
 N 0.2956 0.8757 0.1356   -0.381431
 O 0.1338 0.61153 0.1237   -0.572989
 O 0.2101 0.4969 0.0669   -0.585254
 O 0.4607 0.69733 0.85785   -0.618232
 O 0.5551 0.7191 0.97781   -0.634164
 O 0.1569 0.31636 0.07911   -0.621103
 O 0.119 0.1846 0.0493   -0.618824
 O 0.9003 0.32983 0.19453   -0.632694
 O 0.8129 0.20777 0.22331   -0.617623
 O 0.3662 0.38847 0.6237   -0.572989
 O 0.2899 0.5031 0.5669   -0.585254
 O 0.0393 0.30267 0.35785   -0.618232
 O 0.9449 0.2809 0.47781   -0.634164
 O 0.3431 0.68364 0.57911   -0.621103
 O 0.381 0.8154 0.5493   -0.618824
 O 0.5997 0.67017 0.69453   -0.632694
 O 0.6871 0.79223 0.72331   -0.617623
 O 0.8662 0.11153 0.3763   -0.57299
 O 0.7899 0.9969 0.4331   -0.585254
 O 0.5393 0.19733 0.64215   -0.618232
 O 0.4449 0.2191 0.52219   -0.634164
 O 0.8431 0.81636 0.42089   -0.621103
 O 0.881 0.6846 0.4507   -0.618824
 O 0.0997 0.82983 0.30547   -0.632694
 O 0.1871 0.70777 0.27669   -0.617623
 O 0.6338 0.88847 0.8763   -0.57299
 O 0.7101 0.0031 0.9331   -0.585254
 O 0.9607 0.80267 0.14215   -0.618232
 O 0.0551 0.7809 0.02219   -0.634164
 O 0.6569 0.18364 0.92089   -0.621103
 O 0.619 0.3154 0.9507   -0.618824
 O 0.4003 0.17017 0.80547   -0.632694
 O 0.3129 0.29223 0.77669   -0.617623
