{'_ref': 'TBD', '_srcid': 'CAKYAQ_clean', 'submitters': [{'name': 'Dalar Nazarian Jeff Camp and David Sholl', 'email': 'dalar@gatech.edu jcamp6@gatech.edu'}], '_method': 'VASP DFT with PBE;DDEC'}
data_Pr2H6(C3O4)3
_symmetry_space_group_name_H-M   'P 1'
_cell_length_a   11.28800000
_cell_length_b   12.64500000
_cell_length_c   14.72500000
_cell_angle_alpha   90.00000000
_cell_angle_beta   90.00000000
_cell_angle_gamma   90.00000000
_symmetry_Int_Tables_number   1
_chemical_formula_structural   Pr2H6(C3O4)3
_chemical_formula_sum   'Pr8 H24 C36 O48'
_cell_volume   2101.798791
_cell_formula_units_Z   4
loop_
 _symmetry_equiv_pos_site_id
 _symmetry_equiv_pos_as_xyz
  1  'x, y, z'
loop_
 _atom_site_label
 _atom_site_fract_x
 _atom_site_fract_y
 _atom_site_fract_z
 _atom_site_charge
 Pr 0.14936 0.38544 0.99286   2.172377
 Pr 0.35064 0.11456 0.49286   2.172377
 Pr 0.85064 0.38544 0.50714   2.172377
 Pr 0.64936 0.11456 0.00714   2.172377
 Pr 0.85064 0.61456 0.00714   2.172377
 Pr 0.64936 0.88544 0.50714   2.172377
 Pr 0.14936 0.61456 0.49286   2.172377
 Pr 0.35064 0.88544 0.99286   2.172377
 H 0.945 0.597 0.762   0.16777
 H 0.437 0.587 0.848   0.178148
 H 0.331 0.526 0.809   0.170124
 H 0.555 0.903 0.262   0.16777
 H 0.063 0.913 0.348   0.178148
 H 0.169 0.974 0.309   0.170124
 H 0.055 0.597 0.738   0.16777
 H 0.563 0.587 0.652   0.178148
 H 0.669 0.526 0.691   0.170124
 H 0.445 0.903 0.238   0.16777
 H 0.937 0.913 0.152   0.178148
 H 0.831 0.974 0.191   0.170124
 H 0.055 0.403 0.238   0.16777
 H 0.563 0.413 0.152   0.178148
 H 0.669 0.474 0.191   0.170124
 H 0.445 0.097 0.738   0.16777
 H 0.937 0.087 0.652   0.178148
 H 0.831 0.026 0.691   0.170124
 H 0.945 0.403 0.262   0.16777
 H 0.437 0.413 0.348   0.178148
 H 0.331 0.474 0.309   0.170124
 H 0.555 0.097 0.762   0.16777
 H 0.063 0.087 0.848   0.178148
 H 0.169 0.026 0.809   0.170124
 C 0.4271 0.4476 0.90415   0.839488
 C 0.3805 0.549 0.8631   -0.560257
 C 0.3017 0.61461 0.9245   0.898193
 C 0.03 0.4865 0.83201   0.824751
 C 0.0729 0.0524 0.40415   0.839488
 C 0.1195 0.951 0.3631   -0.560257
 C 0.1983 0.88539 0.4245   0.898193
 C 0.47 0.0135 0.33201   0.824751
 C 0.5729 0.4476 0.59585   0.839488
 C 0.6195 0.549 0.6369   -0.560257
 C 0.6983 0.61461 0.5755   0.898193
 C 0.97 0.4865 0.66799   0.824751
 C 0.9271 0.0524 0.09585   0.839488
 C 0.8805 0.951 0.1369   -0.560257
 C 0.8017 0.88539 0.0755   0.898193
 C 0.53 0.0135 0.16799   0.824751
 C 0.5729 0.5524 0.09585   0.839488
 C 0.6195 0.451 0.1369   -0.560257
 C 0.6983 0.38539 0.0755   0.898193
 C 0.97 0.5135 0.16799   0.824751
 C 0.9271 0.9476 0.59585   0.839488
 C 0.8805 0.049 0.6369   -0.560257
 C 0.8017 0.11461 0.5755   0.898193
 C 0.53 0.9865 0.66799   0.824751
 C 0.4271 0.5524 0.40415   0.839488
 C 0.3805 0.451 0.3631   -0.560257
 C 0.3017 0.38539 0.4245   0.898193
 C 0.03 0.5135 0.33201   0.824751
 C 0.0729 0.9476 0.90415   0.839488
 C 0.1195 0.049 0.8631   -0.560257
 C 0.1983 0.11461 0.9245   0.898193
 C 0.47 0.9865 0.83201   0.824751
 C 0.0 0.5518 0.75   -0.489096
 C 0.5 0.9482 0.25   -0.489096
 C 0.0 0.4482 0.25   -0.489096
 C 0.5 0.0518 0.75   -0.489096
 O 0.35451 0.38271 0.9371   -0.79637
 O 0.31722 0.71181 0.92622   -0.763808
 O 0.221 0.5677 0.96846   -0.762263
 O 0.98522 0.50865 0.90834   -0.849176
 O 0.1041 0.41311 0.82549   -0.63512
 O 0.53591 0.43123 0.90219   -0.63931
 O 0.14549 0.11729 0.4371   -0.79637
 O 0.18278 0.78819 0.42622   -0.763808
 O 0.279 0.9323 0.46846   -0.762263
 O 0.51478 0.99135 0.40834   -0.849176
 O 0.3959 0.08689 0.32549   -0.63512
 O 0.96409 0.06877 0.40219   -0.63931
 O 0.64549 0.38271 0.5629   -0.79637
 O 0.68278 0.71181 0.57378   -0.763808
 O 0.779 0.5677 0.53154   -0.762263
 O 0.01478 0.50865 0.59166   -0.849176
 O 0.8959 0.41311 0.67451   -0.63512
 O 0.46409 0.43123 0.59781   -0.63931
 O 0.85451 0.11729 0.0629   -0.79637
 O 0.81722 0.78819 0.07378   -0.763808
 O 0.721 0.9323 0.03154   -0.762263
 O 0.48522 0.99135 0.09166   -0.849176
 O 0.6041 0.08689 0.17451   -0.63512
 O 0.03591 0.06877 0.09781   -0.63931
 O 0.64549 0.61729 0.0629   -0.79637
 O 0.68278 0.28819 0.07378   -0.763808
 O 0.779 0.4323 0.03154   -0.762263
 O 0.01478 0.49135 0.09166   -0.849176
 O 0.8959 0.58689 0.17451   -0.63512
 O 0.46409 0.56877 0.09781   -0.63931
 O 0.85451 0.88271 0.5629   -0.79637
 O 0.81722 0.21181 0.57378   -0.763808
 O 0.721 0.0677 0.53154   -0.762263
 O 0.48522 0.00865 0.59166   -0.849176
 O 0.6041 0.91311 0.67451   -0.63512
 O 0.03591 0.93123 0.59781   -0.63931
 O 0.35451 0.61729 0.4371   -0.79637
 O 0.31722 0.28819 0.42622   -0.763808
 O 0.221 0.4323 0.46846   -0.762263
 O 0.98522 0.49135 0.40834   -0.849176
 O 0.1041 0.58689 0.32549   -0.63512
 O 0.53591 0.56877 0.40219   -0.63931
 O 0.14549 0.88271 0.9371   -0.79637
 O 0.18278 0.21181 0.92622   -0.763808
 O 0.279 0.0677 0.96846   -0.762263
 O 0.51478 0.00865 0.90834   -0.849176
 O 0.3959 0.91311 0.82549   -0.63512
 O 0.96409 0.93123 0.90219   -0.63931
