{'_ref': 'TBD', '_srcid': 'CAKYAQ_clean', 'submitters': [{'name': 'Dalar Nazarian Jeff Camp and David Sholl', 'email': 'dalar@gatech.edu jcamp6@gatech.edu'}], '_method': 'VASP DFT with PBE;DDEC'}
data_Cu2H26C51(O2F3)6
_symmetry_space_group_name_H-M   'P 1'
_cell_length_a   7.27100000
_cell_length_b   18.72299994
_cell_length_c   20.48100000
_cell_angle_alpha   107.01999980
_cell_angle_beta   90.00000000
_cell_angle_gamma   90.00000000
_symmetry_Int_Tables_number   1
_chemical_formula_structural   Cu2H26C51(O2F3)6
_chemical_formula_sum   'Cu4 H52 C102 O24 F36'
_cell_volume   2666.06465444
_cell_formula_units_Z   2
loop_
 _symmetry_equiv_pos_site_id
 _symmetry_equiv_pos_as_xyz
  1  'x, y, z'
loop_
 _atom_site_label
 _atom_site_fract_x
 _atom_site_fract_y
 _atom_site_fract_z
 _atom_site_charge
 Cu 0.85349 0.4721 0.522   0.876038
 Cu 0.85349 0.0279 0.978   0.876038
 Cu 0.14651 0.5279 0.478   0.876041
 Cu 0.14651 0.9721 0.022   0.876041
 H 0.9017 0.3395 0.532   0.354719
 H 0.4983 0.6653 0.5813   0.103537
 H 0.3642 0.7813 0.6173   0.116497
 H 0.8059 0.8703 0.5557   0.1051
 H 0.9438 0.7549 0.5237   0.09655
 H 0.592 0.8918 0.7284   0.114009
 H 0.4661 0.9119 0.8356   0.109647
 H 0.9979 0.9765 0.7684   0.102185
 H 0.1258 0.9598 0.6624   0.093192
 H 0.6479 0.2264 0.61   0.090016
 H 0.4499 0.1897 0.6813   0.104896
 H 0.1449 0.3717 0.7005   0.095643
 H 0.3463 0.4107 0.6316   0.083703
 H 0.9017 0.1605 0.968   0.354719
 H 0.4983 0.8347 0.9187   0.103537
 H 0.3642 0.7187 0.8827   0.116497
 H 0.8059 0.6297 0.9443   0.1051
 H 0.9438 0.7451 0.9763   0.09655
 H 0.592 0.6082 0.7716   0.114009
 H 0.4661 0.5881 0.6644   0.109647
 H 0.9979 0.5235 0.7316   0.102185
 H 0.1258 0.5402 0.8376   0.093192
 H 0.6479 0.2736 0.89   0.090016
 H 0.4499 0.3103 0.8187   0.104896
 H 0.1449 0.1283 0.7995   0.095643
 H 0.3463 0.0893 0.8684   0.083703
 H 0.0983 0.6605 0.468   0.354719
 H 0.5017 0.3347 0.4187   0.103537
 H 0.6358 0.2187 0.3827   0.116497
 H 0.1941 0.1297 0.4443   0.1051
 H 0.0562 0.2451 0.4763   0.09655
 H 0.408 0.1082 0.2716   0.114009
 H 0.5339 0.0881 0.1644   0.109647
 H 0.0021 0.0235 0.2316   0.102185
 H 0.8742 0.0402 0.3376   0.093192
 H 0.3521 0.7736 0.39   0.090016
 H 0.5501 0.8103 0.3187   0.104896
 H 0.8551 0.6283 0.2995   0.095643
 H 0.6537 0.5893 0.3684   0.083703
 H 0.0983 0.8395 0.032   0.354719
 H 0.5017 0.1653 0.0813   0.103537
 H 0.6358 0.2813 0.1173   0.116497
 H 0.1941 0.3703 0.0557   0.1051
 H 0.0562 0.2549 0.0237   0.09655
 H 0.408 0.3918 0.2284   0.114009
 H 0.5339 0.4119 0.3356   0.109647
 H 0.0021 0.4765 0.2684   0.102185
 H 0.8742 0.4598 0.1624   0.093192
 H 0.3521 0.7264 0.11   0.090016
 H 0.5501 0.6897 0.1813   0.104896
 H 0.8551 0.8717 0.2005   0.095643
 H 0.6537 0.9107 0.1316   0.083703
 C 0.8255 0.6237 0.53016   0.666026
 C 0.735 0.69889 0.54985   -0.152577
 C 0.5618 0.70691 0.57714   -0.003768
 C 0.4815 0.77622 0.59837   -0.141906
 C 0.5725 0.8386 0.5919   0.088619
 C 0.7446 0.8294 0.5623   -0.144302
 C 0.8262 0.7602 0.5423   -0.002779
 C 0.4753 0.9154 0.61604   -0.302187
 C 0.3741 0.92447 0.68387   0.082475
 C 0.4724 0.9097 0.73647   -0.145473
 C 0.3968 0.9212 0.80078   -0.012078
 C 0.2175 0.94647 0.813   -0.135293
 C 0.1189 0.95998 0.76069   -0.012109
 C 0.1951 0.9497 0.69685   -0.147243
 C 0.1367 0.9638 0.88338   0.650053
 C 0.6076 0.9822 0.6283   0.693981
 C 0.3419 0.9174 0.55711   0.685988
 C 0.661 0.3535 0.57662   0.657623
 C 0.5231 0.32455 0.61613   -0.167807
 C 0.5494 0.2568 0.62954   -0.000564
 C 0.4295 0.2346 0.6718   -0.138036
 C 0.2794 0.2777 0.70033   0.090542
 C 0.2485 0.3431 0.6836   -0.146962
 C 0.3688 0.3665 0.64214   -0.000112
 C 0.0352 0.3128 0.7951   0.691899
 C 0.8255 0.8763 0.96984   0.666026
 C 0.735 0.80111 0.95015   -0.152576
 C 0.5618 0.79309 0.92286   -0.003768
 C 0.4815 0.72378 0.90163   -0.141906
 C 0.5725 0.6614 0.9081   0.088619
 C 0.7446 0.6706 0.9377   -0.144302
 C 0.8262 0.7398 0.9577   -0.002779
 C 0.4753 0.5846 0.88396   -0.302187
 C 0.3741 0.57553 0.81613   0.082475
 C 0.4724 0.5903 0.76353   -0.145473
 C 0.3968 0.5788 0.69922   -0.012078
 C 0.2175 0.55353 0.687   -0.135292
 C 0.1189 0.54002 0.73931   -0.012109
 C 0.1951 0.5503 0.80315   -0.147243
 C 0.1367 0.5362 0.61662   0.650054
 C 0.6076 0.5178 0.8717   0.693981
 C 0.3419 0.5826 0.94289   0.685988
 C 0.661 0.1465 0.92338   0.657623
 C 0.5231 0.17545 0.88387   -0.167807
 C 0.5494 0.2432 0.87046   -0.000564
 C 0.4295 0.2654 0.8282   -0.138035
 C 0.2794 0.2223 0.79967   0.090542
 C 0.2485 0.1569 0.8164   -0.146962
 C 0.3688 0.1335 0.85786   -0.000113
 C 0.0352 0.1872 0.7049   0.691899
 C 0.1745 0.3763 0.46984   0.666026
 C 0.265 0.30111 0.45015   -0.152577
 C 0.4382 0.29309 0.42286   -0.003768
 C 0.5185 0.22378 0.40163   -0.141907
 C 0.4275 0.1614 0.4081   0.088619
 C 0.2554 0.1706 0.4377   -0.144303
 C 0.1738 0.2398 0.4577   -0.00278
 C 0.5247 0.0846 0.38396   -0.302187
 C 0.6259 0.07553 0.31613   0.082475
 C 0.5276 0.0903 0.26353   -0.145473
 C 0.6032 0.0788 0.19922   -0.012078
 C 0.7825 0.05353 0.187   -0.135293
 C 0.8811 0.04002 0.23931   -0.012109
 C 0.8049 0.0503 0.30315   -0.147243
 C 0.8633 0.0362 0.11662   0.650053
 C 0.3924 0.0178 0.3717   0.693981
 C 0.6581 0.0826 0.44289   0.685988
 C 0.339 0.6465 0.42338   0.657623
 C 0.4769 0.67545 0.38387   -0.167807
 C 0.4506 0.7432 0.37046   -0.000564
 C 0.5705 0.7654 0.3282   -0.138036
 C 0.7206 0.7223 0.29967   0.090542
 C 0.7515 0.6569 0.3164   -0.146962
 C 0.6312 0.6335 0.35786   -0.000113
 C 0.9648 0.6872 0.2049   0.691899
 C 0.1745 0.1237 0.03016   0.666026
 C 0.265 0.19889 0.04985   -0.152576
 C 0.4382 0.20691 0.07714   -0.003768
 C 0.5185 0.27622 0.09837   -0.141907
 C 0.4275 0.3386 0.0919   0.088619
 C 0.2554 0.3294 0.0623   -0.144303
 C 0.1738 0.2602 0.0423   -0.00278
 C 0.5247 0.4154 0.11604   -0.302187
 C 0.6259 0.42447 0.18387   0.082475
 C 0.5276 0.4097 0.23647   -0.145473
 C 0.6032 0.4212 0.30078   -0.012078
 C 0.7825 0.44647 0.313   -0.135292
 C 0.8811 0.45998 0.26069   -0.012109
 C 0.8049 0.4497 0.19685   -0.147243
 C 0.8633 0.4638 0.38338   0.650054
 C 0.3924 0.4822 0.1283   0.693981
 C 0.6581 0.4174 0.05711   0.685988
 C 0.339 0.8535 0.07662   0.657623
 C 0.4769 0.82455 0.11613   -0.167807
 C 0.4506 0.7568 0.12954   -0.000564
 C 0.5705 0.7346 0.1718   -0.138035
 C 0.7206 0.7777 0.20033   0.090542
 C 0.7515 0.8431 0.1836   -0.146962
 C 0.6312 0.8665 0.14214   -0.000113
 C 0.9648 0.8128 0.2951   0.691899
 C 0.1578 0.25 0.75   -0.301485
 C 0.8422 0.75 0.25   -0.301485
 O 0.7414 0.57089 0.54181   -0.483679
 O 0.9856 0.61835 0.50385   -0.578438
 O 0.2292 0.94598 0.92796   -0.532311
 O 0.9826 0.99527 0.89162   -0.550995
 O 0.6443 0.41254 0.56431   -0.53045
 O 0.8035 0.30934 0.55799   -0.504771
 O 0.7414 0.92911 0.95819   -0.483678
 O 0.9856 0.88165 0.99615   -0.578438
 O 0.2292 0.55402 0.57204   -0.532311
 O 0.9826 0.50473 0.60838   -0.550995
 O 0.6443 0.08746 0.93569   -0.530449
 O 0.8035 0.19066 0.94201   -0.504771
 O 0.2586 0.42911 0.45819   -0.483679
 O 0.0144 0.38165 0.49615   -0.578437
 O 0.7708 0.05402 0.07204   -0.53231
 O 0.0174 0.00473 0.10838   -0.550995
 O 0.3557 0.58746 0.43569   -0.53045
 O 0.1965 0.69066 0.44201   -0.504771
 O 0.2586 0.07089 0.04181   -0.483679
 O 0.0144 0.11835 0.00385   -0.578437
 O 0.7708 0.44598 0.42796   -0.53231
 O 0.0174 0.49527 0.39162   -0.550995
 O 0.3557 0.91254 0.06431   -0.53045
 O 0.1965 0.80934 0.05799   -0.504771
 F 0.747 0.97611 0.66831   -0.189316
 F 0.524 0.04635 0.65931   -0.197125
 F 0.6818 0.98965 0.57098   -0.209868
 F 0.2057 0.86881 0.55098   -0.180044
 F 0.2664 0.98456 0.56595   -0.200246
 F 0.4291 0.90002 0.4974   -0.197748
 F 0.9588 0.29087 0.84517   -0.202231
 F 0.8974 0.3317 0.7604   -0.205989
 F 0.1302 0.37394 0.824   -0.185788
 F 0.747 0.52389 0.83169   -0.189316
 F 0.524 0.45365 0.84069   -0.197125
 F 0.6818 0.51035 0.92902   -0.209868
 F 0.2057 0.63119 0.94902   -0.180044
 F 0.2664 0.51544 0.93405   -0.200246
 F 0.4291 0.59998 0.0026   -0.197748
 F 0.9588 0.20913 0.65483   -0.202231
 F 0.8974 0.1683 0.7396   -0.20599
 F 0.1302 0.12606 0.676   -0.185788
 F 0.253 0.02389 0.33169   -0.189316
 F 0.476 0.95365 0.34069   -0.197125
 F 0.3182 0.01035 0.42902   -0.209868
 F 0.7943 0.13119 0.44902   -0.180045
 F 0.7336 0.01544 0.43405   -0.200246
 F 0.5709 0.09998 0.5026   -0.197748
 F 0.0412 0.70913 0.15483   -0.202231
 F 0.1026 0.6683 0.2396   -0.205989
 F 0.8698 0.62606 0.176   -0.185788
 F 0.253 0.47611 0.16831   -0.189316
 F 0.476 0.54635 0.15931   -0.197125
 F 0.3182 0.48965 0.07098   -0.209868
 F 0.7943 0.36881 0.05098   -0.180045
 F 0.7336 0.48456 0.06595   -0.200246
 F 0.5709 0.40002 0.9974   -0.197748
 F 0.0412 0.79087 0.34517   -0.202231
 F 0.1026 0.8317 0.2604   -0.20599
 F 0.8698 0.87394 0.324   -0.185788
