{'_ref': 'TBD', '_srcid': 'CAKYAQ_clean', 'submitters': [{'name': 'Dalar Nazarian Jeff Camp and David Sholl', 'email': 'dalar@gatech.edu jcamp6@gatech.edu'}], '_method': 'VASP DFT with PBE;DDEC'}
data_MnH4C4O5
_symmetry_space_group_name_H-M   'P 1'
_cell_length_a   6.96430000
_cell_length_b   9.97240000
_cell_length_c   11.19510000
_cell_angle_alpha   90.00000000
_cell_angle_beta   90.00000000
_cell_angle_gamma   90.00000000
_symmetry_Int_Tables_number   1
_chemical_formula_structural   MnH4C4O5
_chemical_formula_sum   'Mn4 H16 C16 O20'
_cell_volume   777.508486736
_cell_formula_units_Z   4
loop_
 _symmetry_equiv_pos_site_id
 _symmetry_equiv_pos_as_xyz
  1  'x, y, z'
loop_
 _atom_site_label
 _atom_site_fract_x
 _atom_site_fract_y
 _atom_site_fract_z
 _atom_site_charge
 Mn 0.1257 0.20269 0.21081   1.073576
 Mn 0.3743 0.79731 0.71081   1.073576
 Mn 0.8743 0.70269 0.28919   1.073576
 Mn 0.6257 0.29731 0.78919   1.073576
 H 0.459 0.9 0.199   0.105159
 H 0.348 0.909 0.074   0.106872
 H 0.619 0.126 0.077   0.114495
 H 0.472 0.088 0.989   0.096666
 H 0.041 0.1 0.699   0.105159
 H 0.152 0.091 0.574   0.106872
 H 0.881 0.874 0.577   0.114495
 H 0.028 0.912 0.489   0.096666
 H 0.541 0.4 0.301   0.105159
 H 0.652 0.409 0.426   0.106872
 H 0.381 0.626 0.423   0.114494
 H 0.528 0.588 0.511   0.096665
 H 0.959 0.6 0.801   0.105159
 H 0.848 0.591 0.926   0.106872
 H 0.119 0.374 0.923   0.114494
 H 0.972 0.412 0.011   0.096665
 C 0.1711 0.9035 0.2208   0.674084
 C 0.3552 0.9393 0.1556   -0.064309
 C 0.4937 0.1345 0.0647   -0.082217
 C 0.4483 0.282 0.0532   0.68195
 C 0.3289 0.0965 0.7208   0.674084
 C 0.1448 0.0607 0.6556   -0.064309
 C 0.0063 0.8655 0.5647   -0.082217
 C 0.0517 0.718 0.5532   0.68195
 C 0.8289 0.4035 0.2792   0.674083
 C 0.6448 0.4393 0.3444   -0.064309
 C 0.5063 0.6345 0.4353   -0.082217
 C 0.5517 0.782 0.4468   0.681949
 C 0.6711 0.5965 0.7792   0.674083
 C 0.8552 0.5607 0.8444   -0.064309
 C 0.9937 0.3655 0.9353   -0.082217
 C 0.9483 0.218 0.9468   0.681949
 O 0.0633 0.9923 0.2583   -0.580997
 O 0.3371 0.3356 0.1266   -0.603955
 O 0.3809 0.0808 0.15902   -0.290478
 O 0.1421 0.7788 0.2317   -0.609805
 O 0.5281 0.345 0.9695   -0.62104
 O 0.4367 0.0077 0.7583   -0.580997
 O 0.1629 0.6644 0.6266   -0.603955
 O 0.1191 0.9192 0.65902   -0.290478
 O 0.3579 0.2212 0.7317   -0.609805
 O 0.9719 0.655 0.4695   -0.62104
 O 0.9367 0.4923 0.2417   -0.580997
 O 0.6629 0.8356 0.3734   -0.603955
 O 0.6191 0.5808 0.34098   -0.290478
 O 0.8579 0.2788 0.2683   -0.609805
 O 0.4719 0.845 0.5305   -0.62104
 O 0.5633 0.5077 0.7417   -0.580997
 O 0.8371 0.1644 0.8734   -0.603955
 O 0.8809 0.4192 0.84098   -0.290478
 O 0.6421 0.7212 0.7683   -0.609805
 O 0.0281 0.155 0.0305   -0.62104
