{'_ref': 'TBD', '_srcid': 'CAKYAQ_clean', 'submitters': [{'name': 'Dalar Nazarian Jeff Camp and David Sholl', 'email': 'dalar@gatech.edu jcamp6@gatech.edu'}], '_method': 'VASP DFT with PBE;DDEC'}
data_MnH4C4O5
_symmetry_space_group_name_H-M   'P 1'
_cell_length_a   6.87960000
_cell_length_b   9.85600000
_cell_length_c   11.06700000
_cell_angle_alpha   90.00000000
_cell_angle_beta   90.00000000
_cell_angle_gamma   90.00000000
_symmetry_Int_Tables_number   1
_chemical_formula_structural   MnH4C4O5
_chemical_formula_sum   'Mn4 H16 C16 O20'
_cell_volume   750.401671219
_cell_formula_units_Z   4
loop_
 _symmetry_equiv_pos_site_id
 _symmetry_equiv_pos_as_xyz
  1  'x, y, z'
loop_
 _atom_site_label
 _atom_site_fract_x
 _atom_site_fract_y
 _atom_site_fract_z
 _atom_site_charge
 Mn 0.12553 0.20259 0.71068   1.056011
 Mn 0.37447 0.79741 0.21068   1.056011
 Mn 0.87447 0.70259 0.78932   1.056012
 Mn 0.62553 0.29741 0.28932   1.056012
 H 0.3492 0.9085 0.5725   0.102965
 H 0.4658 0.8947 0.6941   0.10426
 H 0.6309 0.1219 0.5825   0.124833
 H 0.4646 0.0872 0.4899   0.101508
 H 0.1508 0.0915 0.0725   0.102965
 H 0.0342 0.1053 0.1941   0.10426
 H 0.8691 0.8781 0.0825   0.124833
 H 0.0354 0.9128 0.9899   0.101508
 H 0.6508 0.4085 0.9275   0.102965
 H 0.5342 0.3947 0.8059   0.10426
 H 0.3691 0.6219 0.9175   0.124833
 H 0.5354 0.5872 0.0101   0.101508
 H 0.8492 0.5915 0.4275   0.102965
 H 0.9658 0.6053 0.3059   0.10426
 H 0.1309 0.3781 0.4175   0.124833
 H 0.9646 0.4128 0.5101   0.101508
 C 0.1716 0.90364 0.72087   0.682529
 C 0.3562 0.93909 0.65565   -0.069899
 C 0.4939 0.13408 0.56486   -0.118882
 C 0.4481 0.28234 0.55256   0.697345
 C 0.3284 0.09636 0.22087   0.682529
 C 0.1438 0.06091 0.15565   -0.069899
 C 0.0061 0.86592 0.06486   -0.118882
 C 0.0519 0.71766 0.05256   0.697345
 C 0.8284 0.40364 0.77913   0.682528
 C 0.6438 0.43909 0.84435   -0.069898
 C 0.5061 0.63408 0.93514   -0.118882
 C 0.5519 0.78234 0.94744   0.697344
 C 0.6716 0.59636 0.27913   0.682528
 C 0.8562 0.56091 0.34435   -0.069898
 C 0.9939 0.36592 0.43514   -0.118882
 C 0.9481 0.21766 0.44744   0.697344
 O 0.1417 0.77809 0.7316   -0.612974
 O 0.06352 0.9927 0.75815   -0.575899
 O 0.33612 0.33587 0.62643   -0.607705
 O 0.5273 0.3452 0.46913   -0.614203
 O 0.38068 0.08063 0.65932   -0.269889
 O 0.3583 0.22191 0.2316   -0.612974
 O 0.43648 0.0073 0.25815   -0.575899
 O 0.16388 0.66413 0.12643   -0.607705
 O 0.9727 0.6548 0.96913   -0.614203
 O 0.11932 0.91937 0.15932   -0.269889
 O 0.8583 0.27809 0.7684   -0.612974
 O 0.93648 0.4927 0.74185   -0.575899
 O 0.66388 0.83587 0.87357   -0.607705
 O 0.4727 0.8452 0.03087   -0.614202
 O 0.61932 0.58063 0.84068   -0.26989
 O 0.6417 0.72191 0.2684   -0.612974
 O 0.56352 0.5073 0.24185   -0.575899
 O 0.83612 0.16413 0.37357   -0.607705
 O 0.0273 0.1548 0.53087   -0.614202
 O 0.88068 0.41937 0.34068   -0.26989
