{'_ref': 'TBD', '_srcid': 'CAKYAQ_clean', 'submitters': [{'name': 'Dalar Nazarian Jeff Camp and David Sholl', 'email': 'dalar@gatech.edu jcamp6@gatech.edu'}], '_method': 'VASP DFT with PBE;DDEC'}
data_SmZn2H2C11(N2O5)2
_symmetry_space_group_name_H-M   'P 1'
_cell_length_a   9.84379962
_cell_length_b   13.20668744
_cell_length_c   16.49188968
_cell_angle_alpha   81.12087422
_cell_angle_beta   72.63591361
_cell_angle_gamma   68.11893552
_symmetry_Int_Tables_number   1
_chemical_formula_structural   SmZn2H2C11(N2O5)2
_chemical_formula_sum   'Sm4 Zn8 H8 C44 N16 O40'
_cell_volume   1896.63426628
_cell_formula_units_Z   4
loop_
 _symmetry_equiv_pos_site_id
 _symmetry_equiv_pos_as_xyz
  1  'x, y, z'
loop_
 _atom_site_label
 _atom_site_fract_x
 _atom_site_fract_y
 _atom_site_fract_z
 _atom_site_charge
 Sm 0.58145 0.6181 0.42714   2.335478
 Sm 0.62669 0.8819 0.07286   2.334847
 Sm 0.41855 0.3819 0.57286   2.335477
 Sm 0.37331 0.1181 0.92714   2.334846
 Zn 0.67539 0.8896 0.6822   0.885245
 Zn 0.88592 0.83949 0.45429   1.069379
 Zn 0.24719 0.6104 0.8178   0.884229
 Zn 0.1797 0.66051 0.04571   1.069566
 Zn 0.32461 0.1104 0.3178   0.885245
 Zn 0.11408 0.16051 0.54571   1.069379
 Zn 0.75281 0.3896 0.1822   0.884229
 Zn 0.8203 0.33949 0.95429   1.069566
 H 0.3911 0.8147 0.8167   0.075772
 H 0.9758 0.0699 0.3701   0.070929
 H 0.0225 0.6853 0.6833   0.075838
 H 0.4158 0.4301 0.1299   0.07081
 H 0.6089 0.1853 0.1833   0.075772
 H 0.0242 0.9301 0.6299   0.070929
 H 0.9775 0.3147 0.3167   0.075838
 H 0.5842 0.5699 0.8701   0.07081
 C 0.6858 0.7296 0.5622   0.736589
 C 0.5668 0.7272 0.6416   -0.022135
 C 0.4703 0.6675 0.6719   -0.009013
 C 0.448 0.5758 0.6426   0.718743
 C 0.4307 0.7781 0.7663   0.287075
 C 0.4273 0.8974 0.4086   0.686848
 C 0.2685 0.9172 0.4118   0.008391
 C 0.1742 0.8566 0.4398   0.005252
 C 0.1913 0.7458 0.4804   0.714339
 C 0.0527 0.0126 0.3876   0.326735
 C 0.9776 0.7704 0.9378   0.738457
 C 0.9356 0.7728 0.8584   -0.021349
 C 0.8097 0.8325 0.8281   -0.010355
 C 0.6664 0.9242 0.8574   0.718718
 C 0.9751 0.7219 0.7337   0.286289
 C 0.7333 0.6026 0.0914   0.688035
 C 0.5975 0.5828 0.0882   0.005956
 C 0.4706 0.6434 0.0602   0.006286
 C 0.4175 0.7542 0.0196   0.713642
 C 0.4529 0.4874 0.1124   0.3271
 C 0.3142 0.2704 0.4378   0.736589
 C 0.4332 0.2728 0.3584   -0.022135
 C 0.5297 0.3325 0.3281   -0.009013
 C 0.552 0.4242 0.3574   0.718743
 C 0.5693 0.2219 0.2337   0.287075
 C 0.5727 0.1026 0.5914   0.686848
 C 0.7315 0.0828 0.5882   0.008391
 C 0.8258 0.1434 0.5602   0.005252
 C 0.8087 0.2542 0.5196   0.714339
 C 0.9473 0.9874 0.6124   0.326735
 C 0.0224 0.2296 0.0622   0.738457
 C 0.0644 0.2272 0.1416   -0.021349
 C 0.1903 0.1675 0.1719   -0.010355
 C 0.3336 0.0758 0.1426   0.718718
 C 0.0249 0.2781 0.2663   0.286289
 C 0.2667 0.3974 0.9086   0.688035
 C 0.4025 0.4172 0.9118   0.005956
 C 0.5294 0.3566 0.9398   0.006286
 C 0.5825 0.2458 0.9804   0.713642
 C 0.5471 0.5126 0.8876   0.3271
 C 0.527 0.75 0.25   0.549548
 C 0.6852 0.75 0.25   0.620989
 C 0.473 0.25 0.75   0.549548
 C 0.3148 0.25 0.75   0.620989
 N 0.38277 0.70226 0.7516   -0.403886
 N 0.54024 0.79662 0.7025   -0.370327
 N 0.03646 0.91828 0.4242   -0.511726
 N 0.19072 0.01576 0.3788   -0.417262
 N 0.83663 0.79774 0.7484   -0.403276
 N 0.03936 0.70338 0.7975   -0.36999
 N 0.37894 0.58172 0.0758   -0.510839
 N 0.58528 0.48424 0.1212   -0.416711
 N 0.61723 0.29774 0.2484   -0.403886
 N 0.45976 0.20338 0.2975   -0.370327
 N 0.96354 0.08172 0.5758   -0.511726
 N 0.80928 0.98424 0.6212   -0.417262
 N 0.16337 0.20226 0.2516   -0.403276
 N 0.96064 0.29662 0.2025   -0.36999
 N 0.62106 0.41828 0.9242   -0.510839
 N 0.41472 0.51576 0.8788   -0.416711
 O 0.7219 0.66615 0.50485   -0.699784
 O 0.7466 0.8008 0.5586   -0.591602
 O 0.52467 0.53504 0.57042   -0.837098
 O 0.35322 0.53656 0.6914   -0.634154
 O 0.47806 0.97228 0.372   -0.56871
 O 0.50573 0.81044 0.4395   -0.742385
 O 0.31567 0.68186 0.4912   -0.722552
 O 0.07267 0.72106 0.5018   -0.614257
 O 0.46769 0.69592 0.3089   -0.653174
 O 0.7425 0.68988 0.30512   -0.707794
 O 0.8929 0.83385 0.99515   -0.700519
 O 0.106 0.6992 0.9414   -0.59275
 O 0.63013 0.96496 0.92958   -0.837021
 O 0.58118 0.96344 0.8086   -0.633648
 O 0.82234 0.52772 0.128   -0.567679
 O 0.75567 0.68956 0.0605   -0.744172
 O 0.48873 0.81814 0.0088   -0.721885
 O 0.29553 0.77894 0.9982   -0.614412
 O 0.47251 0.80408 0.1911   -0.653549
 O 0.7375 0.81012 0.19488   -0.707068
 O 0.2781 0.33385 0.49515   -0.699784
 O 0.2534 0.1992 0.4414   -0.591602
 O 0.47533 0.46496 0.42958   -0.837099
 O 0.64678 0.46344 0.3086   -0.634154
 O 0.52194 0.02772 0.628   -0.56871
 O 0.49427 0.18956 0.5605   -0.742385
 O 0.68433 0.31814 0.5088   -0.722552
 O 0.92733 0.27894 0.4982   -0.614257
 O 0.53231 0.30408 0.6911   -0.653174
 O 0.2575 0.31012 0.69488   -0.707794
 O 0.1071 0.16615 0.00485   -0.700519
 O 0.894 0.3008 0.0586   -0.59275
 O 0.36987 0.03504 0.07042   -0.837021
 O 0.41882 0.03656 0.1914   -0.633648
 O 0.17766 0.47228 0.872   -0.567679
 O 0.24433 0.31044 0.9395   -0.744172
 O 0.51127 0.18186 0.9912   -0.721885
 O 0.70447 0.22106 0.0018   -0.614412
 O 0.52749 0.19592 0.8089   -0.653549
 O 0.2625 0.18988 0.80512   -0.707068
