{'_ref': 'TBD', '_srcid': 'CAKYAQ_clean', 'submitters': [{'name': 'Dalar Nazarian Jeff Camp and David Sholl', 'email': 'dalar@gatech.edu jcamp6@gatech.edu'}], '_method': 'VASP DFT with PBE;DDEC'}
data_CeH8C15NO7
_symmetry_space_group_name_H-M   'P 1'
_cell_length_a   9.60469954
_cell_length_b   10.04270033
_cell_length_c   11.45890000
_cell_angle_alpha   96.12600262
_cell_angle_beta   97.20649958
_cell_angle_gamma   111.85899810
_symmetry_Int_Tables_number   1
_chemical_formula_structural   CeH8C15NO7
_chemical_formula_sum   'Ce2 H16 C30 N2 O14'
_cell_volume   1003.4945937
_cell_formula_units_Z   2
loop_
 _symmetry_equiv_pos_site_id
 _symmetry_equiv_pos_as_xyz
  1  'x, y, z'
loop_
 _atom_site_label
 _atom_site_fract_x
 _atom_site_fract_y
 _atom_site_fract_z
 _atom_site_charge
 Ce 0.71324 0.95492 0.00822   2.22052
 Ce 0.28676 0.04508 0.99178   2.220518
 H 0.6823 0.5051 0.9737   0.116361
 H 0.804 0.2104 0.7881   0.126286
 H 0.0777 0.6384 0.8446   0.131744
 H 0.829 0.4096 0.5814   0.130142
 H 0.7458 0.2968 0.3822   0.101602
 H 0.0502 0.1072 0.4183   0.124389
 H 0.1678 0.1527 0.6815   0.327243
 H 0.2621 0.3038 0.6846   0.333039
 H 0.3177 0.4949 0.0263   0.116359
 H 0.196 0.7896 0.2119   0.126286
 H 0.9223 0.3616 0.1554   0.131744
 H 0.171 0.5904 0.4186   0.130144
 H 0.2542 0.7032 0.6178   0.101604
 H 0.9498 0.8928 0.5817   0.12439
 H 0.8322 0.8473 0.3185   0.327244
 H 0.7379 0.6962 0.3154   0.333043
 C 0.9218 0.747 0.9774   0.797589
 C 0.8869 0.5932 0.9205   -0.137811
 C 0.7525 0.483 0.932   -0.036531
 C 0.7205 0.3397 0.8826   -0.100154
 C 0.422 0.7789 0.1012   0.743344
 C 0.8223 0.3082 0.8191   -0.151592
 C 0.9498 0.4211 0.802   0.249591
 C 0.9863 0.5629 0.854   -0.133193
 C 0.991 0.3263 0.6174   0.172142
 C 0.8743 0.3485 0.548   -0.237841
 C 0.8246 0.2811 0.4301   -0.009905
 C 0.8896 0.1908 0.3818   -0.159307
 C 0.8296 0.1095 0.2573   0.673968
 C 0.0063 0.1695 0.4517   -0.128963
 C 0.0593 0.2381 0.5693   0.214611
 C 0.0782 0.253 0.0226   0.797588
 C 0.1131 0.4068 0.0795   -0.137812
 C 0.2475 0.517 0.068   -0.03653
 C 0.2795 0.6603 0.1174   -0.10016
 C 0.578 0.2211 0.8988   0.743338
 C 0.1777 0.6918 0.1809   -0.151593
 C 0.0502 0.5789 0.198   0.249591
 C 0.0137 0.4371 0.146   -0.133193
 C 0.009 0.6737 0.3826   0.172143
 C 0.1257 0.6515 0.452   -0.237838
 C 0.1754 0.7189 0.5699   -0.009904
 C 0.1104 0.8092 0.6182   -0.159306
 C 0.1704 0.8905 0.7427   0.673968
 C 0.9937 0.8305 0.5483   -0.128964
 C 0.9407 0.7619 0.4307   0.214612
 N 0.1821 0.2251 0.6403   -0.790146
 N 0.8179 0.7749 0.3597   -0.790148
 O 0.5437 0.7573 0.1099   -0.635297
 O 0.8818 0.0176 0.2177   -0.655778
 O 0.817 0.7735 0.0169   -0.740754
 O 0.9461 0.1594 0.0161   -0.781039
 O 0.4192 0.8997 0.0777   -0.835791
 O 0.0506 0.3922 0.7346   -0.234773
 O 0.7244 0.1297 0.1921   -0.693694
 O 0.4563 0.2427 0.8901   -0.635296
 O 0.1182 0.9824 0.7823   -0.655778
 O 0.183 0.2265 0.9831   -0.740754
 O 0.0539 0.8406 0.9839   -0.781039
 O 0.5808 0.1003 0.9223   -0.83579
 O 0.9494 0.6078 0.2654   -0.234773
 O 0.2756 0.8703 0.8079   -0.693694
