{'_ref': 'TBD', '_srcid': 'CAKYAQ_clean', 'submitters': [{'name': 'Dalar Nazarian Jeff Camp and David Sholl', 'email': 'dalar@gatech.edu jcamp6@gatech.edu'}], '_method': 'VASP DFT with PBE;DDEC'}
data_Cu4H24WC36S4(IN9)2
_symmetry_space_group_name_H-M   'P 1'
_cell_length_a   13.90500000
_cell_length_b   20.69540010
_cell_length_c   20.69540000
_cell_angle_alpha   99.07729967
_cell_angle_beta   90.00000000
_cell_angle_gamma   90.00000000
_symmetry_Int_Tables_number   1
_chemical_formula_structural   Cu4H24WC36S4(IN9)2
_chemical_formula_sum   'Cu16 H96 W4 C144 S16 I8 N72'
_cell_volume   5880.92127966
_cell_formula_units_Z   4
loop_
 _symmetry_equiv_pos_site_id
 _symmetry_equiv_pos_as_xyz
  1  'x, y, z'
loop_
 _atom_site_label
 _atom_site_fract_x
 _atom_site_fract_y
 _atom_site_fract_z
 _atom_site_charge
 Cu 0.65841 0.38355 0.27205   0.259005
 Cu 0.65766 0.25164 0.11966   0.309596
 Cu 0.65841 0.11645 0.22795   0.259005
 Cu 0.65766 0.24836 0.38034   0.309596
 Cu 0.84159 0.72795 0.61645   0.259005
 Cu 0.84234 0.88034 0.74836   0.309595
 Cu 0.84159 0.77205 0.88355   0.259005
 Cu 0.84234 0.61966 0.75164   0.309595
 Cu 0.34159 0.61645 0.72795   0.259005
 Cu 0.34234 0.74836 0.88034   0.309596
 Cu 0.34159 0.88355 0.77205   0.259005
 Cu 0.34234 0.75164 0.61966   0.309596
 Cu 0.15841 0.27205 0.38355   0.259005
 Cu 0.15766 0.11966 0.25164   0.309595
 Cu 0.15841 0.22795 0.11645   0.259005
 Cu 0.15766 0.38034 0.24836   0.309595
 H 0.6701 0.5087 0.2159   0.060962
 H 0.7685 0.5681 0.1575   0.120893
 H 0.9619 0.4233 0.1505   0.10208
 H 0.8577 0.368 0.2084   0.072795
 H 0.0322 0.707 0.988   0.097123
 H 0.1391 0.7621 0.9331   0.069628
 H 0.3356 0.6314 0.9434   0.059168
 H 0.2335 0.5699 0.9979   0.107302
 H 0.5801 0.2401 0.9771   0.07691
 H 0.4546 0.1907 0.9159   0.133259
 H 0.3789 0.1079 0.0725   0.130843
 H 0.505 0.1615 0.1261   0.04469
 H 0.6701 0.9913 0.2841   0.060962
 H 0.7685 0.9319 0.3425   0.120893
 H 0.9619 0.0767 0.3495   0.10208
 H 0.8577 0.132 0.2916   0.072795
 H 0.0322 0.793 0.512   0.097123
 H 0.1391 0.7379 0.5669   0.069628
 H 0.3356 0.8686 0.5566   0.059168
 H 0.2335 0.9301 0.5021   0.107302
 H 0.5801 0.2599 0.5229   0.07691
 H 0.4546 0.3093 0.5841   0.133259
 H 0.3789 0.3921 0.4275   0.130843
 H 0.505 0.3385 0.3739   0.04469
 H 0.8299 0.7841 0.4913   0.060962
 H 0.7315 0.8425 0.4319   0.120894
 H 0.5381 0.8495 0.5767   0.10208
 H 0.6423 0.7916 0.632   0.072795
 H 0.4678 0.012 0.293   0.097123
 H 0.3609 0.0669 0.2379   0.069627
 H 0.1644 0.0566 0.3686   0.059168
 H 0.2665 0.0021 0.4301   0.107302
 H 0.9199 0.0229 0.7599   0.07691
 H 0.0454 0.0841 0.8093   0.133259
 H 0.1211 0.9275 0.8921   0.130842
 H 0.995 0.8739 0.8385   0.04469
 H 0.8299 0.7159 0.0087   0.060962
 H 0.7315 0.6575 0.0681   0.120894
 H 0.5381 0.6505 0.9233   0.10208
 H 0.6423 0.7084 0.868   0.072795
 H 0.4678 0.488 0.207   0.097123
 H 0.3609 0.4331 0.2621   0.069627
 H 0.1644 0.4434 0.1314   0.059168
 H 0.2665 0.4979 0.0699   0.107302
 H 0.9199 0.4771 0.7401   0.07691
 H 0.0454 0.4159 0.6907   0.133259
 H 0.1211 0.5725 0.6079   0.130842
 H 0.995 0.6261 0.6615   0.04469
 H 0.3299 0.4913 0.7841   0.060962
 H 0.2315 0.4319 0.8425   0.120893
 H 0.0381 0.5767 0.8495   0.10208
 H 0.1423 0.632 0.7916   0.072795
 H 0.9678 0.293 0.012   0.097123
 H 0.8609 0.2379 0.0669   0.069627
 H 0.6644 0.3686 0.0566   0.059168
 H 0.7665 0.4301 0.0021   0.107302
 H 0.4199 0.7599 0.0229   0.07691
 H 0.5454 0.8093 0.0841   0.13326
 H 0.6211 0.8921 0.9275   0.130843
 H 0.495 0.8385 0.8739   0.04469
 H 0.3299 0.0087 0.7159   0.060962
 H 0.2315 0.0681 0.6575   0.120893
 H 0.0381 0.9233 0.6505   0.10208
 H 0.1423 0.868 0.7084   0.072795
 H 0.9678 0.207 0.488   0.097123
 H 0.8609 0.2621 0.4331   0.069627
 H 0.6644 0.1314 0.4434   0.059168
 H 0.7665 0.0699 0.4979   0.107302
 H 0.4199 0.7401 0.4771   0.07691
 H 0.5454 0.6907 0.4159   0.13326
 H 0.6211 0.6079 0.5725   0.130843
 H 0.495 0.6615 0.6261   0.04469
 H 0.1701 0.2159 0.5087   0.060962
 H 0.2685 0.1575 0.5681   0.120895
 H 0.4619 0.1505 0.4233   0.10208
 H 0.3577 0.2084 0.368   0.072795
 H 0.5322 0.988 0.707   0.097123
 H 0.6391 0.9331 0.7621   0.069627
 H 0.8356 0.9434 0.6314   0.059168
 H 0.7335 0.9979 0.5699   0.107302
 H 0.0801 0.9771 0.2401   0.07691
 H 0.9546 0.9159 0.1907   0.133259
 H 0.8789 0.0725 0.1079   0.130842
 H 0.005 0.1261 0.1615   0.04469
 H 0.1701 0.2841 0.9913   0.060962
 H 0.2685 0.3425 0.9319   0.120895
 H 0.4619 0.3495 0.0767   0.10208
 H 0.3577 0.2916 0.132   0.072795
 H 0.5322 0.512 0.793   0.097123
 H 0.6391 0.5669 0.7379   0.069627
 H 0.8356 0.5566 0.8686   0.059168
 H 0.7335 0.5021 0.9301   0.107302
 H 0.0801 0.5229 0.2599   0.07691
 H 0.9546 0.5841 0.3093   0.133259
 H 0.8789 0.4275 0.3921   0.130842
 H 0.005 0.3739 0.3385   0.04469
 W 0.65738 0.25 0.25   0.507609
 W 0.84262 0.75 0.75   0.507609
 W 0.34262 0.75 0.75   0.50761
 W 0.15738 0.25 0.25   0.50761
 C 0.7297 0.4913 0.2023   0.157464
 C 0.7878 0.5274 0.1662   -0.131591
 C 0.8761 0.5003 0.1437   -0.003421
 C 0.9019 0.4413 0.1623   -0.160356
 C 0.8395 0.4085 0.1981   0.135536
 C 0.9398 0.5353 0.1039   0.333973
 C 0.0527 0.5963 0.0369   0.319032
 C 0.1205 0.6342 0.0016   0.005177
 C 0.0941 0.6906 0.98   -0.116283
 C 0.1581 0.7233 0.9467   0.147107
 C 0.2733 0.6465 0.9525   0.149958
 C 0.2132 0.6092 0.9862   -0.155184
 C 0.5385 0.2134 0.9962   0.137428
 C 0.4635 0.1838 0.9588   -0.163995
 C 0.4026 0.1441 0.9867   0.041428
 C 0.4183 0.1347 0.0519   -0.140071
 C 0.4942 0.1672 0.083   0.161392
 C 0.3206 0.1105 0.9511   0.329335
 C 0.7297 0.0087 0.2977   0.157464
 C 0.7878 0.9726 0.3338   -0.131591
 C 0.8761 0.9997 0.3563   -0.003421
 C 0.9019 0.0587 0.3377   -0.160356
 C 0.8395 0.0915 0.3019   0.135536
 C 0.9398 0.9647 0.3961   0.333973
 C 0.0527 0.9037 0.4631   0.319032
 C 0.1205 0.8658 0.4984   0.005177
 C 0.0941 0.8094 0.52   -0.116283
 C 0.1581 0.7767 0.5533   0.147107
 C 0.2733 0.8535 0.5475   0.149958
 C 0.2132 0.8908 0.5138   -0.155184
 C 0.5385 0.2866 0.5038   0.137428
 C 0.4635 0.3162 0.5412   -0.163995
 C 0.4026 0.3559 0.5133   0.041428
 C 0.4183 0.3653 0.4481   -0.140071
 C 0.4942 0.3328 0.417   0.161392
 C 0.3206 0.3895 0.5489   0.329335
 C 0.7703 0.7977 0.5087   0.157464
 C 0.7122 0.8338 0.4726   -0.131592
 C 0.6239 0.8563 0.4997   -0.003421
 C 0.5981 0.8377 0.5587   -0.160356
 C 0.6605 0.8019 0.5915   0.135536
 C 0.5602 0.8961 0.4647   0.333973
 C 0.4473 0.9631 0.4037   0.319032
 C 0.3795 0.9984 0.3658   0.005178
 C 0.4059 0.02 0.3094   -0.116284
 C 0.3419 0.0533 0.2767   0.147106
 C 0.2267 0.0475 0.3535   0.14996
 C 0.2868 0.0138 0.3908   -0.155184
 C 0.9615 0.0038 0.7866   0.137429
 C 0.0365 0.0412 0.8162   -0.163995
 C 0.0974 0.0133 0.8559   0.041428
 C 0.0817 0.9481 0.8653   -0.140071
 C 0.0058 0.917 0.8328   0.161392
 C 0.1794 0.0489 0.8895   0.329329
 C 0.7703 0.7023 0.9913   0.157464
 C 0.7122 0.6662 0.0274   -0.131592
 C 0.6239 0.6437 0.000300000000003   -0.003421
 C 0.5981 0.6623 0.9413   -0.160356
 C 0.6605 0.6981 0.9085   0.135536
 C 0.5602 0.6039 0.0353   0.333973
 C 0.4473 0.5369 0.0963   0.319032
 C 0.3795 0.5016 0.1342   0.005178
 C 0.4059 0.48 0.1906   -0.116284
 C 0.3419 0.4467 0.2233   0.147106
 C 0.2267 0.4525 0.1465   0.14996
 C 0.2868 0.4862 0.1092   -0.155184
 C 0.9615 0.4962 0.7134   0.137429
 C 0.0365 0.4588 0.6838   -0.163995
 C 0.0974 0.4867 0.6441   0.041428
 C 0.0817 0.5519 0.6347   -0.140071
 C 0.0058 0.583 0.6672   0.161392
 C 0.1794 0.4511 0.6105   0.329329
 C 0.2703 0.5087 0.7977   0.157464
 C 0.2122 0.4726 0.8338   -0.131591
 C 0.1239 0.4997 0.8563   -0.003421
 C 0.0981 0.5587 0.8377   -0.160356
 C 0.1605 0.5915 0.8019   0.135536
 C 0.0602 0.4647 0.8961   0.333973
 C 0.9473 0.4037 0.9631   0.319032
 C 0.8795 0.3658 0.9984   0.005178
 C 0.9059 0.3094 0.02   -0.116283
 C 0.8419 0.2767 0.0533   0.147107
 C 0.7267 0.3535 0.0475   0.149958
 C 0.7868 0.3908 0.0138   -0.155184
 C 0.4615 0.7866 0.0038   0.137429
 C 0.5365 0.8162 0.0412   -0.163995
 C 0.5974 0.8559 0.0133   0.041429
 C 0.5817 0.8653 0.9481   -0.140071
 C 0.5058 0.8328 0.917   0.161392
 C 0.6794 0.8895 0.0489   0.329335
 C 0.2703 0.9913 0.7023   0.157464
 C 0.2122 0.0274 0.6662   -0.131591
 C 0.1239 0.000300000000003 0.6437   -0.003421
 C 0.0981 0.9413 0.6623   -0.160356
 C 0.1605 0.9085 0.6981   0.135536
 C 0.0602 0.0353 0.6039   0.333973
 C 0.9473 0.0963 0.5369   0.319032
 C 0.8795 0.1342 0.5016   0.005178
 C 0.9059 0.1906 0.48   -0.116283
 C 0.8419 0.2233 0.4467   0.147107
 C 0.7267 0.1465 0.4525   0.149958
 C 0.7868 0.1092 0.4862   -0.155184
 C 0.4615 0.7134 0.4962   0.137429
 C 0.5365 0.6838 0.4588   -0.163995
 C 0.5974 0.6441 0.4867   0.041429
 C 0.5817 0.6347 0.5519   -0.140071
 C 0.5058 0.6672 0.583   0.161392
 C 0.6794 0.6105 0.4511   0.329335
 C 0.2297 0.2023 0.4913   0.157464
 C 0.2878 0.1662 0.5274   -0.131592
 C 0.3761 0.1437 0.5003   -0.003421
 C 0.4019 0.1623 0.4413   -0.160356
 C 0.3395 0.1981 0.4085   0.135536
 C 0.4398 0.1039 0.5353   0.333973
 C 0.5527 0.0369 0.5963   0.319032
 C 0.6205 0.0016 0.6342   0.005178
 C 0.5941 0.98 0.6906   -0.116284
 C 0.6581 0.9467 0.7233   0.147106
 C 0.7733 0.9525 0.6465   0.14996
 C 0.7132 0.9862 0.6092   -0.155184
 C 0.0385 0.9962 0.2134   0.137429
 C 0.9635 0.9588 0.1838   -0.163996
 C 0.9026 0.9867 0.1441   0.041428
 C 0.9183 0.0519 0.1347   -0.140071
 C 0.9942 0.083 0.1672   0.161392
 C 0.8206 0.9511 0.1105   0.329329
 C 0.2297 0.2977 0.0087   0.157464
 C 0.2878 0.3338 0.9726   -0.131592
 C 0.3761 0.3563 0.9997   -0.003421
 C 0.4019 0.3377 0.0587   -0.160356
 C 0.3395 0.3019 0.0915   0.135536
 C 0.4398 0.3961 0.9647   0.333973
 C 0.5527 0.4631 0.9037   0.319032
 C 0.6205 0.4984 0.8658   0.005178
 C 0.5941 0.52 0.8094   -0.116284
 C 0.6581 0.5533 0.7767   0.147106
 C 0.7733 0.5475 0.8535   0.14996
 C 0.7132 0.5138 0.8908   -0.155184
 C 0.0385 0.5038 0.2866   0.137429
 C 0.9635 0.5412 0.3162   -0.163996
 C 0.9026 0.5133 0.3559   0.041428
 C 0.9183 0.4481 0.3653   -0.140071
 C 0.9942 0.417 0.3328   0.161392
 C 0.8206 0.5489 0.3895   0.329329
 S 0.56522 0.31451 0.19889   -0.332026
 S 0.74865 0.31291 0.32333   -0.322018
 S 0.56522 0.18549 0.30111   -0.332026
 S 0.74865 0.18709 0.17667   -0.322019
 S 0.93478 0.80111 0.68549   -0.332026
 S 0.75135 0.67667 0.68709   -0.322018
 S 0.93478 0.69889 0.81451   -0.332026
 S 0.75135 0.82333 0.81291   -0.322018
 S 0.43478 0.68549 0.80111   -0.332026
 S 0.25135 0.68709 0.67667   -0.322019
 S 0.43478 0.81451 0.69889   -0.332026
 S 0.25135 0.81291 0.82333   -0.322019
 S 0.06522 0.19889 0.31451   -0.332026
 S 0.24865 0.32333 0.31291   -0.322019
 S 0.06522 0.30111 0.18549   -0.332026
 S 0.24865 0.17667 0.18709   -0.322019
 I 0.56289 0.47674 0.3392   -0.430141
 I 0.56289 0.02326 0.1608   -0.430141
 I 0.93711 0.6608 0.52326   -0.430141
 I 0.93711 0.8392 0.97674   -0.430141
 I 0.43711 0.52326 0.6608   -0.430141
 I 0.43711 0.97674 0.8392   -0.430141
 I 0.06289 0.3392 0.47674   -0.430141
 I 0.06289 0.1608 0.02326   -0.430141
 N 0.7534 0.4333 0.2185   -0.250826
 N 0.9071 0.5885 0.0841   -0.181453
 N 0.9647 0.621 0.0504   -0.166235
 N 0.0834 0.5383 0.0515   -0.181805
 N 0.0243 0.5071 0.0863   -0.193704
 N 0.2484 0.7008 0.9328   -0.263021
 N 0.5543 0.2059 0.0579   -0.265781
 N 0.2868 0.1329 0.8983   -0.190534
 N 0.2875 0.0584 0.9744   -0.167468
 N 0.7534 0.0667 0.2815   -0.250826
 N 0.9071 0.9115 0.4159   -0.181453
 N 0.9647 0.879 0.4496   -0.166235
 N 0.0834 0.9617 0.4485   -0.181805
 N 0.0243 0.9929 0.4137   -0.193704
 N 0.2484 0.7992 0.5672   -0.263021
 N 0.5543 0.2941 0.4421   -0.265781
 N 0.2868 0.3671 0.6017   -0.190534
 N 0.2875 0.4416 0.5256   -0.167468
 N 0.7466 0.7815 0.5667   -0.250826
 N 0.5929 0.9159 0.4115   -0.181453
 N 0.5353 0.9496 0.379   -0.166235
 N 0.4166 0.9485 0.4617   -0.181805
 N 0.4757 0.9137 0.4929   -0.193704
 N 0.2516 0.0672 0.2992   -0.263021
 N 0.9457 0.9421 0.7941   -0.265781
 N 0.2132 0.1017 0.8671   -0.190501
 N 0.2125 0.0256 0.9416   -0.167448
 N 0.7466 0.7185 0.9333   -0.250826
 N 0.5929 0.5841 0.0885   -0.181453
 N 0.5353 0.5504 0.121   -0.166235
 N 0.4166 0.5515 0.0383   -0.181805
 N 0.4757 0.5863 0.0071   -0.193704
 N 0.2516 0.4328 0.2008   -0.263021
 N 0.9457 0.5579 0.7059   -0.265781
 N 0.2132 0.3983 0.6329   -0.190501
 N 0.2125 0.4744 0.5584   -0.167448
 N 0.2466 0.5667 0.7815   -0.250826
 N 0.0929 0.4115 0.9159   -0.181453
 N 0.0353 0.379 0.9496   -0.166235
 N 0.9166 0.4617 0.9485   -0.181805
 N 0.9757 0.4929 0.9137   -0.193704
 N 0.7516 0.2992 0.0672   -0.263021
 N 0.4457 0.7941 0.9421   -0.265782
 N 0.7132 0.8671 0.1017   -0.190534
 N 0.7125 0.9416 0.0256   -0.167468
 N 0.2466 0.9333 0.7185   -0.250826
 N 0.0929 0.0885 0.5841   -0.181453
 N 0.0353 0.121 0.5504   -0.166235
 N 0.9166 0.0383 0.5515   -0.181805
 N 0.9757 0.0071 0.5863   -0.193704
 N 0.7516 0.2008 0.4328   -0.263021
 N 0.4457 0.7059 0.5579   -0.265782
 N 0.7132 0.6329 0.3983   -0.190534
 N 0.7125 0.5584 0.4744   -0.167468
 N 0.2534 0.2185 0.4333   -0.250826
 N 0.4071 0.0841 0.5885   -0.181453
 N 0.4647 0.0504 0.621   -0.166235
 N 0.5834 0.0515 0.5383   -0.181805
 N 0.5243 0.0863 0.5071   -0.193704
 N 0.7484 0.9328 0.7008   -0.263021
 N 0.0543 0.0579 0.2059   -0.265782
 N 0.7868 0.8983 0.1329   -0.190501
 N 0.7875 0.9744 0.0584   -0.167448
 N 0.2534 0.2815 0.0667   -0.250826
 N 0.4071 0.4159 0.9115   -0.181453
 N 0.4647 0.4496 0.879   -0.166235
 N 0.5834 0.4485 0.9617   -0.181805
 N 0.5243 0.4137 0.9929   -0.193704
 N 0.7484 0.5672 0.7992   -0.263021
 N 0.0543 0.4421 0.2941   -0.265782
 N 0.7868 0.6017 0.3671   -0.190501
 N 0.7875 0.5256 0.4416   -0.167448
