{'_ref': 'TBD', '_srcid': 'CAKYAQ_clean', 'submitters': [{'name': 'Dalar Nazarian Jeff Camp and David Sholl', 'email': 'dalar@gatech.edu jcamp6@gatech.edu'}], '_method': 'VASP DFT with PBE;DDEC'}
data_ZnH8C17S2NO4
_symmetry_space_group_name_H-M   'P 1'
_cell_length_a   13.89899965
_cell_length_b   14.86759994
_cell_length_c   14.86760000
_cell_angle_alpha   117.79200170
_cell_angle_beta   98.19290103
_cell_angle_gamma   98.19290051
_symmetry_Int_Tables_number   1
_chemical_formula_structural   ZnH8C17S2NO4
_chemical_formula_sum   'Zn4 H32 C68 S8 N4 O16'
_cell_volume   2612.44937061
_cell_formula_units_Z   4
loop_
 _symmetry_equiv_pos_site_id
 _symmetry_equiv_pos_as_xyz
  1  'x, y, z'
loop_
 _atom_site_label
 _atom_site_fract_x
 _atom_site_fract_y
 _atom_site_fract_z
 _atom_site_charge
 Zn 0.13907 0.62205 0.32599   0.925052
 Zn 0.36093 0.67401 0.37795   0.925052
 Zn 0.86093 0.37795 0.67401   0.925052
 Zn 0.63907 0.32599 0.62205   0.925052
 H 0.3837 0.6586 0.0716   0.164364
 H 0.9951 0.5981 0.4461   0.063095
 H 0.9649 0.6607 0.2191   0.086505
 H 0.8374 0.6101 0.4619   0.124894
 H 0.3999 0.6766 0.8938   0.131258
 H 0.0493 0.6229 0.8041   0.138444
 H 0.8038 0.6719 0.2251   0.141093
 H 0.3996 0.712 0.7242   0.137909
 H 0.1163 0.9284 0.3414   0.164363
 H 0.5049 0.5539 0.4019   0.063095
 H 0.5351 0.7809 0.3393   0.086504
 H 0.6626 0.5381 0.3899   0.124894
 H 0.1001 0.1062 0.3234   0.131258
 H 0.4507 0.1959 0.3771   0.138444
 H 0.6962 0.7749 0.3281   0.14109
 H 0.1004 0.2758 0.288   0.137909
 H 0.6163 0.3414 0.9284   0.164363
 H 0.0049 0.4019 0.5539   0.063095
 H 0.0351 0.3393 0.7809   0.086505
 H 0.1626 0.3899 0.5381   0.124894
 H 0.6001 0.3234 0.1062   0.131258
 H 0.9507 0.3771 0.1959   0.138444
 H 0.1962 0.3281 0.7749   0.141093
 H 0.6004 0.288 0.2758   0.137909
 H 0.8837 0.0716 0.6586   0.164362
 H 0.4951 0.4461 0.5981   0.063095
 H 0.4649 0.2191 0.6607   0.086504
 H 0.3374 0.4619 0.6101   0.124894
 H 0.8999 0.8938 0.6766   0.131258
 H 0.5493 0.8041 0.6229   0.138444
 H 0.3038 0.2251 0.6719   0.14109
 H 0.8996 0.7242 0.712   0.137909
 C 0.2257 0.6184 0.0666   -0.193321
 C 0.3171 0.6455 0.0387   -0.134104
 C 0.9559 0.6136 0.4014   0.184969
 C 0.8018 0.64441 0.34659   0.106616
 C 0.9381 0.6499 0.2681   0.172382
 C 0.2695 0.6458 0.9364   0.019702
 C 0.1791 0.6518 0.7636   0.011952
 C 0.26 0.67861 0.63579   -0.169154
 C 0.2287 0.61234 0.16386   0.700337
 C 0.1673 0.6285 0.9081   0.011004
 C 0.8617 0.6208 0.4118   -0.190314
 C 0.3307 0.666 0.876   -0.166479
 C 0.333 0.6862 0.7138   -0.109841
 C 0.1183 0.6325 0.8215   -0.15331
 C 0.8418 0.6578 0.2716   -0.199544
 C 0.2821 0.6693 0.7877   0.027769
 C 0.2718 0.68423 0.54057   0.691796
 C 0.2743 0.9334 0.3816   -0.193321
 C 0.1829 0.9613 0.3545   -0.134104
 C 0.5441 0.5986 0.3864   0.184969
 C 0.6982 0.65341 0.35559   0.106615
 C 0.5619 0.7319 0.3501   0.172382
 C 0.2305 0.0636 0.3542   0.019702
 C 0.3209 0.2364 0.3482   0.011952
 C 0.24 0.36421 0.32139   -0.169154
 C 0.2713 0.83614 0.38766   0.700337
 C 0.3327 0.0919 0.3715   0.011004
 C 0.6383 0.5882 0.3792   -0.190314
 C 0.1693 0.124 0.334   -0.166479
 C 0.167 0.2862 0.3138   -0.109841
 C 0.3817 0.1785 0.3675   -0.15331
 C 0.6582 0.7284 0.3422   -0.199543
 C 0.2179 0.2123 0.3307   0.02777
 C 0.2282 0.45943 0.31577   0.691796
 C 0.7743 0.3816 0.9334   -0.193321
 C 0.6829 0.3545 0.9613   -0.134104
 C 0.0441 0.3864 0.5986   0.184969
 C 0.1982 0.35559 0.65341   0.106615
 C 0.0619 0.3501 0.7319   0.172382
 C 0.7305 0.3542 0.0636   0.019702
 C 0.8209 0.3482 0.2364   0.011952
 C 0.74 0.32139 0.36421   -0.169154
 C 0.7713 0.38766 0.83614   0.700337
 C 0.8327 0.3715 0.0919   0.011004
 C 0.1383 0.3792 0.5882   -0.190314
 C 0.6693 0.334 0.124   -0.166479
 C 0.667 0.3138 0.2862   -0.109841
 C 0.8817 0.3675 0.1785   -0.15331
 C 0.1582 0.3422 0.7284   -0.199544
 C 0.7179 0.3307 0.2123   0.027769
 C 0.7282 0.31577 0.45943   0.691796
 C 0.7257 0.0666 0.6184   -0.193321
 C 0.8171 0.0387 0.6455   -0.134104
 C 0.4559 0.4014 0.6136   0.184969
 C 0.3018 0.34659 0.64441   0.106615
 C 0.4381 0.2681 0.6499   0.172382
 C 0.7695 0.9364 0.6458   0.019702
 C 0.6791 0.7636 0.6518   0.011952
 C 0.76 0.63579 0.67861   -0.169154
 C 0.7287 0.16386 0.61234   0.700337
 C 0.6673 0.9081 0.6285   0.011004
 C 0.3617 0.4118 0.6208   -0.190314
 C 0.8307 0.876 0.666   -0.166479
 C 0.833 0.7138 0.6862   -0.109841
 C 0.6183 0.8215 0.6325   -0.15331
 C 0.3418 0.2716 0.6578   -0.199543
 C 0.7821 0.7877 0.6693   0.02777
 C 0.7718 0.54057 0.68423   0.691796
 S 0.13515 0.65575 0.64915   0.04306
 S 0.10734 0.60144 0.99136   0.099891
 S 0.36485 0.35085 0.34425   0.04306
 S 0.39266 0.00864 0.39856   0.09989
 S 0.86485 0.34425 0.35085   0.04306
 S 0.89266 0.39856 0.00864   0.09989
 S 0.63515 0.64915 0.65575   0.04306
 S 0.60734 0.99136 0.60144   0.09989
 N 0.9961 0.62731 0.33089   -0.303195
 N 0.5039 0.66911 0.37269   -0.303195
 N 0.0039 0.37269 0.66911   -0.303195
 N 0.4961 0.33089 0.62731   -0.303195
 O 0.3579 0.69981 0.52619   -0.580136
 O 0.1459 0.58828 0.18072   -0.588684
 O 0.1914 0.66961 0.48039   -0.594807
 O 0.3134 0.63689 0.22271   -0.599203
 O 0.1421 0.47381 0.30019   -0.580135
 O 0.3541 0.81928 0.41172   -0.588684
 O 0.3086 0.51961 0.33039   -0.594807
 O 0.1866 0.77729 0.36311   -0.599203
 O 0.6421 0.30019 0.47381   -0.580136
 O 0.8541 0.41172 0.81928   -0.588684
 O 0.8086 0.33039 0.51961   -0.594807
 O 0.6866 0.36311 0.77729   -0.599203
 O 0.8579 0.52619 0.69981   -0.580135
 O 0.6459 0.18072 0.58828   -0.588684
 O 0.6914 0.48039 0.66961   -0.594807
 O 0.8134 0.22271 0.63689   -0.599203
