{'_ref': 'TBD', '_srcid': 'CAKYAQ_clean', 'submitters': [{'name': 'Dalar Nazarian Jeff Camp and David Sholl', 'email': 'dalar@gatech.edu jcamp6@gatech.edu'}], '_method': 'VASP DFT with PBE;DDEC'}
data_BaVH4C8NO9
_symmetry_space_group_name_H-M   'P 1'
_cell_length_a   7.21899990
_cell_length_b   10.79499994
_cell_length_c   11.66200000
_cell_angle_alpha   113.68600094
_cell_angle_beta   102.81400298
_cell_angle_gamma   95.06899711
_symmetry_Int_Tables_number   1
_chemical_formula_structural   BaVH4C8NO9
_chemical_formula_sum   'Ba2 V2 H8 C16 N2 O18'
_cell_volume   795.33908585
_cell_formula_units_Z   2
loop_
 _symmetry_equiv_pos_site_id
 _symmetry_equiv_pos_as_xyz
  1  'x, y, z'
loop_
 _atom_site_label
 _atom_site_fract_x
 _atom_site_fract_y
 _atom_site_fract_z
 _atom_site_charge
 Ba 0.54785 0.22705 0.61578   1.688681
 Ba 0.45215 0.77295 0.38422   1.688695
 V 0.86984 0.7498 0.17464   1.988452
 V 0.13016 0.2502 0.82536   1.98845
 H 0.596 0.73 0.7315   0.122469
 H 0.76 0.1215 0.024   0.144314
 H 0.15 0.977 0.4246   0.43369
 H 0.187 0.953 0.545   0.447846
 H 0.404 0.27 0.2685   0.122469
 H 0.24 0.8785 0.976   0.144314
 H 0.85 0.023 0.5754   0.433689
 H 0.813 0.047 0.455   0.447845
 C 0.7063 0.5978 0.8941   0.688546
 C 0.7133 0.7452 0.9144   0.120417
 C 0.6521 0.7927 0.8216   -0.055918
 C 0.6646 0.9346 0.863   -0.035975
 C 0.5907 0.9888 0.7617   0.705982
 C 0.7417 0.0239 0.9951   -0.094831
 C 0.8032 0.9678 0.0817   0.122628
 C 0.8879 0.0419 0.2276   0.62434
 C 0.2937 0.4022 0.1059   0.688546
 C 0.2867 0.2548 0.0856   0.120416
 C 0.3479 0.2073 0.1784   -0.055918
 C 0.3354 0.0654 0.137   -0.035981
 C 0.4093 0.0112 0.2383   0.70598
 C 0.2583 0.9761 0.0049   -0.09484
 C 0.1968 0.0322 0.9183   0.122624
 C 0.1121 0.9581 0.7724   0.624335
 N 0.7882 0.8316 0.0398   -0.457797
 N 0.2118 0.1684 0.9602   -0.457796
 O 0.6423 0.5013 0.7868   -0.607057
 O 0.7716 0.5878 0.0031   -0.608656
 O 0.9254 0.9577 0.2806   -0.68947
 O 0.915 0.1666 0.2872   -0.52013
 O 0.5674 0.909 0.6474   -0.736805
 O 0.5602 0.1081 0.8022   -0.650923
 O 0.7404 0.7102 0.256   -0.855353
 O 0.0868 0.7272 0.2187   -0.859745
 O 0.2421 0.9897 0.4987   -0.914701
 O 0.3577 0.4987 0.2132   -0.607058
 O 0.2284 0.4122 0.9969   -0.608655
 O 0.0746 0.0423 0.7194   -0.68947
 O 0.085 0.8334 0.7128   -0.52013
 O 0.4326 0.091 0.3526   -0.736804
 O 0.4398 0.8919 0.1978   -0.650923
 O 0.2596 0.2898 0.744   -0.855352
 O 0.9132 0.2728 0.7813   -0.859743
 O 0.7579 0.0103 0.5013   -0.914701
