{'_ref': 'TBD', '_srcid': 'CAKYAQ_clean', 'submitters': [{'name': 'Dalar Nazarian Jeff Camp and David Sholl', 'email': 'dalar@gatech.edu jcamp6@gatech.edu'}], '_method': 'VASP DFT with PBE;DDEC'}
data_CuH8C8(NO3)2
_symmetry_space_group_name_H-M   'P 1'
_cell_length_a   8.91140018
_cell_length_b   11.39000030
_cell_length_c   13.21370000
_cell_angle_alpha   115.53000180
_cell_angle_beta   92.99550188
_cell_angle_gamma   89.99999841
_symmetry_Int_Tables_number   1
_chemical_formula_structural   CuH8C8(NO3)2
_chemical_formula_sum   'Cu3 H24 C24 N6 O18'
_cell_volume   1208.21531461
_cell_formula_units_Z   3
loop_
 _symmetry_equiv_pos_site_id
 _symmetry_equiv_pos_as_xyz
  1  'x, y, z'
loop_
 _atom_site_label
 _atom_site_fract_x
 _atom_site_fract_y
 _atom_site_fract_z
 _atom_site_charge
 Cu 0.0 0.0 0.0   0.746091
 Cu 0.62777 0.03032 0.06064   0.967939
 Cu 0.37223 0.96968 0.93936   0.967938
 H 0.9507 0.1546 0.447   0.092064
 H 0.7558 0.6617 0.7666   0.151758
 H 0.6818 0.5971 0.8358   0.150812
 H 0.456 0.5617 0.7094   0.090004
 H 0.5599 0.5954 0.6326   0.086793
 H 0.7501 0.0858 0.3088   0.143755
 H 0.0493 0.7076 0.553   0.092042
 H 0.2442 0.8951 0.2334   0.151831
 H 0.3182 0.7613 0.1642   0.150954
 H 0.544 0.8523 0.2906   0.090199
 H 0.4401 0.9628 0.3674   0.086338
 H 0.2499 0.777 0.6912   0.143787
 H 0.0493 0.8454 0.553   0.092063
 H 0.2442 0.3383 0.2334   0.151758
 H 0.3182 0.4029 0.1642   0.150816
 H 0.544 0.4383 0.2906   0.090004
 H 0.4401 0.4046 0.3674   0.086792
 H 0.2499 0.9142 0.6912   0.143755
 H 0.9507 0.2924 0.447   0.092041
 H 0.7558 0.1049 0.7666   0.151831
 H 0.6818 0.2387 0.8358   0.150958
 H 0.456 0.1477 0.7094   0.090199
 H 0.5599 0.0372 0.6326   0.086337
 H 0.7501 0.223 0.3088   0.143787
 C 0.5936 0.7758 0.8666   0.732912
 C 0.6609 0.6452 0.7916   -0.355249
 C 0.5586 0.5603 0.6876   0.081313
 C 0.7183 0.3874 0.5586   0.610742
 C 0.4064 0.9092 0.1334   0.732505
 C 0.3391 0.8536 0.2084   -0.3552
 C 0.4414 0.8727 0.3124   0.081567
 C 0.2817 0.8288 0.4414   0.609435
 C 0.4064 0.2242 0.1334   0.732912
 C 0.3391 0.3548 0.2084   -0.355251
 C 0.4414 0.4397 0.3124   0.081314
 C 0.2817 0.6126 0.4414   0.61074
 C 0.5936 0.0908 0.8666   0.732506
 C 0.6609 0.1464 0.7916   -0.355202
 C 0.5586 0.1273 0.6876   0.081567
 C 0.7183 0.1712 0.5586   0.609434
 C 0.9257 0.1126 0.2252   0.724724
 C 0.8121 0.1585 0.317   -0.382431
 C 0.8875 0.2181 0.4362   0.084488
 C 0.5592 0.3419 0.6838   0.59089
 C 0.0743 0.8874 0.7748   0.724724
 C 0.1879 0.8415 0.683   -0.382431
 C 0.1125 0.7819 0.5638   0.084488
 C 0.4408 0.6581 0.3162   0.59089
 N 0.6111 0.4234 0.637   -0.312808
 N 0.3889 0.7864 0.363   -0.312666
 N 0.3889 0.5766 0.363   -0.312808
 N 0.6111 0.2136 0.637   -0.312666
 N 0.7696 0.2609 0.5218   -0.319646
 N 0.2304 0.7391 0.4782   -0.319646
 O 0.6774 0.8526 0.9502   -0.593582
 O 0.461 0.79907 0.84514   -0.543635
 O 0.7637 0.4629 0.5222   -0.513289
 O 0.3226 0.9024 0.0498   -0.593344
 O 0.539 0.95393 0.15486   -0.543596
 O 0.2363 0.9407 0.4778   -0.512305
 O 0.3226 0.1474 0.0498   -0.593582
 O 0.539 0.20093 0.15486   -0.543635
 O 0.2363 0.5371 0.4778   -0.513289
 O 0.6774 0.0976 0.9502   -0.593344
 O 0.461 0.04607 0.84514   -0.543595
 O 0.7637 0.0593 0.5222   -0.512305
 O 0.8629 0.0615 0.123   -0.647544
 O 0.0634 0.1227 0.2454   -0.537948
 O 0.4717 0.3802 0.7604   -0.496657
 O 0.1371 0.9385 0.877   -0.647544
 O 0.9366 0.8773 0.7546   -0.537948
 O 0.5283 0.6198 0.2396   -0.496656
