{'_ref': 'TBD', '_srcid': 'CAKYAQ_clean', 'submitters': [{'name': 'Dalar Nazarian Jeff Camp and David Sholl', 'email': 'dalar@gatech.edu jcamp6@gatech.edu'}], '_method': 'VASP DFT with PBE;DDEC'}
data_CoH18C22(NO)4
_symmetry_space_group_name_H-M   'P 1'
_cell_length_a   7.77760000
_cell_length_b   18.57180000
_cell_length_c   18.57180000
_cell_angle_alpha   90.00000000
_cell_angle_beta   90.00000000
_cell_angle_gamma   90.00000000
_symmetry_Int_Tables_number   1
_chemical_formula_structural   CoH18C22(NO)4
_chemical_formula_sum   'Co4 H72 C88 N16 O16'
_cell_volume   2682.58566755
_cell_formula_units_Z   4
loop_
 _symmetry_equiv_pos_site_id
 _symmetry_equiv_pos_as_xyz
  1  'x, y, z'
loop_
 _atom_site_label
 _atom_site_fract_x
 _atom_site_fract_y
 _atom_site_fract_z
 _atom_site_charge
 Co 0.5 0.77655 0.22345   0.901809
 Co 0.5 0.22345 0.77655   0.90181
 Co 0.5 0.27655 0.27655   0.90181
 Co 0.5 0.72345 0.72345   0.901809
 H 0.0541 0.8573 0.2405   0.095747
 H 0.0541 0.1427 0.7595   0.095747
 H 0.0541 0.2595 0.3573   0.095747
 H 0.0541 0.7405 0.6427   0.095747
 H 0.9459 0.6427 0.7405   0.095747
 H 0.9459 0.3573 0.2595   0.095747
 H 0.9459 0.2405 0.8573   0.095747
 H 0.9459 0.7595 0.1427   0.095747
 H 0.7191 0.0189 0.2535   0.084214
 H 0.7191 0.9811 0.7465   0.084214
 H 0.7191 0.2465 0.5189   0.084214
 H 0.7191 0.7535 0.4811   0.084214
 H 0.2809 0.4811 0.7535   0.084214
 H 0.2809 0.5189 0.2465   0.084214
 H 0.2809 0.2535 0.0189   0.084214
 H 0.2809 0.7465 0.9811   0.084214
 H 0.2774 0.9353 0.2635   0.125788
 H 0.2774 0.0647 0.7365   0.125788
 H 0.2774 0.2365 0.4353   0.125788
 H 0.2774 0.7635 0.5647   0.125788
 H 0.7226 0.5647 0.7635   0.125788
 H 0.7226 0.4353 0.2365   0.125788
 H 0.7226 0.2635 0.9353   0.125788
 H 0.7226 0.7365 0.0647   0.125788
 H 0.9381 0.0975 0.2808   0.124546
 H 0.9381 0.9025 0.7192   0.124546
 H 0.9381 0.2192 0.5975   0.124546
 H 0.9381 0.7808 0.4025   0.124546
 H 0.0619 0.4025 0.7808   0.124546
 H 0.0619 0.5975 0.2192   0.124546
 H 0.0619 0.2808 0.0975   0.124546
 H 0.0619 0.7192 0.9025   0.124546
 H 0.3872 0.0256 0.3789   0.131637
 H 0.3872 0.9744 0.6211   0.131637
 H 0.3872 0.1211 0.5256   0.131639
 H 0.3872 0.8789 0.4744   0.131639
 H 0.6128 0.4744 0.8789   0.131637
 H 0.6128 0.5256 0.1211   0.131637
 H 0.6128 0.3789 0.0256   0.131639
 H 0.6128 0.6211 0.9744   0.131639
 H 0.1408 0.1278 0.1741   0.139349
 H 0.1408 0.8722 0.8259   0.139349
 H 0.1408 0.3259 0.6278   0.139349
 H 0.1408 0.6741 0.3722   0.139349
 H 0.8592 0.3722 0.6741   0.139348
 H 0.8592 0.6278 0.3259   0.139348
 H 0.8592 0.1741 0.1278   0.139348
 H 0.8592 0.8259 0.8722   0.139348
 H 0.3155 0.1643 0.1529   0.162763
 H 0.3155 0.8357 0.8471   0.162763
 H 0.3155 0.3471 0.6643   0.162763
 H 0.3155 0.6529 0.3357   0.162763
 H 0.6845 0.3357 0.6529   0.162762
 H 0.6845 0.6643 0.3471   0.162762
 H 0.6845 0.1529 0.1643   0.162762
 H 0.6845 0.8471 0.8357   0.162762
 H 0.1786 0.2073 0.1975   0.163417
 H 0.1786 0.7927 0.8025   0.163417
 H 0.1786 0.3025 0.7073   0.163417
 H 0.1786 0.6975 0.2927   0.163417
 H 0.8214 0.2927 0.6975   0.163416
 H 0.8214 0.7073 0.3025   0.163416
 H 0.8214 0.1975 0.2073   0.163416
 H 0.8214 0.8025 0.7927   0.163416
 H 0.565 0.1336 0.3823   0.103579
 H 0.565 0.8664 0.6177   0.103579
 H 0.565 0.1177 0.6336   0.103579
 H 0.565 0.8823 0.3664   0.103579
 H 0.435 0.3664 0.8823   0.103579
 H 0.435 0.6336 0.1177   0.103579
 H 0.435 0.3823 0.1336   0.103579
 H 0.435 0.6177 0.8664   0.103579
 C 0.7168 0.8777 0.2314   0.633683
 C 0.7168 0.1223 0.7686   0.633683
 C 0.7168 0.2686 0.3777   0.633683
 C 0.7168 0.7314 0.6223   0.633683
 C 0.2832 0.6223 0.7314   0.633683
 C 0.2832 0.3777 0.2686   0.633683
 C 0.2832 0.2314 0.8777   0.633683
 C 0.2832 0.7686 0.1223   0.633683
 C 0.8615 0.9296 0.2459   -0.147011
 C 0.8615 0.0704 0.7541   -0.147011
 C 0.8615 0.2541 0.4296   -0.147011
 C 0.8615 0.7459 0.5704   -0.147011
 C 0.1385 0.5704 0.7459   -0.147011
 C 0.1385 0.4296 0.2541   -0.147011
 C 0.1385 0.2459 0.9296   -0.147011
 C 0.1385 0.7541 0.0704   -0.147011
 C 0.0308 0.9058 0.2484   0.000679
 C 0.0308 0.0942 0.7516   0.000679
 C 0.0308 0.2516 0.4058   0.000679
 C 0.0308 0.7484 0.5942   0.000679
 C 0.9692 0.5942 0.7484   0.000679
 C 0.9692 0.4058 0.2516   0.000679
 C 0.9692 0.2484 0.9058   0.000679
 C 0.9692 0.7516 0.0942   0.000679
 C 0.8312 0.0017 0.2567   -0.013589
 C 0.8312 0.9983 0.7433   -0.013589
 C 0.8312 0.2433 0.5017   -0.013589
 C 0.8312 0.7567 0.4983   -0.013589
 C 0.1688 0.4983 0.7567   -0.013589
 C 0.1688 0.5017 0.2433   -0.013589
 C 0.1688 0.2567 0.0017   -0.013589
 C 0.1688 0.7433 0.9983   -0.013589
 C 0.1648 0.9521 0.2622   -0.170838
 C 0.1648 0.0479 0.7378   -0.170838
 C 0.1648 0.2378 0.4521   -0.170838
 C 0.1648 0.7622 0.5479   -0.170838
 C 0.8352 0.5479 0.7622   -0.170838
 C 0.8352 0.4521 0.2378   -0.170838
 C 0.8352 0.2622 0.9521   -0.170838
 C 0.8352 0.7378 0.0479   -0.170838
 C 0.9624 0.0492 0.272   -0.194716
 C 0.9624 0.9508 0.728   -0.194716
 C 0.9624 0.228 0.5492   -0.194715
 C 0.9624 0.772 0.4508   -0.194715
 C 0.0376 0.4508 0.772   -0.194716
 C 0.0376 0.5492 0.228   -0.194716
 C 0.0376 0.272 0.0492   -0.194715
 C 0.0376 0.728 0.9508   -0.194715
 C 0.129 0.0251 0.2743   0.126794
 C 0.129 0.9749 0.7257   0.126794
 C 0.129 0.2257 0.5251   0.126794
 C 0.129 0.7743 0.4749   0.126794
 C 0.871 0.4749 0.7743   0.126794
 C 0.871 0.5251 0.2257   0.126794
 C 0.871 0.2743 0.0251   0.126794
 C 0.871 0.7257 0.9749   0.126794
 C 0.3807 0.0645 0.3475   -0.158069
 C 0.3807 0.9355 0.6525   -0.158069
 C 0.3807 0.1525 0.5645   -0.15807
 C 0.3807 0.8475 0.4355   -0.15807
 C 0.6193 0.4355 0.8475   -0.158069
 C 0.6193 0.5645 0.1525   -0.158069
 C 0.6193 0.3475 0.0645   -0.15807
 C 0.6193 0.6525 0.9355   -0.15807
 C 0.3055 0.1347 0.2561   0.379644
 C 0.3055 0.8653 0.7439   0.379644
 C 0.3055 0.2439 0.6347   0.379644
 C 0.3055 0.7561 0.3653   0.379644
 C 0.6945 0.3653 0.7561   0.379644
 C 0.6945 0.6347 0.2439   0.379644
 C 0.6945 0.2561 0.1347   0.379644
 C 0.6945 0.7439 0.8653   0.379644
 C 0.2285 0.1607 0.1895   -0.459782
 C 0.2285 0.8393 0.8105   -0.459781
 C 0.2285 0.3105 0.6607   -0.459782
 C 0.2285 0.6895 0.3393   -0.459781
 C 0.7715 0.3393 0.6895   -0.459781
 C 0.7715 0.6607 0.3105   -0.459781
 C 0.7715 0.1895 0.1607   -0.459781
 C 0.7715 0.8105 0.8393   -0.459781
 C 0.4795 0.1239 0.3486   0.047865
 C 0.4795 0.8761 0.6514   0.047865
 C 0.4795 0.1514 0.6239   0.047865
 C 0.4795 0.8486 0.3761   0.047865
 C 0.5205 0.3761 0.8486   0.047865
 C 0.5205 0.6239 0.1514   0.047865
 C 0.5205 0.3486 0.1239   0.047865
 C 0.5205 0.6514 0.8761   0.047865
 N 0.267 0.07237 0.2903   0.00329
 N 0.267 0.92763 0.7097   0.00329
 N 0.267 0.2097 0.57237   0.00329
 N 0.267 0.7903 0.42763   0.00329
 N 0.733 0.42763 0.7903   0.00329
 N 0.733 0.57237 0.2097   0.00329
 N 0.733 0.2903 0.07237   0.00329
 N 0.733 0.7097 0.92763   0.00329
 N 0.4331 0.16909 0.29086   -0.473767
 N 0.4331 0.83091 0.70914   -0.473767
 N 0.4331 0.20914 0.66909   -0.473767
 N 0.4331 0.79086 0.33091   -0.473767
 N 0.5669 0.33091 0.79086   -0.473767
 N 0.5669 0.66909 0.20914   -0.473767
 N 0.5669 0.29086 0.16909   -0.473767
 N 0.5669 0.70914 0.83091   -0.473767
 O 0.5678 0.89836 0.22058   -0.571592
 O 0.5678 0.10164 0.77942   -0.571592
 O 0.5678 0.27942 0.39836   -0.571592
 O 0.5678 0.72058 0.60164   -0.571592
 O 0.4322 0.60164 0.72058   -0.571592
 O 0.4322 0.39836 0.27942   -0.571592
 O 0.4322 0.22058 0.89836   -0.571592
 O 0.4322 0.77942 0.10164   -0.571592
 O 0.7516 0.81092 0.23509   -0.584537
 O 0.7516 0.18908 0.76491   -0.584537
 O 0.7516 0.26491 0.31092   -0.584537
 O 0.7516 0.73509 0.68908   -0.584537
 O 0.2484 0.68908 0.73509   -0.584537
 O 0.2484 0.31092 0.26491   -0.584537
 O 0.2484 0.23509 0.81092   -0.584537
 O 0.2484 0.76491 0.18908   -0.584537
