{'_ref': 'TBD', '_srcid': 'CAKYAQ_clean', 'submitters': [{'name': 'Dalar Nazarian Jeff Camp and David Sholl', 'email': 'dalar@gatech.edu jcamp6@gatech.edu'}], '_method': 'VASP DFT with PBE;DDEC'}
data_CdH18C22(NO)4
_symmetry_space_group_name_H-M   'P 1'
_cell_length_a   15.57300000
_cell_length_b   19.41600000
_cell_length_c   19.66400000
_cell_angle_alpha   90.00000000
_cell_angle_beta   90.00000000
_cell_angle_gamma   90.00000000
_symmetry_Int_Tables_number   1
_chemical_formula_structural   CdH18C22(NO)4
_chemical_formula_sum   'Cd8 H144 C176 N32 O32'
_cell_volume   5945.71259635
_cell_formula_units_Z   8
loop_
 _symmetry_equiv_pos_site_id
 _symmetry_equiv_pos_as_xyz
  1  'x, y, z'
loop_
 _atom_site_label
 _atom_site_fract_x
 _atom_site_fract_y
 _atom_site_fract_z
 _atom_site_charge
 Cd 0.49388 0.77264 0.05798   0.94572
 Cd 0.50612 0.22736 0.05798   0.94572
 Cd 0.99388 0.72736 0.05798   0.94572
 Cd 0.00612 0.27264 0.05798   0.94572
 Cd 0.49388 0.27264 0.55798   0.94572
 Cd 0.50612 0.72736 0.55798   0.94572
 Cd 0.99388 0.22736 0.55798   0.94572
 Cd 0.00612 0.77264 0.55798   0.94572
 H 0.7721 0.8662 0.043   0.095091
 H 0.2279 0.1338 0.043   0.095091
 H 0.2721 0.6338 0.043   0.095091
 H 0.7279 0.3662 0.043   0.095091
 H 0.7721 0.3662 0.543   0.095091
 H 0.2279 0.6338 0.543   0.095091
 H 0.2721 0.1338 0.543   0.095091
 H 0.7279 0.8662 0.543   0.095091
 H 0.8779 0.9481 0.0287   0.099924
 H 0.1221 0.0519 0.0287   0.099924
 H 0.3779 0.5519 0.0287   0.099924
 H 0.6221 0.4481 0.0287   0.099924
 H 0.8779 0.4481 0.5287   0.099924
 H 0.1221 0.5519 0.5287   0.099924
 H 0.3779 0.0519 0.5287   0.099924
 H 0.6221 0.9481 0.5287   0.099924
 H 0.698 0.097 0.0263   0.120722
 H 0.302 0.903 0.0263   0.120722
 H 0.198 0.403 0.0263   0.120722
 H 0.802 0.597 0.0263   0.120722
 H 0.698 0.597 0.5263   0.120722
 H 0.302 0.403 0.5263   0.120722
 H 0.198 0.903 0.5263   0.120722
 H 0.802 0.097 0.5263   0.120722
 H 0.5934 0.0141 0.0419   0.11061
 H 0.4066 0.9859 0.0419   0.11061
 H 0.0934 0.4859 0.0419   0.11061
 H 0.9066 0.5141 0.0419   0.11061
 H 0.5934 0.5141 0.5419   0.11061
 H 0.4066 0.4859 0.5419   0.11061
 H 0.0934 0.9859 0.5419   0.11061
 H 0.9066 0.0141 0.5419   0.11061
 H 0.8606 0.2007 0.1308   0.148171
 H 0.1394 0.7993 0.1308   0.148171
 H 0.3606 0.2993 0.1308   0.148171
 H 0.6394 0.7007 0.1308   0.148171
 H 0.8606 0.7007 0.6308   0.148171
 H 0.1394 0.2993 0.6308   0.148171
 H 0.3606 0.7993 0.6308   0.148171
 H 0.6394 0.2007 0.6308   0.148171
 H 0.8447 0.1231 0.1489   0.13963
 H 0.1553 0.8769 0.1489   0.13963
 H 0.3447 0.3769 0.1489   0.13963
 H 0.6553 0.6231 0.1489   0.13963
 H 0.8447 0.6231 0.6489   0.13963
 H 0.1553 0.3769 0.6489   0.13963
 H 0.3447 0.8769 0.6489   0.13963
 H 0.6553 0.1231 0.6489   0.13963
 H 0.7786 0.1629 0.1034   0.148484
 H 0.2214 0.8371 0.1034   0.148484
 H 0.2786 0.3371 0.1034   0.148484
 H 0.7214 0.6629 0.1034   0.148484
 H 0.7786 0.6629 0.6034   0.148484
 H 0.2214 0.3371 0.6034   0.148484
 H 0.2786 0.8371 0.6034   0.148484
 H 0.7214 0.1629 0.6034   0.148484
 H 0.933 0.0426 0.9316   0.128877
 H 0.067 0.9574 0.9316   0.128877
 H 0.433 0.4574 0.9316   0.128877
 H 0.567 0.5426 0.9316   0.128877
 H 0.933 0.5426 0.4316   0.128877
 H 0.067 0.4574 0.4316   0.128877
 H 0.433 0.9574 0.4316   0.128877
 H 0.567 0.0426 0.4316   0.128877
 H 0.0333 0.1354 0.9477   0.111184
 H 0.9667 0.8646 0.9477   0.111184
 H 0.5333 0.3646 0.9477   0.111184
 H 0.4667 0.6354 0.9477   0.111184
 H 0.0333 0.6354 0.4477   0.111184
 H 0.9667 0.3646 0.4477   0.111184
 H 0.5333 0.8646 0.4477   0.111184
 H 0.4667 0.1354 0.4477   0.111184
 H 0.3718 0.7957 0.8278   0.092782
 H 0.6282 0.2043 0.8278   0.092782
 H 0.8718 0.7043 0.8278   0.092782
 H 0.1282 0.2957 0.8278   0.092782
 H 0.3718 0.2957 0.3278   0.092782
 H 0.6282 0.7043 0.3278   0.092782
 H 0.8718 0.2043 0.3278   0.092782
 H 0.1282 0.7957 0.3278   0.092782
 H 0.2627 0.8031 0.7531   0.106682
 H 0.7373 0.1969 0.7531   0.106682
 H 0.7627 0.6969 0.7531   0.106682
 H 0.2373 0.3031 0.7531   0.106682
 H 0.2627 0.3031 0.2531   0.106682
 H 0.7373 0.6969 0.2531   0.106682
 H 0.7627 0.1969 0.2531   0.106682
 H 0.2373 0.8031 0.2531   0.106682
 H 0.0944 0.7443 0.891   0.131135
 H 0.9056 0.2557 0.891   0.131135
 H 0.5944 0.7557 0.891   0.131135
 H 0.4056 0.2443 0.891   0.131135
 H 0.0944 0.2443 0.391   0.131135
 H 0.9056 0.7557 0.391   0.131135
 H 0.5944 0.2557 0.391   0.131135
 H 0.4056 0.7443 0.391   0.131135
 H 0.2063 0.7433 0.9722   0.097164
 H 0.7937 0.2567 0.9722   0.097164
 H 0.7063 0.7567 0.9722   0.097164
 H 0.2937 0.2433 0.9722   0.097164
 H 0.2063 0.2433 0.4722   0.097164
 H 0.7937 0.7567 0.4722   0.097164
 H 0.7063 0.2567 0.4722   0.097164
 H 0.2937 0.7433 0.4722   0.097164
 H 0.1476 0.6888 0.6301   0.156489
 H 0.8524 0.3112 0.6301   0.156489
 H 0.6476 0.8112 0.6301   0.156489
 H 0.3524 0.1888 0.6301   0.156489
 H 0.1476 0.1888 0.1301   0.156489
 H 0.8524 0.8112 0.1301   0.156489
 H 0.6476 0.3112 0.1301   0.156489
 H 0.3524 0.6888 0.1301   0.156489
 H 0.162 0.6577 0.7028   0.144255
 H 0.838 0.3423 0.7028   0.144255
 H 0.662 0.8423 0.7028   0.144255
 H 0.338 0.1577 0.7028   0.144255
 H 0.162 0.1577 0.2028   0.144255
 H 0.838 0.8423 0.2028   0.144255
 H 0.662 0.3423 0.2028   0.144255
 H 0.338 0.6577 0.2028   0.144255
 H 0.2187 0.7195 0.6778   0.142225
 H 0.7813 0.2805 0.6778   0.142225
 H 0.7187 0.7805 0.6778   0.142225
 H 0.2813 0.2195 0.6778   0.142225
 H 0.2187 0.2195 0.1778   0.142225
 H 0.7813 0.7805 0.1778   0.142225
 H 0.7187 0.2805 0.1778   0.142225
 H 0.2813 0.7195 0.1778   0.142225
 H 0.9331 0.8301 0.7074   0.105266
 H 0.0669 0.1699 0.7074   0.105266
 H 0.4331 0.6699 0.7074   0.105266
 H 0.5669 0.3301 0.7074   0.105266
 H 0.9331 0.3301 0.2074   0.105266
 H 0.0669 0.6699 0.2074   0.105266
 H 0.4331 0.1699 0.2074   0.105266
 H 0.5669 0.8301 0.2074   0.105266
 H 0.0073 0.8301 0.8161   0.130906
 H 0.9927 0.1699 0.8161   0.130906
 H 0.5073 0.6699 0.8161   0.130906
 H 0.4927 0.3301 0.8161   0.130906
 H 0.0073 0.3301 0.3161   0.130906
 H 0.9927 0.6699 0.3161   0.130906
 H 0.5073 0.1699 0.3161   0.130906
 H 0.4927 0.8301 0.3161   0.130906
 C 0.6034 0.8795 0.0547   0.640116
 C 0.3966 0.1205 0.0547   0.640116
 C 0.1034 0.6205 0.0547   0.640116
 C 0.8966 0.3795 0.0547   0.640116
 C 0.6034 0.3795 0.5547   0.640116
 C 0.3966 0.6205 0.5547   0.640116
 C 0.1034 0.1205 0.5547   0.640116
 C 0.8966 0.8795 0.5547   0.640116
 C 0.6733 0.9321 0.0463   -0.142869
 C 0.3267 0.0679 0.0463   -0.142869
 C 0.1733 0.5679 0.0463   -0.142869
 C 0.8267 0.4321 0.0463   -0.142869
 C 0.6733 0.4321 0.5463   -0.142869
 C 0.3267 0.5679 0.5463   -0.142869
 C 0.1733 0.0679 0.5463   -0.142869
 C 0.8267 0.9321 0.5463   -0.142869
 C 0.7575 0.9125 0.0406   -0.005762
 C 0.2425 0.0875 0.0406   -0.005762
 C 0.2575 0.5875 0.0406   -0.005762
 C 0.7425 0.4125 0.0406   -0.005762
 C 0.7575 0.4125 0.5406   -0.005762
 C 0.2425 0.5875 0.5406   -0.005762
 C 0.2575 0.0875 0.5406   -0.005762
 C 0.7425 0.9125 0.5406   -0.005762
 C 0.8207 0.9614 0.0313   -0.192166
 C 0.1793 0.0386 0.0313   -0.192166
 C 0.3207 0.5386 0.0313   -0.192166
 C 0.6793 0.4614 0.0313   -0.192166
 C 0.8207 0.4614 0.5313   -0.192166
 C 0.1793 0.5386 0.5313   -0.192166
 C 0.3207 0.0386 0.5313   -0.192166
 C 0.6793 0.9614 0.5313   -0.192166
 C 0.7987 0.0314 0.0258   0.119014
 C 0.2013 0.9686 0.0258   0.119014
 C 0.2987 0.4686 0.0258   0.119014
 C 0.7013 0.5314 0.0258   0.119014
 C 0.7987 0.5314 0.5258   0.119014
 C 0.2013 0.4686 0.5258   0.119014
 C 0.2987 0.9686 0.5258   0.119014
 C 0.7013 0.0314 0.5258   0.119014
 C 0.7132 0.0509 0.03   -0.170754
 C 0.2868 0.9491 0.03   -0.170754
 C 0.2132 0.4491 0.03   -0.170754
 C 0.7868 0.5509 0.03   -0.170754
 C 0.7132 0.5509 0.53   -0.170754
 C 0.2868 0.4491 0.53   -0.170754
 C 0.2132 0.9491 0.53   -0.170754
 C 0.7868 0.0509 0.53   -0.170754
 C 0.6508 0.0013 0.0397   0.004277
 C 0.3492 0.9987 0.0397   0.004277
 C 0.1508 0.4987 0.0397   0.004277
 C 0.8492 0.5013 0.0397   0.004277
 C 0.6508 0.5013 0.5397   0.004277
 C 0.3492 0.4987 0.5397   0.004277
 C 0.1508 0.9987 0.5397   0.004277
 C 0.8492 0.0013 0.5397   0.004277
 C 0.8383 0.1577 0.1144   -0.432522
 C 0.1617 0.8423 0.1144   -0.432522
 C 0.3383 0.3423 0.1144   -0.432522
 C 0.6617 0.6577 0.1144   -0.432522
 C 0.8383 0.6577 0.6144   -0.432522
 C 0.1617 0.3423 0.6144   -0.432522
 C 0.3383 0.8423 0.6144   -0.432522
 C 0.6617 0.1577 0.6144   -0.432522
 C 0.8876 0.136 0.051   0.381166
 C 0.1124 0.864 0.051   0.381166
 C 0.3876 0.364 0.051   0.381166
 C 0.6124 0.636 0.051   0.381166
 C 0.8876 0.636 0.551   0.381166
 C 0.1124 0.364 0.551   0.381166
 C 0.3876 0.864 0.551   0.381166
 C 0.6124 0.136 0.551   0.381166
 C 0.9301 0.0761 0.9654   -0.148427
 C 0.0699 0.9239 0.9654   -0.148428
 C 0.4301 0.4239 0.9654   -0.148427
 C 0.5699 0.5761 0.9654   -0.148428
 C 0.9301 0.5761 0.4654   -0.148427
 C 0.0699 0.4239 0.4654   -0.148428
 C 0.4301 0.9239 0.4654   -0.148427
 C 0.5699 0.0761 0.4654   -0.148428
 C 0.9844 0.1267 0.9736   0.031549
 C 0.0156 0.8733 0.9736   0.031549
 C 0.4844 0.3733 0.9736   0.031549
 C 0.5156 0.6267 0.9736   0.031549
 C 0.9844 0.6267 0.4736   0.031549
 C 0.0156 0.3733 0.4736   0.031549
 C 0.4844 0.8733 0.4736   0.031549
 C 0.5156 0.1267 0.4736   0.031549
 C 0.3704 0.7741 0.9623   0.61694
 C 0.6296 0.2259 0.9623   0.61694
 C 0.8704 0.7259 0.9623   0.61694
 C 0.1296 0.2741 0.9623   0.61694
 C 0.3704 0.2741 0.4623   0.61694
 C 0.6296 0.7259 0.4623   0.61694
 C 0.8704 0.2259 0.4623   0.61694
 C 0.1296 0.7741 0.4623   0.61694
 C 0.3002 0.7737 0.907   -0.13703
 C 0.6998 0.2263 0.907   -0.13703
 C 0.8002 0.7263 0.907   -0.13703
 C 0.1998 0.2737 0.907   -0.13703
 C 0.3002 0.2737 0.407   -0.13703
 C 0.6998 0.7263 0.407   -0.13703
 C 0.8002 0.2263 0.407   -0.13703
 C 0.1998 0.7737 0.407   -0.13703
 C 0.3158 0.7874 0.8422   0.000698
 C 0.6842 0.2126 0.8422   0.000698
 C 0.8158 0.7126 0.8422   0.000698
 C 0.1842 0.2874 0.8422   0.000698
 C 0.3158 0.2874 0.3422   0.000698
 C 0.6842 0.7126 0.3422   0.000698
 C 0.8158 0.2126 0.3422   0.000698
 C 0.1842 0.7874 0.3422   0.000698
 C 0.251 0.7893 0.7974   -0.185124
 C 0.749 0.2107 0.7974   -0.185124
 C 0.751 0.7107 0.7974   -0.185124
 C 0.249 0.2893 0.7974   -0.185124
 C 0.251 0.2893 0.2974   -0.185124
 C 0.749 0.7107 0.2974   -0.185124
 C 0.751 0.2107 0.2974   -0.185124
 C 0.249 0.7893 0.2974   -0.185124
 C 0.1693 0.7719 0.8137   0.137059
 C 0.8307 0.2281 0.8137   0.137059
 C 0.6693 0.7281 0.8137   0.137059
 C 0.3307 0.2719 0.8137   0.137059
 C 0.1693 0.2719 0.3137   0.137059
 C 0.8307 0.7281 0.3137   0.137059
 C 0.6693 0.2281 0.3137   0.137059
 C 0.3307 0.7719 0.3137   0.137059
 C 0.1503 0.7554 0.8785   -0.181822
 C 0.8497 0.2446 0.8785   -0.181822
 C 0.6503 0.7446 0.8785   -0.181822
 C 0.3497 0.2554 0.8785   -0.181822
 C 0.1503 0.2554 0.3785   -0.181822
 C 0.8497 0.7446 0.3785   -0.181822
 C 0.6503 0.2446 0.3785   -0.181822
 C 0.3497 0.7554 0.3785   -0.181822
 C 0.2173 0.7554 0.9272   -0.019695
 C 0.7827 0.2446 0.9272   -0.019695
 C 0.7173 0.7446 0.9272   -0.019695
 C 0.2827 0.2554 0.9272   -0.019695
 C 0.2173 0.2554 0.4272   -0.019695
 C 0.7827 0.7446 0.4272   -0.019695
 C 0.7173 0.2446 0.4272   -0.019695
 C 0.2827 0.7554 0.4272   -0.019695
 C 0.1624 0.6993 0.6764   -0.434374
 C 0.8376 0.3007 0.6764   -0.434374
 C 0.6624 0.8007 0.6764   -0.434374
 C 0.3376 0.1993 0.6764   -0.434374
 C 0.1624 0.1993 0.1764   -0.434374
 C 0.8376 0.8007 0.1764   -0.434374
 C 0.6624 0.3007 0.1764   -0.434374
 C 0.3376 0.6993 0.1764   -0.434374
 C 0.0988 0.7487 0.7048   0.345347
 C 0.9012 0.2513 0.7048   0.345347
 C 0.5988 0.7513 0.7048   0.345347
 C 0.4012 0.2487 0.7048   0.345347
 C 0.0988 0.2487 0.2048   0.345347
 C 0.9012 0.7513 0.2048   0.345347
 C 0.5988 0.2513 0.2048   0.345347
 C 0.4012 0.7487 0.2048   0.345347
 C 0.985 0.808 0.7162   0.02008
 C 0.015 0.192 0.7162   0.02008
 C 0.485 0.692 0.7162   0.02008
 C 0.515 0.308 0.7162   0.02008
 C 0.985 0.308 0.2162   0.02008
 C 0.015 0.692 0.2162   0.02008
 C 0.485 0.192 0.2162   0.02008
 C 0.515 0.808 0.2162   0.02008
 C 0.0263 0.8094 0.7762   -0.150403
 C 0.9737 0.1906 0.7762   -0.150403
 C 0.5263 0.6906 0.7762   -0.150403
 C 0.4737 0.3094 0.7762   -0.150403
 C 0.0263 0.3094 0.2762   -0.150403
 C 0.9737 0.6906 0.2762   -0.150403
 C 0.5263 0.1906 0.2762   -0.150403
 C 0.4737 0.8094 0.2762   -0.150403
 N 0.9547 0.1655 0.029   -0.464341
 N 0.0453 0.8345 0.029   -0.464341
 N 0.4547 0.3345 0.029   -0.464341
 N 0.5453 0.6655 0.029   -0.464341
 N 0.9547 0.6655 0.529   -0.464341
 N 0.0453 0.3345 0.529   -0.464341
 N 0.4547 0.8345 0.529   -0.464341
 N 0.5453 0.1655 0.529   -0.464341
 N 0.8679 0.0803 0.015   -0.009683
 N 0.1321 0.9197 0.015   -0.009683
 N 0.3679 0.4197 0.015   -0.009683
 N 0.6321 0.5803 0.015   -0.009683
 N 0.8679 0.5803 0.515   -0.009683
 N 0.1321 0.4197 0.515   -0.009683
 N 0.3679 0.9197 0.515   -0.009683
 N 0.6321 0.0803 0.515   -0.009683
 N 0.0305 0.7691 0.6694   -0.449707
 N 0.9695 0.2309 0.6694   -0.449707
 N 0.5305 0.7309 0.6694   -0.449707
 N 0.4695 0.2691 0.6694   -0.449707
 N 0.0305 0.2691 0.1694   -0.449707
 N 0.9695 0.7309 0.1694   -0.449707
 N 0.5305 0.2309 0.1694   -0.449707
 N 0.4695 0.7691 0.1694   -0.449707
 N 0.0999 0.7756 0.7673   0.025177
 N 0.9001 0.2244 0.7673   0.025177
 N 0.5999 0.7244 0.7673   0.025177
 N 0.4001 0.2756 0.7673   0.025177
 N 0.0999 0.2756 0.2673   0.025177
 N 0.9001 0.7244 0.2673   0.025177
 N 0.5999 0.2244 0.2673   0.025177
 N 0.4001 0.7756 0.2673   0.025177
 O 0.6287 0.8187 0.0664   -0.603979
 O 0.3713 0.1813 0.0664   -0.603979
 O 0.1287 0.6813 0.0664   -0.603979
 O 0.8713 0.3187 0.0664   -0.603979
 O 0.6287 0.3187 0.5664   -0.603979
 O 0.3713 0.6813 0.5664   -0.603979
 O 0.1287 0.1813 0.5664   -0.603979
 O 0.8713 0.8187 0.5664   -0.603979
 O 0.5269 0.8951 0.0501   -0.576354
 O 0.4731 0.1049 0.0501   -0.576354
 O 0.0269 0.6049 0.0501   -0.576354
 O 0.9731 0.3951 0.0501   -0.576354
 O 0.5269 0.3951 0.5501   -0.576354
 O 0.4731 0.6049 0.5501   -0.576354
 O 0.0269 0.1049 0.5501   -0.576354
 O 0.9731 0.8951 0.5501   -0.576354
 O 0.3519 0.7652 0.0246   -0.583521
 O 0.6481 0.2348 0.0246   -0.583521
 O 0.8519 0.7348 0.0246   -0.583521
 O 0.1481 0.2652 0.0246   -0.583521
 O 0.3519 0.2652 0.5246   -0.583521
 O 0.6481 0.7348 0.5246   -0.583521
 O 0.8519 0.2348 0.5246   -0.583521
 O 0.1481 0.7652 0.5246   -0.583521
 O 0.4452 0.7837 0.9401   -0.588207
 O 0.5548 0.2163 0.9401   -0.588207
 O 0.9452 0.7163 0.9401   -0.588207
 O 0.0548 0.2837 0.9401   -0.588207
 O 0.4452 0.2837 0.4401   -0.588207
 O 0.5548 0.7163 0.4401   -0.588207
 O 0.9452 0.2163 0.4401   -0.588207
 O 0.0548 0.7837 0.4401   -0.588207
