{'_ref': 'TBD', '_srcid': 'CAKYAQ_clean', 'submitters': [{'name': 'Dalar Nazarian Jeff Camp and David Sholl', 'email': 'dalar@gatech.edu jcamp6@gatech.edu'}], '_method': 'VASP DFT with PBE;DDEC'}
data_Zn3B2H30C40(N2O)8
_symmetry_space_group_name_H-M   'P 1'
_cell_length_a   12.48950025
_cell_length_b   12.48950000
_cell_length_c   18.25400000
_cell_angle_alpha   98.75670229
_cell_angle_beta   98.75670212
_cell_angle_gamma   116.37800050
_symmetry_Int_Tables_number   1
_chemical_formula_structural   Zn3B2H30C40(N2O)8
_chemical_formula_sum   'Zn6 B4 H60 C80 N32 O16'
_cell_volume   2442.22673553
_cell_formula_units_Z   2
loop_
 _symmetry_equiv_pos_site_id
 _symmetry_equiv_pos_as_xyz
  1  'x, y, z'
loop_
 _atom_site_label
 _atom_site_fract_x
 _atom_site_fract_y
 _atom_site_fract_z
 _atom_site_charge
 Zn 0.80218 0.65906 0.04091   0.903368
 Zn 0.34094 0.19782 0.45909   0.903368
 Zn 0.19782 0.34094 0.95909   0.903368
 Zn 0.65906 0.80218 0.54091   0.903368
 Zn 0.24855 0.75145 0.75   0.878003
 Zn 0.75145 0.24855 0.25   0.878003
 B 0.7159 0.0295 0.95   0.452023
 B 0.9705 0.2841 0.55   0.452023
 B 0.2841 0.9705 0.05   0.452023
 B 0.0295 0.7159 0.45   0.452023
 H 0.799 0.969 0.82   0.111768
 H 0.036 0.116 0.831   0.123199
 H 0.954 0.238 0.009   0.087565
 H 0.581 0.705 0.072   0.124626
 H 0.536 0.88 0.039   0.124538
 H 0.838 0.896 0.964   0.090432
 H 0.787 0.067 0.118   0.127738
 H 0.753 0.355 0.11   0.054467
 H 0.708 0.268 0.963   0.15366
 H 0.6625 0.1249 0.8216   0.119499
 H 0.482 0.976 0.726   0.087866
 H 0.513 0.817 0.889   0.074519
 H 0.793 0.535 0.74   0.069396
 H 0.583 0.355 0.87   0.101266
 H 0.735 0.639 0.315   0.101808
 H 0.031 0.201 0.68   0.111768
 H 0.884 0.964 0.669   0.123197
 H 0.762 0.046 0.491   0.087565
 H 0.295 0.419 0.428   0.124626
 H 0.12 0.464 0.461   0.124538
 H 0.104 0.162 0.536   0.090432
 H 0.933 0.213 0.382   0.127738
 H 0.645 0.247 0.39   0.054466
 H 0.732 0.292 0.537   0.15366
 H 0.8751 0.3375 0.6784   0.1195
 H 0.024 0.518 0.774   0.087867
 H 0.183 0.487 0.611   0.074519
 H 0.465 0.207 0.76   0.069395
 H 0.645 0.417 0.63   0.101266
 H 0.361 0.265 0.185   0.101807
 H 0.201 0.031 0.18   0.111768
 H 0.964 0.884 0.169   0.123197
 H 0.046 0.762 0.991   0.087565
 H 0.419 0.295 0.928   0.124627
 H 0.464 0.12 0.961   0.124538
 H 0.162 0.104 0.036   0.090433
 H 0.213 0.933 0.882   0.127736
 H 0.247 0.645 0.89   0.054467
 H 0.292 0.732 0.037   0.153661
 H 0.3375 0.8751 0.1784   0.119499
 H 0.518 0.024 0.274   0.087866
 H 0.487 0.183 0.111   0.074519
 H 0.207 0.465 0.26   0.069396
 H 0.417 0.645 0.13   0.101268
 H 0.265 0.361 0.685   0.101808
 H 0.969 0.799 0.32   0.111768
 H 0.116 0.036 0.331   0.123195
 H 0.238 0.954 0.509   0.087565
 H 0.705 0.581 0.572   0.124627
 H 0.88 0.536 0.539   0.124538
 H 0.896 0.838 0.464   0.090433
 H 0.067 0.787 0.618   0.127736
 H 0.355 0.753 0.61   0.054466
 H 0.268 0.708 0.463   0.15366
 H 0.1249 0.6625 0.3216   0.1195
 H 0.976 0.482 0.226   0.087867
 H 0.817 0.513 0.389   0.074519
 H 0.535 0.793 0.24   0.069396
 H 0.355 0.583 0.37   0.101267
 H 0.639 0.735 0.815   0.101807
 C 0.8581 0.0341 0.8554   -0.038476
 C 0.9737 0.1145 0.8548   0.008709
 C 0.9391 0.1877 0.9604   0.216784
 C 0.6226 0.7612 0.0382   0.054377
 C 0.6045 0.8523 0.0193   -0.160142
 C 0.7637 0.8561 0.9808   0.20506
 C 0.7573 0.1331 0.0923   0.094465
 C 0.756 0.3026 0.087   0.144879
 C 0.7213 0.2361 0.0131   -0.141798
 C 0.6014 0.0478 0.8224   -0.081483
 C 0.4963 0.9781 0.7692   0.079533
 C 0.4973 0.8815 0.8555   0.14963
 C 0.7934 0.5516 0.8908   0.646143
 C 0.7304 0.4746 0.7466   -0.004469
 C 0.7083 0.4553 0.8166   -0.110425
 C 0.6072 0.3518 0.8195   -0.12899
 C 0.7183 0.6133 0.1725   0.640337
 C 0.6289 0.5289 0.2122   -0.111589
 C 0.6514 0.5598 0.2922   -0.091254
 C 0.5213 0.4257 0.1693   0.012116
 C 0.9659 0.1419 0.6446   -0.038476
 C 0.8855 0.0263 0.6452   0.008709
 C 0.8123 0.0609 0.5396   0.216784
 C 0.2388 0.3774 0.4618   0.054377
 C 0.1477 0.3955 0.4807   -0.160142
 C 0.1439 0.2363 0.5192   0.20506
 C 0.8669 0.2427 0.4077   0.094466
 C 0.6974 0.244 0.413   0.144879
 C 0.7639 0.2787 0.4869   -0.141797
 C 0.9522 0.3986 0.6776   -0.081482
 C 0.0219 0.5037 0.7308   0.079531
 C 0.1185 0.5027 0.6445   0.14963
 C 0.4484 0.2066 0.6092   0.646144
 C 0.5254 0.2696 0.7534   -0.004465
 C 0.5447 0.2917 0.6834   -0.110427
 C 0.6482 0.3928 0.6805   -0.128986
 C 0.3867 0.2817 0.3275   0.640337
 C 0.4711 0.3711 0.2878   -0.11159
 C 0.4402 0.3486 0.2078   -0.09125
 C 0.5743 0.4787 0.3307   0.012119
 C 0.1419 0.9659 0.1446   -0.038476
 C 0.0263 0.8855 0.1452   0.00871
 C 0.0609 0.8123 0.0396   0.216784
 C 0.3774 0.2388 0.9618   0.054379
 C 0.3955 0.1477 0.9807   -0.160142
 C 0.2363 0.1439 0.0192   0.20506
 C 0.2427 0.8669 0.9077   0.094466
 C 0.244 0.6974 0.913   0.144879
 C 0.2787 0.7639 0.9869   -0.141798
 C 0.3986 0.9522 0.1776   -0.081483
 C 0.5037 0.0219 0.2308   0.079533
 C 0.5027 0.1185 0.1445   0.14963
 C 0.2066 0.4484 0.1092   0.646143
 C 0.2696 0.5254 0.2534   -0.004469
 C 0.2917 0.5447 0.1834   -0.110425
 C 0.3928 0.6482 0.1805   -0.128991
 C 0.2817 0.3867 0.8275   0.640337
 C 0.3711 0.4711 0.7878   -0.11159
 C 0.3486 0.4402 0.7078   -0.091254
 C 0.4787 0.5743 0.8307   0.012118
 C 0.0341 0.8581 0.3554   -0.038476
 C 0.1145 0.9737 0.3548   0.00871
 C 0.1877 0.9391 0.4604   0.216784
 C 0.7612 0.6226 0.5382   0.054379
 C 0.8523 0.6045 0.5193   -0.160142
 C 0.8561 0.7637 0.4808   0.20506
 C 0.1331 0.7573 0.5923   0.094466
 C 0.3026 0.756 0.587   0.144879
 C 0.2361 0.7213 0.5131   -0.141797
 C 0.0478 0.6014 0.3224   -0.081482
 C 0.9781 0.4963 0.2692   0.079531
 C 0.8815 0.4973 0.3555   0.149629
 C 0.5516 0.7934 0.3908   0.646144
 C 0.4746 0.7304 0.2466   -0.004465
 C 0.4553 0.7083 0.3166   -0.110427
 C 0.3518 0.6072 0.3195   -0.128986
 C 0.6133 0.7183 0.6725   0.640337
 C 0.5289 0.6289 0.7122   -0.111591
 C 0.5598 0.6514 0.7922   -0.09125
 C 0.4257 0.5213 0.6693   0.012121
 N 0.0244 0.212 0.9206   -0.41562
 N 0.8345 0.0811 0.9226   -0.230618
 N 0.7222 0.762 0.0143   -0.383972
 N 0.6954 0.9146 0.9822   -0.186505
 N 0.7734 0.238 0.1372   -0.407415
 N 0.7227 0.1287 0.0167   -0.137128
 N 0.6054 0.9872 0.8792   -0.166473
 N 0.4286 0.872 0.7898   -0.401113
 N 0.788 0.9756 0.5794   -0.41562
 N 0.9189 0.1655 0.5774   -0.230618
 N 0.238 0.2778 0.4857   -0.383972
 N 0.0854 0.3046 0.5178   -0.186505
 N 0.762 0.2266 0.3628   -0.407415
 N 0.8713 0.2773 0.4833   -0.137129
 N 0.0128 0.3946 0.6208   -0.166473
 N 0.128 0.5714 0.7102   -0.401112
 N 0.9756 0.788 0.0794   -0.41562
 N 0.1655 0.9189 0.0774   -0.230618
 N 0.2778 0.238 0.9857   -0.383972
 N 0.3046 0.0854 0.0178   -0.186505
 N 0.2266 0.762 0.8628   -0.407415
 N 0.2773 0.8713 0.9833   -0.137129
 N 0.3946 0.0128 0.1208   -0.166473
 N 0.5714 0.128 0.2102   -0.401113
 N 0.212 0.0244 0.4206   -0.41562
 N 0.0811 0.8345 0.4226   -0.230618
 N 0.762 0.7222 0.5143   -0.383972
 N 0.9146 0.6954 0.4822   -0.186505
 N 0.238 0.7734 0.6372   -0.407415
 N 0.1287 0.7227 0.5167   -0.137129
 N 0.9872 0.6054 0.3792   -0.166473
 N 0.872 0.4286 0.2898   -0.401112
 O 0.8758 0.6504 0.8877   -0.590734
 O 0.7633 0.5259 0.9537   -0.637235
 O 0.7939 0.7207 0.2072   -0.572373
 O 0.7059 0.5621 0.1027   -0.600967
 O 0.3496 0.1242 0.6123   -0.590734
 O 0.4741 0.2367 0.5463   -0.637235
 O 0.2793 0.2061 0.2928   -0.572373
 O 0.4379 0.2941 0.3973   -0.600967
 O 0.1242 0.3496 0.1123   -0.590734
 O 0.2367 0.4741 0.0463   -0.637235
 O 0.2061 0.2793 0.7928   -0.572373
 O 0.2941 0.4379 0.8973   -0.600967
 O 0.6504 0.8758 0.3877   -0.590734
 O 0.5259 0.7633 0.4537   -0.637235
 O 0.7207 0.7939 0.7072   -0.572373
 O 0.5621 0.7059 0.6027   -0.600967
