{'_ref': 'TBD', '_srcid': 'CAKYAQ_clean', 'submitters': [{'name': 'Dalar Nazarian Jeff Camp and David Sholl', 'email': 'dalar@gatech.edu jcamp6@gatech.edu'}], '_method': 'VASP DFT with PBE;DDEC'}
data_AgH20C10SN5O3
_symmetry_space_group_name_H-M   'P 1'
_cell_length_a   6.39020000
_cell_length_b   10.54280026
_cell_length_c   31.16190000
_cell_angle_alpha   90.00000000
_cell_angle_beta   90.00000000
_cell_angle_gamma   93.76999816
_symmetry_Int_Tables_number   1
_chemical_formula_structural   AgH20C10SN5O3
_chemical_formula_sum   'Ag4 H80 C40 S4 N20 O12'
_cell_volume   2094.85294813
_cell_formula_units_Z   4
loop_
 _symmetry_equiv_pos_site_id
 _symmetry_equiv_pos_as_xyz
  1  'x, y, z'
loop_
 _atom_site_label
 _atom_site_fract_x
 _atom_site_fract_y
 _atom_site_fract_z
 _atom_site_charge
 Ag 0.86412 0.58536 0.75167   0.377303
 Ag 0.36412 0.08536 0.74833   0.377303
 Ag 0.63588 0.91464 0.25167   0.377303
 Ag 0.13588 0.41464 0.24833   0.377303
 H 0.203 0.2417 0.8356   0.096179
 H 0.4541 0.2485 0.8378   0.085949
 H 0.1511 0.5696 0.8349   0.104396
 H 0.0219 0.4343 0.8339   0.065448
 H 0.6503 0.4546 0.8388   0.067365
 H 0.527 0.582 0.8374   0.103338
 H 0.0276 0.3018 0.7709   0.063781
 H 0.1598 0.3484 0.7295   0.089292
 H 0.3597 0.5537 0.7304   0.097752
 H 0.3546 0.6425 0.7721   0.077369
 H 0.544 0.36 0.7325   0.099681
 H 0.6589 0.32 0.7756   0.061501
 H 0.703 0.7417 0.6644   0.096179
 H 0.9541 0.7485 0.6622   0.085949
 H 0.6511 0.0696 0.6651   0.104396
 H 0.5219 0.9343 0.6661   0.065448
 H 0.1503 0.9546 0.6612   0.067365
 H 0.027 0.082 0.6626   0.103338
 H 0.5276 0.8018 0.7291   0.063781
 H 0.6598 0.8484 0.7705   0.089292
 H 0.8597 0.0537 0.7696   0.097752
 H 0.8546 0.1425 0.7279   0.077369
 H 0.044 0.86 0.7675   0.099681
 H 0.1589 0.82 0.7244   0.061501
 H 0.297 0.2583 0.3356   0.096179
 H 0.0459 0.2515 0.3378   0.085949
 H 0.3489 0.9304 0.3349   0.104396
 H 0.4781 0.0657 0.3339   0.065448
 H 0.8497 0.0454 0.3388   0.067365
 H 0.973 0.918 0.3374   0.103338
 H 0.4724 0.1982 0.2709   0.063781
 H 0.3402 0.1516 0.2295   0.089292
 H 0.1403 0.9463 0.2304   0.097752
 H 0.1454 0.8575 0.2721   0.077369
 H 0.956 0.14 0.2325   0.099681
 H 0.8411 0.18 0.2756   0.061501
 H 0.797 0.7583 0.1644   0.096179
 H 0.5459 0.7515 0.1622   0.085949
 H 0.8489 0.4304 0.1651   0.104396
 H 0.9781 0.5657 0.1661   0.065448
 H 0.3497 0.5454 0.1612   0.067365
 H 0.473 0.418 0.1626   0.103338
 H 0.9724 0.6982 0.2291   0.063781
 H 0.8402 0.6516 0.2705   0.089292
 H 0.6403 0.4463 0.2696   0.097752
 H 0.6454 0.3575 0.2279   0.077369
 H 0.456 0.64 0.2675   0.099681
 H 0.3411 0.68 0.2244   0.061501
 H 0.9286 0.5449 0.5923   0.146978
 H 0.9297 0.3989 0.5784   0.149135
 H 0.5642 0.3712 0.5868   0.040699
 H 0.5557 0.5113 0.6062   0.071422
 H 0.3266 0.5879 0.5572   0.069
 H 0.2924 0.4456 0.5392   0.03766
 H 0.5862 0.3374 0.5127   0.035261
 H 0.8161 0.4081 0.5125   0.068616
 H 0.0714 0.4551 0.4077   0.146978
 H 0.0703 0.6011 0.4216   0.149135
 H 0.4358 0.6288 0.4132   0.040699
 H 0.4443 0.4887 0.3938   0.071422
 H 0.6734 0.4121 0.4428   0.069
 H 0.7076 0.5544 0.4608   0.03766
 H 0.4138 0.6626 0.4873   0.03526
 H 0.1839 0.5919 0.4875   0.068615
 H 0.5714 0.9551 0.0923   0.146978
 H 0.5703 0.1011 0.0784   0.149135
 H 0.9358 0.1288 0.0868   0.040699
 H 0.9443 0.9887 0.1062   0.071422
 H 0.1734 0.9121 0.0572   0.069
 H 0.2076 0.0544 0.0392   0.03766
 H 0.9138 0.1626 0.0127   0.035261
 H 0.6839 0.0919 0.0125   0.068616
 H 0.4286 0.0449 0.9077   0.146978
 H 0.4297 0.8989 0.9216   0.149135
 H 0.0642 0.8712 0.9132   0.040699
 H 0.0557 0.0113 0.8938   0.071422
 H 0.8266 0.0879 0.9428   0.069
 H 0.7924 0.9456 0.9608   0.03766
 H 0.0862 0.8374 0.9873   0.03526
 H 0.3161 0.9081 0.9875   0.068615
 C 0.3323 0.2899 0.82583   0.114187
 C 0.1521 0.4815 0.82397   0.107619
 C 0.5263 0.4935 0.82675   0.121462
 C 0.1574 0.3499 0.76123   0.083565
 C 0.3535 0.5532 0.76219   0.083178
 C 0.5354 0.3609 0.76418   0.070027
 C 0.8323 0.7899 0.67417   0.114187
 C 0.6521 0.9815 0.67603   0.107619
 C 0.0263 0.9935 0.67325   0.121462
 C 0.6574 0.8499 0.73877   0.083565
 C 0.8535 0.0532 0.73781   0.083177
 C 0.0354 0.8609 0.73582   0.070027
 C 0.1677 0.2101 0.32583   0.114187
 C 0.3479 0.0185 0.32397   0.107619
 C 0.9737 0.0065 0.32675   0.121462
 C 0.3426 0.1501 0.26123   0.083565
 C 0.1465 0.9468 0.26219   0.083178
 C 0.9646 0.1391 0.26418   0.070027
 C 0.6677 0.7101 0.17417   0.114187
 C 0.8479 0.5185 0.17603   0.107619
 C 0.4737 0.5065 0.17325   0.121462
 C 0.8426 0.6501 0.23877   0.083565
 C 0.6465 0.4468 0.23781   0.083177
 C 0.4646 0.6391 0.23582   0.070027
 C 0.8607 0.459 0.59726   -0.449267
 C 0.6284 0.4591 0.58521   0.105257
 C 0.3745 0.5278 0.53541   0.02564
 C 0.6649 0.4208 0.50906   0.02596
 C 0.1393 0.541 0.40274   -0.449266
 C 0.3716 0.5409 0.41479   0.105257
 C 0.6255 0.4722 0.46459   0.02564
 C 0.3351 0.5792 0.49094   0.02596
 C 0.6393 0.041 0.09726   -0.449267
 C 0.8716 0.0409 0.08521   0.105257
 C 0.1255 0.9722 0.03541   0.02564
 C 0.8351 0.0792 0.00906   0.02596
 C 0.3607 0.959 0.90274   -0.449266
 C 0.1284 0.9591 0.91479   0.105257
 C 0.8745 0.0278 0.96459   0.02564
 C 0.1649 0.9208 0.99094   0.02596
 S 0.89875 0.41552 0.65135   1.387634
 S 0.10125 0.58448 0.34865   1.387634
 S 0.60125 0.08448 0.15135   1.387634
 S 0.39875 0.91552 0.84865   1.387634
 N 0.5408 0.4944 0.77936   -0.278609
 N 0.3336 0.4216 0.84158   -0.37191
 N 0.3422 0.2874 0.77795   -0.260602
 N 0.1552 0.4837 0.77625   -0.271963
 N 0.0408 0.9944 0.72064   -0.278609
 N 0.8336 0.9216 0.65842   -0.37191
 N 0.8422 0.7874 0.72205   -0.260602
 N 0.6552 0.9837 0.72375   -0.271963
 N 0.9592 0.0056 0.27936   -0.278609
 N 0.1664 0.0784 0.34158   -0.37191
 N 0.1578 0.2126 0.27795   -0.260602
 N 0.3448 0.0163 0.27625   -0.271963
 N 0.4592 0.5056 0.22064   -0.278609
 N 0.6664 0.5784 0.15842   -0.37191
 N 0.6578 0.7126 0.22205   -0.260602
 N 0.8448 0.5163 0.22375   -0.271963
 N 0.5986 0.5095 0.54206   -0.386594
 N 0.4014 0.4905 0.45794   -0.386594
 N 0.9014 0.9905 0.04206   -0.386594
 N 0.0986 0.0095 0.95794   -0.386594
 O 0.7817 0.5006 0.67774   -0.700541
 O 0.8204 0.2832 0.65615   -0.70602
 O 0.1264 0.4323 0.65814   -0.707149
 O 0.2183 0.4994 0.32226   -0.700541
 O 0.1796 0.7168 0.34385   -0.70602
 O 0.8736 0.5677 0.34186   -0.707149
 O 0.7183 0.9994 0.17774   -0.700541
 O 0.6796 0.2168 0.15615   -0.70602
 O 0.3736 0.0677 0.15814   -0.707149
 O 0.2817 0.000599999999999 0.82226   -0.700541
 O 0.3204 0.7832 0.84385   -0.70602
 O 0.6264 0.9323 0.84186   -0.707149
