{'_ref': 'TBD', '_srcid': 'CAKYAQ_clean', 'submitters': [{'name': 'Dalar Nazarian Jeff Camp and David Sholl', 'email': 'dalar@gatech.edu jcamp6@gatech.edu'}], '_method': 'VASP DFT with PBE;DDEC'}
data_Co3H50(C11O4)6
_symmetry_space_group_name_H-M   'P 1'
_cell_length_a   12.03600004
_cell_length_b   15.30100045
_cell_length_c   16.90600000
_cell_angle_alpha   108.30000114
_cell_angle_beta   101.39399902
_cell_angle_gamma   102.27999896
_symmetry_Int_Tables_number   1
_chemical_formula_structural   Co3H50(C11O4)6
_chemical_formula_sum   'Co3 H50 C66 O24'
_cell_volume   2768.62773174
_cell_formula_units_Z   1
loop_
 _symmetry_equiv_pos_site_id
 _symmetry_equiv_pos_as_xyz
  1  'x, y, z'
loop_
 _atom_site_label
 _atom_site_fract_x
 _atom_site_fract_y
 _atom_site_fract_z
 _atom_site_charge
 Co 0.70292 0.39626 0.9108   1.058988
 Co 0.29708 0.60374 0.0892   1.058988
 Co 0.0 0.5 0.0   0.944472
 H 0.0399 0.1177 0.2714   0.071401
 H 0.0493 0.2136 0.3465   0.06181
 H 0.702 0.1538 0.1796   0.137011
 H 0.6727 0.2335 0.084   0.113603
 H 0.0175 0.3331 0.1311   0.097175
 H 0.0561 0.2471 0.2241   0.145177
 H 0.1374 0.0529 0.3768   0.06769
 H 0.097 0.0618 0.4612   0.050642
 H 0.2959 0.3545 0.555   0.123949
 H 0.4422 0.4173 0.6844   0.116496
 H 0.4057 0.1487 0.6801   0.100054
 H 0.267 0.0871 0.5479   0.109114
 H 0.8489 0.1431 0.4078   0.058703
 H 0.9748 0.2116 0.466   0.055175
 H 0.0831 0.2633 0.6191   0.127967
 H 0.0665 0.3628 0.749   0.103047
 H 0.7293 0.202 0.6907   0.11086
 H 0.7459 0.1025 0.5608   0.139912
 H 0.8272 0.9925 0.293   0.074058
 H 0.9 0.9552 0.3566   0.062266
 H 0.0355 0.8603 0.1388   0.138977
 H 0.9579 0.7052 0.0386   0.098458
 H 0.678 0.6709 0.1344   0.108143
 H 0.7622 0.8267 0.24   0.114959
 H 0.0208 0.3973 0.8866   0.373038
 H 0.9601 0.8823 0.7286   0.071401
 H 0.9507 0.7864 0.6535   0.06181
 H 0.298 0.8462 0.8204   0.137011
 H 0.3273 0.7665 0.916   0.113603
 H 0.9825 0.6669 0.8689   0.097175
 H 0.9439 0.7529 0.7759   0.145177
 H 0.8626 0.9471 0.6232   0.06769
 H 0.903 0.9382 0.5388   0.050642
 H 0.7041 0.6455 0.445   0.123949
 H 0.5578 0.5827 0.3156   0.116497
 H 0.5943 0.8513 0.3199   0.100053
 H 0.733 0.9129 0.4521   0.109115
 H 0.1511 0.8569 0.5922   0.058703
 H 0.0252 0.7884 0.534   0.055175
 H 0.9169 0.7367 0.3809   0.127967
 H 0.9335 0.6372 0.251   0.103047
 H 0.2707 0.798 0.3093   0.110861
 H 0.2541 0.8975 0.4392   0.139913
 H 0.1728 0.0075 0.707   0.074058
 H 0.1 0.0448 0.6434   0.062266
 H 0.9645 0.1397 0.8612   0.138977
 H 0.0421 0.2948 0.9614   0.098458
 H 0.322 0.3291 0.8656   0.108143
 H 0.2378 0.1733 0.76   0.114959
 H 0.9792 0.6027 0.1134   0.373038
 C 0.9825 0.0922 0.37186   -0.062466
 C 0.000599999999999 0.1477 0.31263   0.080554
 C 0.8787 0.1925 0.21175   0.309064
 C 0.7673 0.1888 0.1695   -0.26165
 C 0.7489 0.2361 0.11158   0.015484
 C 0.8461 0.2864 0.09646   -0.191807
 C 0.9538 0.2938 0.13912   0.024458
 C 0.9794 0.2445 0.19774   -0.318218
 C 0.8309 0.3397 0.03692   0.689197
 C 0.1044 0.0908 0.41841   0.082483
 C 0.2634 0.2144 0.53608   0.285794
 C 0.3187 0.3127 0.5801   -0.248627
 C 0.4042 0.3514 0.658   0.001031
 C 0.4319 0.2874 0.69598   -0.175551
 C 0.3826 0.19 0.65444   0.012817
 C 0.2999 0.1534 0.57577   -0.278547
 C 0.5205 0.3288 0.78593   0.630239
 C 0.9271 0.1447 0.438   0.084763
 C 0.9162 0.1731 0.5771   0.295491
 C 0.0122 0.251 0.6335   -0.226689
 C 0.0023 0.3106 0.7113   0.029614
 C 0.8963 0.29228 0.73273   -0.246692
 C 0.8002 0.2143 0.6764   0.036821
 C 0.8102 0.1547 0.5985   -0.239596
 C 0.873 0.35281 0.81351   0.660945
 C 0.9062 0.99221 0.31964   0.083774
 C 0.9057 0.8584 0.19869   0.303294
 C 0.9643 0.8216 0.13852   -0.233758
 C 0.9182 0.72863 0.07872   -0.017834
 C 0.8115 0.6691 0.07802   -0.227479
 C 0.7515 0.708 0.13663   0.051918
 C 0.8006 0.8026 0.19913   -0.265495
 C 0.7646 0.56803 0.01769   0.652987
 C 0.0175 0.9078 0.62814   -0.062466
 C 0.9994 0.8523 0.68737   0.080554
 C 0.1213 0.8075 0.78825   0.309064
 C 0.2327 0.8112 0.8305   -0.26165
 C 0.2511 0.7639 0.88842   0.015484
 C 0.1539 0.7136 0.90354   -0.191807
 C 0.0462 0.7062 0.86088   0.024459
 C 0.0206 0.7555 0.80226   -0.318218
 C 0.1691 0.6603 0.96308   0.689197
 C 0.8956 0.9092 0.58159   0.082483
 C 0.7366 0.7856 0.46392   0.285794
 C 0.6813 0.6873 0.4199   -0.248627
 C 0.5958 0.6486 0.342   0.00103
 C 0.5681 0.7126 0.30402   -0.175551
 C 0.6174 0.81 0.34556   0.012817
 C 0.7001 0.8466 0.42423   -0.278547
 C 0.4795 0.6712 0.21407   0.630239
 C 0.0729 0.8553 0.562   0.084763
 C 0.0838 0.8269 0.4229   0.295492
 C 0.9878 0.749 0.3665   -0.226689
 C 0.9977 0.6894 0.2887   0.029615
 C 0.1037 0.70772 0.26727   -0.246691
 C 0.1998 0.7857 0.3236   0.036821
 C 0.1898 0.8453 0.4015   -0.239596
 C 0.127 0.64719 0.18649   0.660945
 C 0.0938 0.00779 0.68036   0.083774
 C 0.0943 0.1416 0.80131   0.303295
 C 0.0357 0.1784 0.86148   -0.233758
 C 0.0818 0.27137 0.92128   -0.017834
 C 0.1885 0.3309 0.92198   -0.227479
 C 0.2485 0.292 0.86337   0.051918
 C 0.1994 0.1974 0.80087   -0.265494
 C 0.2354 0.43197 0.98231   0.652987
 O 0.88647 0.14593 0.26829   -0.281889
 O 0.92271 0.38109 0.02435   -0.63898
 O 0.72582 0.33869 0.00275   -0.57784
 O 0.18024 0.18665 0.45969   -0.271465
 O 0.57764 0.41341 0.81489   -0.562941
 O 0.53957 0.27287 0.82547   -0.59324
 O 0.91687 0.10726 0.50045   -0.287378
 O 0.77523 0.33067 0.8247   -0.468092
 O 0.96803 0.42212 0.87032   -0.511155
 O 0.95814 0.95045 0.25451   -0.272582
 O 0.82877 0.52912 0.97342   -0.66113
 O 0.66221 0.51911 0.01035   -0.500543
 O 0.11353 0.85407 0.73171   -0.281889
 O 0.07729 0.61891 0.97565   -0.63898
 O 0.27418 0.66131 0.99725   -0.57784
 O 0.81976 0.81335 0.54031   -0.271465
 O 0.42236 0.58659 0.18511   -0.562942
 O 0.46043 0.72713 0.17453   -0.59324
 O 0.08313 0.89274 0.49955   -0.287378
 O 0.22477 0.66933 0.1753   -0.468092
 O 0.03197 0.57788 0.12968   -0.511155
 O 0.04186 0.04955 0.74549   -0.272582
 O 0.17123 0.47088 0.02658   -0.66113
 O 0.33779 0.48089 0.98965   -0.500543
