{'_ref': 'TBD', '_srcid': 'CAKYAQ_clean', 'submitters': [{'name': 'Dalar Nazarian Jeff Camp and David Sholl', 'email': 'dalar@gatech.edu jcamp6@gatech.edu'}], '_method': 'VASP DFT with PBE;DDEC'}
data_Zn2H4C9O7
_symmetry_space_group_name_H-M   'P 1'
_cell_length_a   10.91800000
_cell_length_b   17.12530000
_cell_length_c   17.20920000
_cell_angle_alpha   90.00000000
_cell_angle_beta   90.00000000
_cell_angle_gamma   90.00000000
_symmetry_Int_Tables_number   1
_chemical_formula_structural   Zn2H4C9O7
_chemical_formula_sum   'Zn16 H32 C72 O56'
_cell_volume   3217.67339791
_cell_formula_units_Z   8
loop_
 _symmetry_equiv_pos_site_id
 _symmetry_equiv_pos_as_xyz
  1  'x, y, z'
loop_
 _atom_site_label
 _atom_site_fract_x
 _atom_site_fract_y
 _atom_site_fract_z
 _atom_site_charge
 Zn 0.17638 0.21634 0.49598   1.169249
 Zn 0.55529 0.64785 0.93331   1.140312
 Zn 0.66522 0.59836 0.11031   1.078871
 Zn 0.28626 0.60415 0.00973   1.17612
 Zn 0.32362 0.78366 0.99598   1.169249
 Zn 0.94471 0.35215 0.43331   1.140312
 Zn 0.83478 0.40164 0.61031   1.078871
 Zn 0.21374 0.39585 0.50973   1.17612
 Zn 0.82362 0.71634 0.00402   1.169249
 Zn 0.44471 0.14785 0.56669   1.140312
 Zn 0.33478 0.09836 0.38969   1.078871
 Zn 0.71374 0.10415 0.49027   1.17612
 Zn 0.67638 0.28366 0.50402   1.169249
 Zn 0.05529 0.85215 0.06669   1.140312
 Zn 0.16522 0.90164 0.88969   1.078871
 Zn 0.78626 0.89585 0.99027   1.17612
 H 0.034 0.3194 0.5583   0.414119
 H 0.2592 0.0811 0.5237   0.439635
 H 0.2372 0.4161 0.1643   0.10281
 H 0.2121 0.3221 0.2593   0.122502
 H 0.5591 0.477 0.2559   0.095853
 H 0.2158 0.4336 0.8329   0.110509
 H 0.1947 0.3429 0.7351   0.125371
 H 0.5677 0.4658 0.7716   0.116622
 H 0.466 0.6806 0.0583   0.414119
 H 0.2408 0.9189 0.0237   0.439635
 H 0.2628 0.5839 0.6643   0.10281
 H 0.2879 0.6779 0.7593   0.122502
 H 0.9409 0.523 0.7559   0.095853
 H 0.2842 0.5664 0.3329   0.110509
 H 0.3053 0.6571 0.2351   0.125371
 H 0.9323 0.5342 0.2716   0.116622
 H 0.966 0.8194 0.9417   0.414119
 H 0.7408 0.5811 0.9763   0.439635
 H 0.7628 0.9161 0.3357   0.10281
 H 0.7879 0.8221 0.2407   0.122502
 H 0.4409 0.977 0.2441   0.095853
 H 0.7842 0.9336 0.6671   0.110509
 H 0.8053 0.8429 0.7649   0.125371
 H 0.4323 0.9658 0.7284   0.116622
 H 0.534 0.1806 0.4417   0.414119
 H 0.7592 0.4189 0.4763   0.439634
 H 0.7372 0.0839 0.8357   0.10281
 H 0.7121 0.1779 0.7407   0.122502
 H 0.0591 0.023 0.7441   0.095853
 H 0.7158 0.0664 0.1671   0.110509
 H 0.6947 0.1571 0.2649   0.125371
 H 0.0677 0.0342 0.2284   0.116622
 C 0.4012 0.45589 0.20038   -0.213227
 C 0.2976 0.4092 0.20178   0.001436
 C 0.2828 0.35239 0.25837   -0.116883
 C 0.3749 0.34062 0.31452   -0.032137
 C 0.4785 0.3878 0.31379   -0.142514
 C 0.4899 0.44526 0.25634   0.025524
 C 0.4141 0.51945 0.14082   0.739821
 C 0.3489 0.27618 0.37146   0.731808
 C 0.5771 0.3793 0.3742   0.68474
 C 0.3952 0.45982 0.81159   -0.173152
 C 0.282 0.42174 0.801   -0.001144
 C 0.2701 0.36692 0.74299   -0.103365
 C 0.3685 0.34683 0.69598   -0.054864
 C 0.4818 0.38448 0.70692   -0.145538
 C 0.4931 0.44065 0.76457   0.018496
 C 0.4087 0.52109 0.87316   0.726584
 C 0.3536 0.28296 0.63741   0.724733
 C 0.5901 0.36808 0.65547   0.6973
 C 0.0988 0.54411 0.70038   -0.213227
 C 0.2024 0.5908 0.70178   0.001436
 C 0.2172 0.64761 0.75837   -0.116883
 C 0.1251 0.65938 0.81452   -0.032137
 C 0.0215 0.6122 0.81379   -0.142514
 C 0.0101 0.55474 0.75634   0.025524
 C 0.0859 0.48055 0.64082   0.739821
 C 0.1511 0.72382 0.87146   0.731808
 C 0.9229 0.6207 0.8742   0.68474
 C 0.1048 0.54018 0.31159   -0.173152
 C 0.218 0.57826 0.301   -0.001143
 C 0.2299 0.63308 0.24299   -0.103365
 C 0.1315 0.65317 0.19598   -0.054864
 C 0.0182 0.61552 0.20692   -0.145538
 C 0.0069 0.55935 0.26457   0.018496
 C 0.0913 0.47891 0.37316   0.726584
 C 0.1464 0.71704 0.13741   0.724733
 C 0.9099 0.63192 0.15547   0.6973
 C 0.5988 0.95589 0.29962   -0.213228
 C 0.7024 0.9092 0.29822   0.001436
 C 0.7172 0.85239 0.24163   -0.116883
 C 0.6251 0.84062 0.18548   -0.032137
 C 0.5215 0.8878 0.18621   -0.142514
 C 0.5101 0.94526 0.24366   0.025524
 C 0.5859 0.01945 0.35918   0.739821
 C 0.6511 0.77618 0.12854   0.731808
 C 0.4229 0.8793 0.1258   0.68474
 C 0.6048 0.95982 0.68841   -0.173152
 C 0.718 0.92174 0.699   -0.001144
 C 0.7299 0.86692 0.75701   -0.103365
 C 0.6315 0.84683 0.80402   -0.054864
 C 0.5182 0.88448 0.79308   -0.145538
 C 0.5069 0.94065 0.73543   0.018496
 C 0.5913 0.02109 0.62684   0.726584
 C 0.6464 0.78296 0.86259   0.724733
 C 0.4099 0.86808 0.84453   0.6973
 C 0.9012 0.04411 0.79962   -0.213228
 C 0.7976 0.0908 0.79822   0.001436
 C 0.7828 0.14761 0.74163   -0.116883
 C 0.8749 0.15938 0.68548   -0.032137
 C 0.9785 0.1122 0.68621   -0.142514
 C 0.9899 0.05474 0.74366   0.025524
 C 0.9141 0.98055 0.85918   0.739821
 C 0.8489 0.22382 0.62854   0.731808
 C 0.0771 0.1207 0.6258   0.68474
 C 0.8952 0.04018 0.18841   -0.173152
 C 0.782 0.07826 0.199   -0.001144
 C 0.7701 0.13308 0.25701   -0.103365
 C 0.8685 0.15317 0.30402   -0.054864
 C 0.9818 0.11552 0.29308   -0.145538
 C 0.9931 0.05935 0.23543   0.018496
 C 0.9087 0.97891 0.12684   0.726584
 C 0.8536 0.21704 0.36259   0.724733
 C 0.0901 0.13192 0.34453   0.6973
 O 0.5031 0.56623 0.14688   -0.638287
 O 0.3325 0.52335 0.08961   -0.624627
 O 0.398 0.21106 0.35966   -0.596522
 O 0.27189 0.29089 0.42394   -0.655741
 O 0.6666 0.424 0.3731   -0.616244
 O 0.56151 0.32824 0.42436   -0.627389
 O 0.51011 0.55556 0.87538   -0.607739
 O 0.31927 0.53472 0.91666   -0.644031
 O 0.41363 0.22069 0.65112   -0.587952
 O 0.28022 0.29223 0.58249   -0.648847
 O 0.69418 0.38648 0.682   -0.596891
 O 0.57215 0.3374 0.59055   -0.620386
 O 0.07118 0.31976 0.50648   -0.980553
 O 0.30163 0.1259 0.50059   -1.014381
 O 0.9969 0.43377 0.64688   -0.638287
 O 0.1675 0.47665 0.58961   -0.624627
 O 0.102 0.78894 0.85966   -0.596522
 O 0.22811 0.70911 0.92394   -0.655741
 O 0.8334 0.576 0.8731   -0.616244
 O 0.93849 0.67176 0.92436   -0.627389
 O 0.98989 0.44444 0.37538   -0.607739
 O 0.18073 0.46528 0.41666   -0.644031
 O 0.08637 0.77931 0.15112   -0.587952
 O 0.21978 0.70777 0.08249   -0.648847
 O 0.80582 0.61352 0.182   -0.596891
 O 0.92785 0.6626 0.09055   -0.620386
 O 0.42882 0.68024 0.00648   -0.980553
 O 0.19837 0.8741 0.000590000000002   -1.014381
 O 0.4969 0.06623 0.35312   -0.638287
 O 0.6675 0.02335 0.41039   -0.624627
 O 0.602 0.71106 0.14034   -0.596522
 O 0.72811 0.79089 0.07606   -0.655741
 O 0.3334 0.924 0.1269   -0.616244
 O 0.43849 0.82824 0.07564   -0.627389
 O 0.48989 0.05556 0.62462   -0.607739
 O 0.68073 0.03472 0.58334   -0.644031
 O 0.58637 0.72069 0.84888   -0.587952
 O 0.71978 0.79223 0.91751   -0.648847
 O 0.30582 0.88648 0.818   -0.596891
 O 0.42785 0.8374 0.90945   -0.620386
 O 0.92882 0.81976 0.99352   -0.980553
 O 0.69837 0.6259 0.99941   -1.014381
 O 0.0031 0.93377 0.85312   -0.638287
 O 0.8325 0.97665 0.91039   -0.624627
 O 0.898 0.28894 0.64034   -0.596522
 O 0.77189 0.20911 0.57606   -0.655741
 O 0.1666 0.076 0.6269   -0.616244
 O 0.06151 0.17176 0.57564   -0.627389
 O 0.01011 0.94444 0.12462   -0.607739
 O 0.81927 0.96528 0.08334   -0.644031
 O 0.91363 0.27931 0.34888   -0.587952
 O 0.78022 0.20777 0.41751   -0.648847
 O 0.19418 0.11352 0.318   -0.596891
 O 0.07215 0.1626 0.40945   -0.620386
 O 0.57118 0.18024 0.49352   -0.980553
 O 0.80163 0.3741 0.49941   -1.014381
