{'_ref': 'TBD', '_srcid': 'CAKYAQ_clean', 'submitters': [{'name': 'Dalar Nazarian Jeff Camp and David Sholl', 'email': 'dalar@gatech.edu jcamp6@gatech.edu'}], '_method': 'VASP DFT with PBE;DDEC'}
data_Be2H5C9O8
_symmetry_space_group_name_H-M   'P 1'
_cell_length_a   10.25700000
_cell_length_b   18.90090000
_cell_length_c   18.90090000
_cell_angle_alpha   90.00000000
_cell_angle_beta   90.00000000
_cell_angle_gamma   90.00000000
_symmetry_Int_Tables_number   1
_chemical_formula_structural   Be2H5C9O8
_chemical_formula_sum   'Be16 H40 C72 O64'
_cell_volume   3664.25192145
_cell_formula_units_Z   8
loop_
 _symmetry_equiv_pos_site_id
 _symmetry_equiv_pos_as_xyz
  1  'x, y, z'
loop_
 _atom_site_label
 _atom_site_fract_x
 _atom_site_fract_y
 _atom_site_fract_z
 _atom_site_charge
 Be 0.8688 0.1825 0.9294   1.205952
 Be 0.8688 0.8175 0.0706   1.205952
 Be 0.3688 0.5706 0.6825   1.205952
 Be 0.3688 0.4294 0.3175   1.205952
 Be 0.6312 0.3175 0.4294   1.205952
 Be 0.6312 0.6825 0.5706   1.205952
 Be 0.1312 0.9294 0.1825   1.205952
 Be 0.1312 0.0706 0.8175   1.205952
 Be 0.1312 0.8175 0.0706   1.205953
 Be 0.1312 0.1825 0.9294   1.205953
 Be 0.6312 0.4294 0.3175   1.205953
 Be 0.6312 0.5706 0.6825   1.205953
 Be 0.3688 0.6825 0.5706   1.205953
 Be 0.3688 0.3175 0.4294   1.205953
 Be 0.8688 0.0706 0.8175   1.205953
 Be 0.8688 0.9294 0.1825   1.205953
 H 0.6945 0.31 0.1474   0.109059
 H 0.6945 0.69 0.8526   0.109059
 H 0.1945 0.3526 0.81   0.109059
 H 0.1945 0.6474 0.19   0.109059
 H 0.8055 0.19 0.6474   0.109059
 H 0.8055 0.81 0.3526   0.109059
 H 0.3055 0.1474 0.31   0.109059
 H 0.3055 0.8526 0.69   0.109059
 H 0.3055 0.69 0.8526   0.109059
 H 0.3055 0.31 0.1474   0.109059
 H 0.8055 0.6474 0.19   0.109059
 H 0.8055 0.3526 0.81   0.109059
 H 0.1945 0.81 0.3526   0.109059
 H 0.1945 0.19 0.6474   0.109059
 H 0.6945 0.8526 0.69   0.109059
 H 0.6945 0.1474 0.31   0.109059
 H 0.0 0.1529 0.0174   0.484079
 H 0.0 0.8471 0.9826   0.484079
 H 0.5 0.4826 0.6529   0.484079
 H 0.5 0.5174 0.3471   0.484079
 H 0.5 0.3471 0.5174   0.48408
 H 0.5 0.6529 0.4826   0.48408
 H 0.0 0.0174 0.1529   0.48408
 H 0.0 0.9826 0.8471   0.48408
 H 0.7502 0.0985 0.9015   0.448921
 H 0.7502 0.9015 0.0985   0.448921
 H 0.2502 0.5985 0.5985   0.448921
 H 0.2502 0.4015 0.4015   0.448921
 H 0.7498 0.4015 0.4015   0.44892
 H 0.7498 0.5985 0.5985   0.44892
 H 0.2498 0.9015 0.0985   0.44892
 H 0.2498 0.0985 0.9015   0.44892
 H 0.5 0.2132 0.9928   0.105886
 H 0.5 0.7868 0.0072   0.105886
 H 0.0 0.5072 0.7132   0.105886
 H 0.0 0.4928 0.2868   0.105886
 H 0.0 0.2868 0.4928   0.105886
 H 0.0 0.7132 0.5072   0.105886
 H 0.5 0.9928 0.2132   0.105886
 H 0.5 0.0072 0.7868   0.105886
 C 0.7448 0.2403 0.0319   0.678154
 C 0.6181 0.2572 0.0659   -0.181286
 C 0.616 0.2961 0.1271   0.046668
 C 0.7448 0.7597 0.9681   0.678154
 C 0.6181 0.7428 0.9341   -0.181286
 C 0.616 0.7039 0.8729   0.046668
 C 0.2448 0.4681 0.7403   0.678154
 C 0.1181 0.4341 0.7572   -0.181286
 C 0.116 0.3729 0.7961   0.046668
 C 0.2448 0.5319 0.2597   0.678154
 C 0.1181 0.5659 0.2428   -0.181286
 C 0.116 0.6271 0.2039   0.046668
 C 0.7552 0.2597 0.5319   0.678154
 C 0.8819 0.2428 0.5659   -0.181286
 C 0.884 0.2039 0.6271   0.046668
 C 0.7552 0.7403 0.4681   0.678154
 C 0.8819 0.7572 0.4341   -0.181286
 C 0.884 0.7961 0.3729   0.046668
 C 0.2552 0.0319 0.2403   0.678154
 C 0.3819 0.0659 0.2572   -0.181286
 C 0.384 0.1271 0.2961   0.046668
 C 0.2552 0.9681 0.7597   0.678154
 C 0.3819 0.9341 0.7428   -0.181286
 C 0.384 0.8729 0.7039   0.046668
 C 0.2552 0.7597 0.9681   0.678154
 C 0.3819 0.7428 0.9341   -0.181286
 C 0.384 0.7039 0.8729   0.046667
 C 0.2552 0.2403 0.0319   0.678154
 C 0.3819 0.2572 0.0659   -0.181286
 C 0.384 0.2961 0.1271   0.046667
 C 0.7552 0.5319 0.2597   0.678154
 C 0.8819 0.5659 0.2428   -0.181286
 C 0.884 0.6271 0.2039   0.046667
 C 0.7552 0.4681 0.7403   0.678154
 C 0.8819 0.4341 0.7572   -0.181286
 C 0.884 0.3729 0.7961   0.046667
 C 0.2448 0.7403 0.4681   0.678154
 C 0.1181 0.7572 0.4341   -0.181286
 C 0.116 0.7961 0.3729   0.046667
 C 0.2448 0.2597 0.5319   0.678154
 C 0.1181 0.2428 0.5659   -0.181286
 C 0.116 0.2039 0.6271   0.046667
 C 0.7448 0.9681 0.7597   0.678154
 C 0.6181 0.9341 0.7428   -0.181286
 C 0.616 0.8729 0.7039   0.046667
 C 0.7448 0.0319 0.2403   0.678154
 C 0.6181 0.0659 0.2572   -0.181286
 C 0.616 0.1271 0.2961   0.046667
 C 0.5 0.3572 0.2243   0.717482
 C 0.5 0.3151 0.1593   -0.181505
 C 0.5 0.2386 0.035   0.053075
 C 0.5 0.6428 0.7757   0.717482
 C 0.5 0.6849 0.8407   -0.181505
 C 0.5 0.7614 0.965   0.053075
 C 0.0 0.2757 0.8572   0.717482
 C 0.0 0.3407 0.8151   -0.181505
 C 0.0 0.465 0.7386   0.053075
 C 0.0 0.7243 0.1428   0.717482
 C 0.0 0.6593 0.1849   -0.181505
 C 0.0 0.535 0.2614   0.053075
 C 0.0 0.1428 0.7243   0.717482
 C 0.0 0.1849 0.6593   -0.181505
 C 0.0 0.2614 0.535   0.053075
 C 0.0 0.8572 0.2757   0.717482
 C 0.0 0.8151 0.3407   -0.181505
 C 0.0 0.7386 0.465   0.053075
 C 0.5 0.2243 0.3572   0.717482
 C 0.5 0.1593 0.3151   -0.181505
 C 0.5 0.035 0.2386   0.053075
 C 0.5 0.7757 0.6428   0.717482
 C 0.5 0.8407 0.6849   -0.181505
 C 0.5 0.965 0.7614   0.053075
 O 0.7418 0.20023 0.97712   -0.655586
 O 0.8451 0.2623 0.0576   -0.363587
 O 0.6098 0.37435 0.25182   -0.624057
 O 0.7418 0.79977 0.02288   -0.655586
 O 0.8451 0.7377 0.9424   -0.363587
 O 0.6098 0.62565 0.74818   -0.624057
 O 0.2418 0.52288 0.70023   -0.655586
 O 0.3451 0.4424 0.7623   -0.363587
 O 0.1098 0.24818 0.87435   -0.624057
 O 0.2418 0.47712 0.29977   -0.655586
 O 0.3451 0.5576 0.2377   -0.363587
 O 0.1098 0.75182 0.12565   -0.624057
 O 0.7582 0.29977 0.47712   -0.655586
 O 0.6549 0.2377 0.5576   -0.363587
 O 0.8902 0.12565 0.75182   -0.624057
 O 0.7582 0.70023 0.52288   -0.655586
 O 0.6549 0.7623 0.4424   -0.363587
 O 0.8902 0.87435 0.24818   -0.624057
 O 0.2582 0.97712 0.20023   -0.655586
 O 0.1549 0.0576 0.2623   -0.363587
 O 0.3902 0.25182 0.37435   -0.624057
 O 0.2582 0.02288 0.79977   -0.655586
 O 0.1549 0.9424 0.7377   -0.363587
 O 0.3902 0.74818 0.62565   -0.624057
 O 0.2582 0.79977 0.02288   -0.655587
 O 0.1549 0.7377 0.9424   -0.363587
 O 0.3902 0.62565 0.74818   -0.624057
 O 0.2582 0.20023 0.97712   -0.655587
 O 0.1549 0.2623 0.0576   -0.363587
 O 0.3902 0.37435 0.25182   -0.624057
 O 0.7582 0.47712 0.29977   -0.655587
 O 0.6549 0.5576 0.2377   -0.363587
 O 0.8902 0.75182 0.12565   -0.624057
 O 0.7582 0.52288 0.70023   -0.655587
 O 0.6549 0.4424 0.7623   -0.363587
 O 0.8902 0.24818 0.87435   -0.624057
 O 0.2418 0.70023 0.52288   -0.655587
 O 0.3451 0.7623 0.4424   -0.363587
 O 0.1098 0.87435 0.24818   -0.624057
 O 0.2418 0.29977 0.47712   -0.655587
 O 0.3451 0.2377 0.5576   -0.363587
 O 0.1098 0.12565 0.75182   -0.624057
 O 0.7418 0.02288 0.79977   -0.655587
 O 0.8451 0.9424 0.7377   -0.363587
 O 0.6098 0.74818 0.62565   -0.624057
 O 0.7418 0.97712 0.20023   -0.655587
 O 0.8451 0.0576 0.2623   -0.363587
 O 0.6098 0.25182 0.37435   -0.624057
 O 0.0 0.1686 0.97075   -1.05775
 O 0.0 0.8314 0.02925   -1.05775
 O 0.5 0.52925 0.6686   -1.05775
 O 0.5 0.47075 0.3314   -1.05775
 O 0.5 0.3314 0.47075   -1.057751
 O 0.5 0.6686 0.52925   -1.057751
 O 0.0 0.97075 0.1686   -1.057751
 O 0.0 0.02925 0.8314   -1.057751
 O 0.8274 0.11675 0.88325   -1.000822
 O 0.8274 0.88325 0.11675   -1.000822
 O 0.3274 0.61675 0.61675   -1.000822
 O 0.3274 0.38325 0.38325   -1.000822
 O 0.6726 0.38325 0.38325   -1.000821
 O 0.6726 0.61675 0.61675   -1.000821
 O 0.1726 0.88325 0.11675   -1.000821
 O 0.1726 0.11675 0.88325   -1.000821
