{'_ref': 'TBD', '_srcid': 'CAKYAQ_clean', 'submitters': [{'name': 'Dalar Nazarian Jeff Camp and David Sholl', 'email': 'dalar@gatech.edu jcamp6@gatech.edu'}], '_method': 'VASP DFT with PBE;DDEC'}
data_Nd2Cu3H54C36(NO4)6
_symmetry_space_group_name_H-M   'P 1'
_cell_length_a   7.38170000
_cell_length_b   13.63190026
_cell_length_c   13.63190000
_cell_angle_alpha   119.99999937
_cell_angle_beta   90.00000000
_cell_angle_gamma   90.00000000
_symmetry_Int_Tables_number   1
_chemical_formula_structural   Nd2Cu3H54C36(NO4)6
_chemical_formula_sum   'Nd2 Cu3 H54 C36 N6 O24'
_cell_volume   1187.95452691
_cell_formula_units_Z   1
loop_
 _symmetry_equiv_pos_site_id
 _symmetry_equiv_pos_as_xyz
  1  'x, y, z'
loop_
 _atom_site_label
 _atom_site_fract_x
 _atom_site_fract_y
 _atom_site_fract_z
 _atom_site_charge
 Nd 0.33992 0.33333 0.66666   2.304505
 Nd 0.66008 0.66667 0.33334   2.304505
 Cu 0.0 0.5 0.5   0.842745
 Cu 0.0 0.0 0.5   0.842749
 Cu 0.0 0.5 0.0   0.842757
 H 0.8602 0.3543 0.3252   0.268266
 H 0.9521 0.2044 0.3492   0.076505
 H 0.7666 0.2695 0.4517   0.081202
 H 0.6424 0.2144 0.2805   0.108881
 H 0.5397 0.3303 0.3309   0.126646
 H 0.4951 0.2462 0.3745   0.12193
 H 0.9974 0.2097 0.2082   0.132355
 H 0.0946 0.1283 0.2415   0.119029
 H 0.1995 0.2318 0.249   0.104781
 H 0.8602 0.9709 0.6457   0.268266
 H 0.9521 0.1448 0.7956   0.076506
 H 0.7666 0.1822 0.7305   0.081206
 H 0.6424 0.0661 0.7856   0.10888
 H 0.5397 0.000599999999999 0.6697   0.126642
 H 0.4951 0.1283 0.7538   0.121934
 H 0.9974 0.9985 0.7903   0.132352
 H 0.0946 0.1132 0.8717   0.11903
 H 0.1995 0.0172 0.7682   0.104779
 H 0.8602 0.6748 0.0291   0.268265
 H 0.9521 0.6508 0.8552   0.076501
 H 0.7666 0.5483 0.8178   0.0812
 H 0.6424 0.7195 0.9339   0.108876
 H 0.5397 0.6691 0.9994   0.126646
 H 0.4951 0.6255 0.8717   0.121934
 H 0.9974 0.7918 0.0015   0.132351
 H 0.0946 0.7585 0.8868   0.119026
 H 0.1995 0.751 0.9828   0.104779
 H 0.1398 0.6457 0.6748   0.268265
 H 0.0479 0.7956 0.6508   0.076504
 H 0.2334 0.7305 0.5483   0.081202
 H 0.3576 0.7856 0.7195   0.108885
 H 0.4603 0.6697 0.6691   0.126648
 H 0.5049 0.7538 0.6255   0.121931
 H 0.0026 0.7903 0.7918   0.132351
 H 0.9054 0.8717 0.7585   0.119026
 H 0.8005 0.7682 0.751   0.104781
 H 0.1398 0.0291 0.3543   0.268265
 H 0.0479 0.8552 0.2044   0.076505
 H 0.2334 0.8178 0.2695   0.081206
 H 0.3576 0.9339 0.2144   0.108883
 H 0.4603 0.9994 0.3303   0.126643
 H 0.5049 0.8717 0.2462   0.121936
 H 0.0026 0.0015 0.2097   0.132348
 H 0.9054 0.8868 0.1283   0.119027
 H 0.8005 0.9828 0.2318   0.10478
 H 0.1398 0.3252 0.9709   0.268264
 H 0.0479 0.3492 0.1448   0.0765
 H 0.2334 0.4517 0.1822   0.0812
 H 0.3576 0.2805 0.0661   0.10888
 H 0.4603 0.3309 0.000599999999999   0.126648
 H 0.5049 0.3745 0.1283   0.121935
 H 0.0026 0.2082 0.9985   0.132347
 H 0.9054 0.2415 0.1132   0.119024
 H 0.8005 0.249 0.0172   0.104779
 C 0.1383 0.2757 0.4552   0.62151
 C 0.0353 0.2617 0.3519   0.095824
 C 0.73 0.3294 0.436   0.026899
 C 0.6843 0.4285 0.5515   0.717024
 C 0.5895 0.2753 0.3477   -0.340293
 C 0.084 0.2054 0.2585   -0.369432
 C 0.1383 0.1795 0.7243   0.621511
 C 0.0353 0.0902 0.7383   0.095823
 C 0.73 0.1066 0.6706   0.026901
 C 0.6843 0.123 0.5715   0.717028
 C 0.5895 0.0724 0.7247   -0.340291
 C 0.084 0.0531 0.7946   -0.369431
 C 0.1383 0.5448 0.8205   0.621514
 C 0.0353 0.6481 0.9098   0.095825
 C 0.73 0.564 0.8934   0.026905
 C 0.6843 0.4485 0.877   0.717023
 C 0.5895 0.6523 0.9276   -0.340294
 C 0.084 0.7415 0.9469   -0.369428
 C 0.8617 0.7243 0.5448   0.62151
 C 0.9647 0.7383 0.6481   0.095823
 C 0.27 0.6706 0.564   0.026899
 C 0.3157 0.5715 0.4485   0.717024
 C 0.4105 0.7247 0.6523   -0.340296
 C 0.916 0.7946 0.7415   -0.36943
 C 0.8617 0.8205 0.2757   0.621511
 C 0.9647 0.9098 0.2617   0.095823
 C 0.27 0.8934 0.3294   0.026902
 C 0.3157 0.877 0.4285   0.717028
 C 0.4105 0.9276 0.2753   -0.340294
 C 0.916 0.9469 0.2054   -0.369429
 C 0.8617 0.4552 0.1795   0.621514
 C 0.9647 0.3519 0.0902   0.095825
 C 0.27 0.436 0.1066   0.026906
 C 0.3157 0.5515 0.123   0.717023
 C 0.4105 0.3477 0.0724   -0.340296
 C 0.916 0.2585 0.0531   -0.369426
 N 0.894 0.35026 0.38732   -0.425843
 N 0.894 0.03706 0.64974   -0.42585
 N 0.894 0.61268 0.96294   -0.425845
 N 0.106 0.64974 0.61268   -0.425843
 N 0.106 0.96294 0.35026   -0.425849
 N 0.106 0.38732 0.03706   -0.425845
 O 0.2428 0.19966 0.44439   -0.635133
 O 0.1211 0.36586 0.54767   -0.725753
 O 0.7873 0.51428 0.59293   -0.566004
 O 0.5496 0.4196 0.6007   -0.727923
 O 0.2428 0.24473 0.80034   -0.635124
 O 0.1211 0.18181 0.63414   -0.725761
 O 0.7873 0.07865 0.48572   -0.566008
 O 0.5496 0.1811 0.5804   -0.727934
 O 0.2428 0.55561 0.75527   -0.635139
 O 0.1211 0.45233 0.81819   -0.725755
 O 0.7873 0.40707 0.92135   -0.56601
 O 0.5496 0.3993 0.8189   -0.727933
 O 0.7572 0.80034 0.55561   -0.635133
 O 0.8789 0.63414 0.45233   -0.725753
 O 0.2127 0.48572 0.40707   -0.566004
 O 0.4504 0.5804 0.3993   -0.727923
 O 0.7572 0.75527 0.19966   -0.635124
 O 0.8789 0.81819 0.36586   -0.725761
 O 0.2127 0.92135 0.51428   -0.566008
 O 0.4504 0.8189 0.4196   -0.727934
 O 0.7572 0.44439 0.24473   -0.635139
 O 0.8789 0.54767 0.18181   -0.725755
 O 0.2127 0.59293 0.07865   -0.56601
 O 0.4504 0.6007 0.1811   -0.727932
