{'_ref': 'TBD', '_srcid': 'CAKYAQ_clean', 'submitters': [{'name': 'Dalar Nazarian Jeff Camp and David Sholl', 'email': 'dalar@gatech.edu jcamp6@gatech.edu'}], '_method': 'VASP DFT with PBE;DDEC'}
data_Pr2Cu2H5(C5O4)5
_symmetry_space_group_name_H-M   'P 1'
_cell_length_a   10.90600000
_cell_length_b   19.76899967
_cell_length_c   20.21200000
_cell_angle_alpha   90.00000000
_cell_angle_beta   90.00000000
_cell_angle_gamma   99.22000039
_symmetry_Int_Tables_number   1
_chemical_formula_structural   Pr2Cu2H5(C5O4)5
_chemical_formula_sum   'Pr8 Cu8 H20 C100 O80'
_cell_volume   4301.42151672
_cell_formula_units_Z   4
loop_
 _symmetry_equiv_pos_site_id
 _symmetry_equiv_pos_as_xyz
  1  'x, y, z'
loop_
 _atom_site_label
 _atom_site_fract_x
 _atom_site_fract_y
 _atom_site_fract_z
 _atom_site_charge
 Pr 0.4676 0.65494 0.87369   1.684813
 Pr 0.66696 0.4172 0.62394   1.515768
 Pr 0.0324 0.84506 0.37369   1.684813
 Pr 0.83304 0.0828 0.12394   1.515768
 Pr 0.5324 0.34506 0.12631   1.684501
 Pr 0.33304 0.5828 0.37606   1.515955
 Pr 0.9676 0.15494 0.62631   1.684501
 Pr 0.16696 0.9172 0.87606   1.515955
 Cu 0.42798 0.66828 0.67265   0.901744
 Cu 0.71154 0.41093 0.82535   1.371206
 Cu 0.07202 0.83172 0.17265   0.901744
 Cu 0.78846 0.08907 0.32535   1.371206
 Cu 0.57202 0.33172 0.32735   0.901724
 Cu 0.28846 0.58907 0.17465   1.371214
 Cu 0.92798 0.16828 0.82735   0.901724
 Cu 0.21154 0.91093 0.67465   1.371214
 H 0.2383 0.3235 0.6806   0.128487
 H 0.136 0.5048 0.8039   0.12045
 H 0.0826 0.4343 0.0782   0.118923
 H 0.9008 0.7529 0.8119   0.153769
 H 0.9933 0.5728 0.6845   0.154683
 H 0.2617 0.1765 0.1806   0.128487
 H 0.364 0.9952 0.3039   0.12045
 H 0.4174 0.0657 0.5782   0.118923
 H 0.5992 0.7471 0.3119   0.153769
 H 0.5067 0.9272 0.1845   0.154683
 H 0.7617 0.6765 0.3194   0.128279
 H 0.864 0.4952 0.1961   0.120459
 H 0.9174 0.5657 0.9218   0.11925
 H 0.0992 0.2471 0.1881   0.153562
 H 0.0067 0.4272 0.3155   0.154682
 H 0.7383 0.8235 0.8194   0.128279
 H 0.636 0.0048 0.6961   0.120459
 H 0.5826 0.9343 0.4218   0.11925
 H 0.4008 0.2529 0.6881   0.153562
 H 0.4933 0.0728 0.8155   0.154682
 C 0.2618 0.4785 0.739   -0.083535
 C 0.2938 0.4236 0.7028   -0.084101
 C 0.2196 0.3593 0.7065   -0.052763
 C 0.1179 0.3486 0.7488   -0.188336
 C 0.0859 0.4031 0.7856   0.005985
 C 0.1577 0.4682 0.7801   -0.136021
 C 0.3321 0.55 0.7317   0.670102
 C 0.416 0.4284 0.6671   0.665981
 C 0.0515 0.2773 0.7588   0.672608
 C 0.9701 0.3941 0.8278   0.293766
 C 0.1264 0.5129 0.0139   -0.067287
 C 0.0776 0.5522 0.966   -0.167037
 C 0.049 0.4607 0.047   -0.004894
 C 0.2617 0.5249 0.032   0.620056
 C 0.1598 0.6058 0.9259   0.574734
 C 0.0506 0.6735 0.7057   -0.070755
 C 0.0208 0.7282 0.743   -0.143957
 C 0.9184 0.717 0.7857   0.036874
 C 0.8429 0.6538 0.7897   -0.071745
 C 0.8727 0.5992 0.7516   -0.111564
 C 0.9748 0.6091 0.7099   -0.061972
 C 0.0904 0.7993 0.7348   0.639895
 C 0.7232 0.6463 0.8284   0.653268
 C 0.8043 0.5272 0.7584   0.722216
 C 0.1682 0.6769 0.6648   0.451878
 C 0.2382 0.0215 0.239   -0.083535
 C 0.2062 0.0764 0.2028   -0.084101
 C 0.2804 0.1407 0.2065   -0.052763
 C 0.3821 0.1514 0.2488   -0.188336
 C 0.4141 0.0969 0.2856   0.005985
 C 0.3423 0.0318 0.2801   -0.136021
 C 0.1679 0.95 0.2317   0.670102
 C 0.084 0.0716 0.1671   0.665981
 C 0.4485 0.2227 0.2588   0.672608
 C 0.5299 0.1059 0.3278   0.293766
 C 0.3736 0.9871 0.5139   -0.067287
 C 0.4224 0.9478 0.466   -0.167037
 C 0.451 0.0393 0.547   -0.004894
 C 0.2383 0.9751 0.532   0.620057
 C 0.3402 0.8942 0.4259   0.574734
 C 0.4494 0.8265 0.2057   -0.070755
 C 0.4792 0.7718 0.243   -0.143957
 C 0.5816 0.783 0.2857   0.036874
 C 0.6571 0.8462 0.2897   -0.071745
 C 0.6273 0.9008 0.2516   -0.111564
 C 0.5252 0.8909 0.2099   -0.061972
 C 0.4096 0.7007 0.2348   0.639897
 C 0.7768 0.8537 0.3284   0.653268
 C 0.6957 0.9728 0.2584   0.722216
 C 0.3318 0.8231 0.1648   0.451878
 C 0.7382 0.5215 0.261   -0.083529
 C 0.7062 0.5764 0.2972   -0.084138
 C 0.7804 0.6407 0.2935   -0.052669
 C 0.8821 0.6514 0.2512   -0.188342
 C 0.9141 0.5969 0.2144   0.005992
 C 0.8423 0.5318 0.2199   -0.136028
 C 0.6679 0.45 0.2683   0.670096
 C 0.584 0.5716 0.3329   0.665995
 C 0.9485 0.7227 0.2412   0.672742
 C 0.0299 0.6059 0.1722   0.293788
 C 0.8736 0.4871 0.9861   -0.066066
 C 0.9224 0.4478 0.034   -0.169975
 C 0.951 0.5393 0.953   -0.007899
 C 0.7383 0.4751 0.968   0.619913
 C 0.8402 0.3942 0.0741   0.57512
 C 0.9494 0.3265 0.2943   -0.070759
 C 0.9792 0.2718 0.257   -0.143935
 C 0.0816 0.283 0.2143   0.036958
 C 0.1571 0.3462 0.2103   -0.071761
 C 0.1273 0.4008 0.2484   -0.111562
 C 0.0252 0.3909 0.2901   -0.061972
 C 0.9096 0.2007 0.2652   0.639951
 C 0.2768 0.3537 0.1716   0.653273
 C 0.1957 0.4728 0.2416   0.722233
 C 0.8318 0.3231 0.3352   0.451924
 C 0.7618 0.9785 0.761   -0.083529
 C 0.7938 0.9236 0.7972   -0.084138
 C 0.7196 0.8593 0.7935   -0.052669
 C 0.6179 0.8486 0.7512   -0.188342
 C 0.5859 0.9031 0.7144   0.005992
 C 0.6577 0.9682 0.7199   -0.136028
 C 0.8321 0.05 0.7683   0.670096
 C 0.916 0.9284 0.8329   0.665995
 C 0.5515 0.7773 0.7412   0.672742
 C 0.4701 0.8941 0.6722   0.293788
 C 0.6264 0.0129 0.4861   -0.066067
 C 0.5776 0.0522 0.534   -0.169975
 C 0.549 0.9607 0.453   -0.0079
 C 0.7617 0.0249 0.468   0.619915
 C 0.6598 0.1058 0.5741   0.57512
 C 0.5506 0.1735 0.7943   -0.070759
 C 0.5208 0.2282 0.757   -0.143936
 C 0.4184 0.217 0.7143   0.036958
 C 0.3429 0.1538 0.7103   -0.071761
 C 0.3727 0.0992 0.7484   -0.111562
 C 0.4748 0.1091 0.7901   -0.061972
 C 0.5904 0.2993 0.7652   0.639953
 C 0.2232 0.1463 0.6716   0.653273
 C 0.3043 0.0272 0.7416   0.722233
 C 0.6682 0.1769 0.8352   0.451924
 O 0.3664 0.58411 0.78272   -0.64301
 O 0.3465 0.57271 0.67311   -0.507183
 O 0.5088 0.46642 0.69207   -0.704735
 O 0.4263 0.3921 0.61708   -0.717332
 O 0.0445 0.23568 0.71191   -0.728205
 O 0.0091 0.26273 0.81599   -0.527542
 O 0.869 0.38559 0.79349   -0.643963
 O 0.9761 0.3979 0.88818   -0.009972
 O 0.3065 0.57587 0.06637   -0.592658
 O 0.3239 0.47975 0.01214   -0.266976
 O 0.2754 0.60354 0.92554   -0.687109
 O 0.1088 0.6484 0.8942   -0.315917
 O 0.2685 0.69679 0.69662   -0.431462
 O 0.1612 0.6564 0.607   -0.22923
 O 0.1324 0.81545 0.67725   -0.557467
 O 0.0988 0.83972 0.7831   -0.703138
 O 0.7149 0.6788 0.88107   -0.650282
 O 0.6292 0.60929 0.8026   -0.648257
 O 0.7758 0.49243 0.70695   -0.710854
 O 0.7871 0.5059 0.81714   -0.634822
 O 0.1336 0.91589 0.28272   -0.64301
 O 0.1535 0.92729 0.17311   -0.507183
 O 0.9912 0.03358 0.19207   -0.704735
 O 0.0737 0.1079 0.11708   -0.717332
 O 0.4555 0.26432 0.21191   -0.728205
 O 0.4909 0.23727 0.31599   -0.527542
 O 0.631 0.11441 0.29349   -0.643964
 O 0.5239 0.1021 0.38818   -0.009972
 O 0.1935 0.92413 0.56637   -0.592674
 O 0.1761 0.02025 0.51214   -0.266977
 O 0.2246 0.89646 0.42554   -0.687109
 O 0.3912 0.8516 0.3942   -0.315917
 O 0.2315 0.80321 0.19662   -0.431461
 O 0.3388 0.8436 0.107   -0.22923
 O 0.3676 0.68455 0.17725   -0.557483
 O 0.4012 0.66028 0.2831   -0.703138
 O 0.7851 0.8212 0.38107   -0.650282
 O 0.8708 0.89071 0.3026   -0.648257
 O 0.7242 0.00757 0.20695   -0.710854
 O 0.7129 0.9941 0.31714   -0.634821
 O 0.6336 0.41589 0.21728   -0.642986
 O 0.6535 0.42729 0.32689   -0.507172
 O 0.4912 0.53358 0.30793   -0.704882
 O 0.5737 0.6079 0.38292   -0.717342
 O 0.9555 0.76432 0.28809   -0.728481
 O 0.9909 0.73727 0.18401   -0.527862
 O 0.131 0.61441 0.20651   -0.644238
 O 0.0239 0.6021 0.11182   -0.010005
 O 0.6935 0.42413 0.93363   -0.592668
 O 0.6761 0.52025 0.98786   -0.266813
 O 0.7246 0.39646 0.07446   -0.687123
 O 0.8912 0.3516 0.1058   -0.315978
 O 0.7315 0.30321 0.30338   -0.431842
 O 0.8388 0.3436 0.393   -0.229234
 O 0.8676 0.18455 0.32275   -0.557668
 O 0.9012 0.16028 0.2169   -0.703286
 O 0.2851 0.3212 0.11893   -0.650337
 O 0.3708 0.39071 0.1974   -0.648442
 O 0.2242 0.50757 0.29305   -0.710857
 O 0.2129 0.4941 0.18286   -0.634856
 O 0.8664 0.08411 0.71728   -0.642986
 O 0.8465 0.07271 0.82689   -0.507172
 O 0.0088 0.96642 0.80793   -0.704882
 O 0.9263 0.8921 0.88292   -0.717342
 O 0.5445 0.73568 0.78809   -0.728481
 O 0.5091 0.76273 0.68401   -0.527862
 O 0.369 0.88559 0.70651   -0.644239
 O 0.4761 0.8979 0.61182   -0.010005
 O 0.8065 0.07587 0.43363   -0.592683
 O 0.8239 0.97975 0.48786   -0.266813
 O 0.7754 0.10354 0.57446   -0.687123
 O 0.6088 0.1484 0.6058   -0.315978
 O 0.7685 0.19679 0.80338   -0.431842
 O 0.6612 0.1564 0.893   -0.229234
 O 0.6324 0.31545 0.82275   -0.557683
 O 0.5988 0.33972 0.7169   -0.703286
 O 0.2149 0.1788 0.61893   -0.650337
 O 0.1292 0.10929 0.6974   -0.648442
 O 0.2758 0.99243 0.79305   -0.710857
 O 0.2871 0.0059 0.68286   -0.634856
