{'_ref': 'TBD', '_srcid': 'CAKYAQ_clean', 'submitters': [{'name': 'Dalar Nazarian Jeff Camp and David Sholl', 'email': 'dalar@gatech.edu jcamp6@gatech.edu'}], '_method': 'VASP DFT with PBE;DDEC'}
data_Zn4H54C78N18O13
_symmetry_space_group_name_H-M   'P 1'
_cell_length_a   17.82080000
_cell_length_b   19.24010000
_cell_length_c   19.24009968
_cell_angle_alpha   120.00000055
_cell_angle_beta   90.00000000
_cell_angle_gamma   90.00000000
_symmetry_Int_Tables_number   1
_chemical_formula_structural   Zn4H54C78N18O13
_chemical_formula_sum   'Zn8 H108 C156 N36 O26'
_cell_volume   5713.10844882
_cell_formula_units_Z   2
loop_
 _symmetry_equiv_pos_site_id
 _symmetry_equiv_pos_as_xyz
  1  'x, y, z'
loop_
 _atom_site_label
 _atom_site_fract_x
 _atom_site_fract_y
 _atom_site_fract_z
 _atom_site_charge
 Zn 0.60008 0.6667 0.3333   1.053826
 Zn 0.10008 0.3333 0.6667   1.053826
 Zn 0.96517 0.29223 0.55272   0.974308
 Zn 0.96517 0.44728 0.73951   0.974265
 Zn 0.46517 0.55272 0.29223   0.974308
 Zn 0.96517 0.26049 0.70777   0.97447
 Zn 0.46517 0.70777 0.26049   0.97447
 Zn 0.46517 0.73951 0.44728   0.974265
 H 0.7388 0.5745 0.4321   0.093717
 H 0.7388 0.5679 0.1424   0.093717
 H 0.2388 0.4321 0.5745   0.093717
 H 0.7388 0.8576 0.4255   0.093705
 H 0.2388 0.4255 0.8576   0.093705
 H 0.2388 0.1424 0.5679   0.093717
 H 0.809 0.5266 0.5009   0.123589
 H 0.809 0.4991 0.0257   0.123598
 H 0.309 0.5009 0.5266   0.123589
 H 0.809 0.9743 0.4734   0.123594
 H 0.309 0.4734 0.9743   0.123594
 H 0.309 0.0257 0.4991   0.123598
 H 0.6439 0.3682 0.4684   0.115767
 H 0.6439 0.5316 0.8998   0.115776
 H 0.1439 0.4684 0.3682   0.115767
 H 0.6439 0.1002 0.6318   0.115773
 H 0.1439 0.6318 0.1002   0.115773
 H 0.1439 0.8998 0.5316   0.115776
 H 0.5745 0.4156 0.3963   0.110499
 H 0.5745 0.6037 0.0193   0.110502
 H 0.0745 0.3963 0.4156   0.110499
 H 0.5745 0.9807 0.5844   0.110497
 H 0.0745 0.5844 0.9807   0.110497
 H 0.0745 0.0193 0.6037   0.110502
 H 0.9055 0.2913 0.4001   0.180551
 H 0.9055 0.5999 0.8912   0.180547
 H 0.4055 0.4001 0.2913   0.180551
 H 0.9055 0.1088 0.7087   0.180545
 H 0.4055 0.7087 0.1088   0.180545
 H 0.4055 0.8912 0.5999   0.180547
 H 0.8766 0.3699 0.3997   0.149361
 H 0.8766 0.6003 0.9702   0.149355
 H 0.3766 0.3997 0.3699   0.149361
 H 0.8766 0.0298 0.6301   0.149349
 H 0.3766 0.6301 0.0298   0.149349
 H 0.3766 0.9702 0.6003   0.149355
 H 0.8204 0.2965 0.3765   0.147876
 H 0.8204 0.6235 0.92   0.147871
 H 0.3204 0.3765 0.2965   0.147876
 H 0.8204 0.08 0.7035   0.14787
 H 0.3204 0.7035 0.08   0.14787
 H 0.3204 0.92 0.6235   0.147871
 H 0.4068 0.7341 0.7078   0.103893
 H 0.4068 0.2922 0.0263   0.103894
 H 0.9068 0.7078 0.7341   0.103893
 H 0.4068 0.9737 0.2659   0.103893
 H 0.9068 0.2659 0.9737   0.103893
 H 0.9068 0.0263 0.2922   0.103894
 H 0.4095 0.657 0.7714   0.127457
 H 0.4095 0.2286 0.8856   0.127457
 H 0.9095 0.7714 0.657   0.127457
 H 0.4095 0.1144 0.343   0.127456
 H 0.9095 0.343 0.1144   0.127456
 H 0.9095 0.8856 0.2286   0.127457
 H 0.5045 0.4725 0.5729   0.123759
 H 0.5045 0.4271 0.8996   0.123756
 H 0.0045 0.5729 0.4725   0.123759
 H 0.5045 0.1004 0.5275   0.123755
 H 0.0045 0.5275 0.1004   0.123755
 H 0.0045 0.8996 0.4271   0.123756
 H 0.5032 0.5509 0.5108   0.096669
 H 0.5032 0.4892 0.0401   0.096662
 H 0.0032 0.5108 0.5509   0.096669
 H 0.5032 0.9599 0.4491   0.09666
 H 0.0032 0.4491 0.9599   0.09666
 H 0.0032 0.0401 0.4892   0.096662
 H 0.2968 0.447 0.7362   0.16337
 H 0.2968 0.2638 0.7108   0.163364
 H 0.7968 0.7362 0.447   0.16337
 H 0.2968 0.2892 0.553   0.163377
 H 0.7968 0.553 0.2892   0.163377
 H 0.7968 0.7108 0.2638   0.163364
 H 0.3198 0.4658 0.6668   0.138893
 H 0.3198 0.3332 0.799   0.138888
 H 0.8198 0.6668 0.4658   0.138893
 H 0.3198 0.201 0.5342   0.138881
 H 0.8198 0.5342 0.201   0.138881
 H 0.8198 0.799 0.3332   0.138888
 H 0.3069 0.5379 0.7565   0.136436
 H 0.3069 0.2435 0.7814   0.136434
 H 0.8069 0.7565 0.5379   0.136436
 H 0.3069 0.2186 0.4621   0.136439
 H 0.8069 0.4621 0.2186   0.136439
 H 0.8069 0.7814 0.2435   0.136434
 H 0.5911 0.6354 0.824   0.110979
 H 0.5911 0.176 0.8114   0.110978
 H 0.0911 0.824 0.6354   0.110979
 H 0.5911 0.1886 0.3646   0.110979
 H 0.0911 0.3646 0.1886   0.110979
 H 0.0911 0.8114 0.176   0.110978
 H 0.7119 0.6768 0.8172   0.108353
 H 0.7119 0.1828 0.8596   0.108353
 H 0.2119 0.8172 0.6768   0.108353
 H 0.7119 0.1404 0.3232   0.108352
 H 0.2119 0.3232 0.1404   0.108352
 H 0.2119 0.8596 0.1828   0.108353
 H 0.7971 0.5877 0.7209   0.105842
 H 0.7971 0.2791 0.8668   0.105846
 H 0.2971 0.7209 0.5877   0.105842
 H 0.7971 0.1332 0.4123   0.105842
 H 0.2971 0.4123 0.1332   0.105842
 H 0.2971 0.8668 0.2791   0.105846
 H 0.6405 0.4118 0.6436   0.104418
 H 0.6405 0.3564 0.7682   0.104416
 H 0.1405 0.6436 0.4118   0.104418
 H 0.6405 0.2318 0.5882   0.104416
 H 0.1405 0.5882 0.2318   0.104416
 H 0.1405 0.7682 0.3564   0.104416
 C 0.60689 0.53193 0.36212   0.696752
 C 0.60689 0.63788 0.16981   0.696744
 C 0.10689 0.36212 0.53193   0.696752
 C 0.60689 0.83019 0.46807   0.696769
 C 0.10689 0.46807 0.83019   0.696769
 C 0.10689 0.16981 0.63788   0.696744
 C 0.65005 0.49924 0.4069   -0.140385
 C 0.65005 0.5931 0.09234   -0.140438
 C 0.15005 0.4069 0.49924   -0.140385
 C 0.65005 0.90766 0.50076   -0.140443
 C 0.15005 0.50076 0.90766   -0.140443
 C 0.15005 0.09234 0.5931   -0.140438
 C 0.7196 0.5322 0.4389   0.005295
 C 0.7196 0.5611 0.0933   0.005297
 C 0.2196 0.4389 0.5322   0.005295
 C 0.7196 0.9067 0.4678   0.005298
 C 0.2196 0.4678 0.9067   0.005298
 C 0.2196 0.0933 0.5611   0.005297
 C 0.7611 0.5043 0.4802   -0.184525
 C 0.7611 0.5198 0.0241   -0.18451
 C 0.2611 0.4802 0.5043   -0.184525
 C 0.7611 0.9759 0.4957   -0.184515
 C 0.2611 0.4957 0.9759   -0.184515
 C 0.2611 0.0241 0.5198   -0.18451
 C 0.73239 0.44335 0.4916   0.155521
 C 0.73239 0.5084 0.95175   0.15555
 C 0.23239 0.4916 0.44335   0.155521
 C 0.73239 0.04825 0.55665   0.155547
 C 0.23239 0.55665 0.04825   0.155547
 C 0.23239 0.95175 0.5084   0.15555
 C 0.66335 0.4099 0.4608   -0.17147
 C 0.66335 0.5392 0.9491   -0.171468
 C 0.16335 0.4608 0.4099   -0.17147
 C 0.66335 0.0509 0.5901   -0.17147
 C 0.16335 0.5901 0.0509   -0.17147
 C 0.16335 0.9491 0.5392   -0.171468
 C 0.62212 0.4384 0.418   -0.009652
 C 0.62212 0.582 0.0204   -0.009616
 C 0.12212 0.418 0.4384   -0.009652
 C 0.62212 0.9796 0.5616   -0.009621
 C 0.12212 0.5616 0.9796   -0.009621
 C 0.12212 0.0204 0.582   -0.009616
 C 0.8626 0.3272 0.4109   -0.439703
 C 0.8626 0.5891 0.9163   -0.439696
 C 0.3626 0.4109 0.3272   -0.439703
 C 0.8626 0.0837 0.6728   -0.439693
 C 0.3626 0.6728 0.0837   -0.439693
 C 0.3626 0.9163 0.5891   -0.439696
 C 0.84022 0.36327 0.4966   0.380276
 C 0.84022 0.5034 0.86667   0.380245
 C 0.34022 0.4966 0.36327   0.380276
 C 0.84022 0.13333 0.63673   0.380244
 C 0.34022 0.63673 0.13333   0.380244
 C 0.34022 0.86667 0.5034   0.380245
 C 0.78147 0.43525 0.61196   0.28588
 C 0.78147 0.38804 0.82329   0.285847
 C 0.28147 0.61196 0.43525   0.28588
 C 0.78147 0.17671 0.56475   0.285852
 C 0.28147 0.56475 0.17671   0.285852
 C 0.28147 0.82329 0.38804   0.285847
 C 0.45654 0.70296 0.56446   0.644993
 C 0.45654 0.43554 0.1385   0.644976
 C 0.95654 0.56446 0.70296   0.644993
 C 0.45654 0.8615 0.29704   0.64497
 C 0.95654 0.29704 0.8615   0.64497
 C 0.95654 0.1385 0.43554   0.644976
 C 0.45707 0.65129 0.6037   -0.130831
 C 0.45707 0.3963 0.04759   -0.130821
 C 0.95707 0.6037 0.65129   -0.130831
 C 0.45707 0.95241 0.34871   -0.130818
 C 0.95707 0.34871 0.95241   -0.130818
 C 0.95707 0.04759 0.3963   -0.130821
 C 0.4277 0.6817 0.6808   -0.028047
 C 0.4277 0.3192 0.000900000000001   -0.028048
 C 0.9277 0.6808 0.6817   -0.028047
 C 0.4277 0.9991 0.3183   -0.028055
 C 0.9277 0.3183 0.9991   -0.028055
 C 0.9277 0.000900000000001 0.3192   -0.028048
 C 0.4289 0.6356 0.7186   -0.20397
 C 0.4289 0.2814 0.917   -0.203972
 C 0.9289 0.7186 0.6356   -0.20397
 C 0.4289 0.083 0.3644   -0.203971
 C 0.9289 0.3644 0.083   -0.203971
 C 0.9289 0.917 0.2814   -0.203972
 C 0.45849 0.55894 0.67889   0.165473
 C 0.45849 0.32111 0.88005   0.16547
 C 0.95849 0.67889 0.55894   0.165473
 C 0.45849 0.11995 0.44106   0.165468
 C 0.95849 0.44106 0.11995   0.165468
 C 0.95849 0.88005 0.32111   0.16547
 C 0.48567 0.52587 0.60065   -0.172636
 C 0.48567 0.39935 0.92522   -0.17264
 C 0.98567 0.60065 0.52587   -0.172636
 C 0.48567 0.07478 0.47413   -0.172645
 C 0.98567 0.47413 0.07478   -0.172645
 C 0.98567 0.92522 0.39935   -0.17264
 C 0.48465 0.57288 0.56396   -0.02066
 C 0.48465 0.43604 0.00892   -0.020667
 C 0.98465 0.56396 0.57288   -0.02066
 C 0.48465 0.99108 0.42712   -0.02067
 C 0.98465 0.42712 0.99108   -0.02067
 C 0.98465 0.00892 0.43604   -0.020667
 C 0.3255 0.4829 0.7238   -0.421363
 C 0.3255 0.2762 0.7591   -0.421364
 C 0.8255 0.7238 0.4829   -0.421363
 C 0.3255 0.2409 0.5171   -0.421366
 C 0.8255 0.5171 0.2409   -0.421366
 C 0.8255 0.7591 0.2762   -0.421364
 C 0.40624 0.4798 0.74197   0.345869
 C 0.40624 0.25803 0.73783   0.345866
 C 0.90624 0.74197 0.4798   0.345869
 C 0.40624 0.26217 0.5202   0.345868
 C 0.90624 0.5202 0.26217   0.345868
 C 0.90624 0.73783 0.25803   0.345866
 C 0.52835 0.49313 0.74494   0.266165
 C 0.52835 0.25506 0.74819   0.266167
 C 0.02835 0.74494 0.49313   0.266165
 C 0.52835 0.25181 0.50687   0.266165
 C 0.02835 0.50687 0.25181   0.266165
 C 0.02835 0.74819 0.25506   0.266167
 C 0.60423 0.51951 0.7358   -0.003914
 C 0.60423 0.2642 0.78371   -0.003916
 C 0.10423 0.7358 0.51951   -0.003914
 C 0.60423 0.21629 0.48049   -0.003912
 C 0.10423 0.48049 0.21629   -0.003912
 C 0.10423 0.78371 0.2642   -0.003916
 C 0.6257 0.5982 0.7861   -0.109665
 C 0.6257 0.2139 0.8121   -0.109666
 C 0.1257 0.7861 0.5982   -0.109665
 C 0.6257 0.1879 0.4018   -0.109663
 C 0.1257 0.4018 0.1879   -0.109663
 C 0.1257 0.8121 0.2139   -0.109665
 C 0.6972 0.623 0.7813   -0.082105
 C 0.6972 0.2187 0.8417   -0.082103
 C 0.1972 0.7813 0.623   -0.082105
 C 0.6972 0.1583 0.377   -0.082105
 C 0.1972 0.377 0.1583   -0.082104
 C 0.1972 0.8417 0.2187   -0.082103
 C 0.7481 0.57 0.7242   -0.079072
 C 0.7481 0.2758 0.8458   -0.07907
 C 0.2481 0.7242 0.57   -0.079072
 C 0.7481 0.1542 0.43   -0.079078
 C 0.2481 0.43 0.1542   -0.079078
 C 0.2481 0.8458 0.2758   -0.07907
 C 0.72671 0.49118 0.67231   -0.023555
 C 0.72671 0.32769 0.81887   -0.023551
 C 0.22671 0.67231 0.49118   -0.023555
 C 0.72671 0.18113 0.50882   -0.023551
 C 0.22671 0.50882 0.18113   -0.023551
 C 0.22671 0.81887 0.32769   -0.023551
 C 0.65503 0.46592 0.67853   -0.096874
 C 0.65503 0.32147 0.78739   -0.096878
 C 0.15503 0.67853 0.46592   -0.096874
 C 0.65503 0.21261 0.53408   -0.09688
 C 0.15503 0.53408 0.21261   -0.09688
 C 0.15503 0.78739 0.32147   -0.096878
 N 0.87471 0.35576 0.5524   -0.297288
 N 0.87471 0.4476 0.80336   -0.297243
 N 0.37471 0.5524 0.35576   -0.297288
 N 0.87471 0.19664 0.64424   -0.297271
 N 0.37471 0.64424 0.19664   -0.297271
 N 0.37471 0.80336 0.4476   -0.297243
 N 0.83869 0.40161 0.62591   -0.253115
 N 0.83869 0.37409 0.7757   -0.253045
 N 0.33869 0.62591 0.40161   -0.253115
 N 0.83869 0.2243 0.59839   -0.253072
 N 0.33869 0.59839 0.2243   -0.253072
 N 0.33869 0.7757 0.37409   -0.253045
 N 0.77927 0.41226 0.53101   -0.13724
 N 0.77927 0.46899 0.88125   -0.137254
 N 0.27927 0.53101 0.41226   -0.13724
 N 0.77927 0.11875 0.58774   -0.137255
 N 0.27927 0.58774 0.11875   -0.137255
 N 0.27927 0.88125 0.46899   -0.137254
 N 0.43395 0.4433 0.77897   -0.327667
 N 0.43395 0.22103 0.66433   -0.327665
 N 0.93395 0.77897 0.4433   -0.327667
 N 0.43395 0.33567 0.5567   -0.327664
 N 0.93395 0.5567 0.33567   -0.327665
 N 0.93395 0.66433 0.22103   -0.327665
 N 0.5128 0.45178 0.7802   -0.300358
 N 0.5128 0.2198 0.67158   -0.300351
 N 0.0128 0.7802 0.45178   -0.300358
 N 0.5128 0.32842 0.54822   -0.300358
 N 0.0128 0.54822 0.32842   -0.300358
 N 0.0128 0.67158 0.2198   -0.300351
 N 0.46375 0.51329 0.71979   -0.130899
 N 0.46375 0.28021 0.7935   -0.130899
 N 0.96375 0.71979 0.51329   -0.130899
 N 0.46375 0.2065 0.48671   -0.130899
 N 0.96375 0.48671 0.2065   -0.130899
 N 0.96375 0.7935 0.28021   -0.130899
 O 0.49218 0.6667 0.3333   -1.035641
 O 0.99218 0.3333 0.6667   -1.035641
 O 0.64204 0.58291 0.35058   -0.614214
 O 0.64204 0.64942 0.23233   -0.614173
 O 0.14204 0.35058 0.58291   -0.614214
 O 0.64204 0.76767 0.41709   -0.614229
 O 0.14204 0.41709 0.76767   -0.614229
 O 0.14204 0.23233 0.64942   -0.614173
 O 0.54142 0.50717 0.33915   -0.58405
 O 0.54142 0.66085 0.16802   -0.583953
 O 0.04142 0.33915 0.50717   -0.58405
 O 0.54142 0.83198 0.49283   -0.583951
 O 0.04142 0.49283 0.83198   -0.583951
 O 0.04142 0.16802 0.66085   -0.583953
 O 0.48802 0.67273 0.49571   -0.603752
 O 0.48802 0.50429 0.17702   -0.603744
 O 0.98802 0.49571 0.67273   -0.603752
 O 0.48802 0.82298 0.32727   -0.60379
 O 0.98802 0.32727 0.82298   -0.60379
 O 0.98802 0.17702 0.50429   -0.603744
 O 0.42559 0.76942 0.59887   -0.601092
 O 0.42559 0.40113 0.17055   -0.601095
 O 0.92559 0.59887 0.76942   -0.601092
 O 0.42559 0.82945 0.23058   -0.60112
 O 0.92559 0.23058 0.82945   -0.60112
 O 0.92559 0.17055 0.40113   -0.601095
