{'_ref': 'TBD', '_srcid': 'CAKYAQ_clean', 'submitters': [{'name': 'Dalar Nazarian Jeff Camp and David Sholl', 'email': 'dalar@gatech.edu jcamp6@gatech.edu'}], '_method': 'VASP DFT with PBE;DDEC'}
data_CoH13C18N3O4
_symmetry_space_group_name_H-M   'P 1'
_cell_length_a   11.37100000
_cell_length_b   14.32400000
_cell_length_c   16.71300000
_cell_angle_alpha   90.00000000
_cell_angle_beta   90.00000000
_cell_angle_gamma   90.00000000
_symmetry_Int_Tables_number   1
_chemical_formula_structural   CoH13C18N3O4
_chemical_formula_sum   'Co4 H52 C72 N12 O16'
_cell_volume   2722.18342345
_cell_formula_units_Z   4
loop_
 _symmetry_equiv_pos_site_id
 _symmetry_equiv_pos_as_xyz
  1  'x, y, z'
loop_
 _atom_site_label
 _atom_site_fract_x
 _atom_site_fract_y
 _atom_site_fract_z
 _atom_site_charge
 Co 0.0 0.13764 0.97405   0.922111
 Co 0.0 0.86236 0.02595   0.922111
 Co 0.0 0.36236 0.47405   0.922111
 Co 0.0 0.63764 0.52595   0.922111
 H 0.7916 0.1916 0.0794   0.076171
 H 0.5913 0.1933 0.0849   0.128503
 H 0.5925 0.0772 0.8713   0.119129
 H 0.7879 0.0768 0.8726   0.078181
 H 0.7916 0.8084 0.9206   0.076171
 H 0.5913 0.8067 0.9151   0.128504
 H 0.5925 0.9228 0.1287   0.11913
 H 0.7879 0.9232 0.1274   0.078181
 H 0.2084 0.3084 0.5794   0.076171
 H 0.4087 0.3067 0.5849   0.128503
 H 0.4075 0.4228 0.3713   0.119129
 H 0.2121 0.4232 0.3726   0.078181
 H 0.2084 0.6916 0.4206   0.076171
 H 0.4087 0.6933 0.4151   0.128504
 H 0.4075 0.5772 0.6287   0.11913
 H 0.2121 0.5768 0.6274   0.078181
 H 0.2084 0.8084 0.9206   0.076171
 H 0.4087 0.8067 0.9151   0.128509
 H 0.4075 0.9228 0.1287   0.119134
 H 0.2121 0.9232 0.1274   0.078181
 H 0.2084 0.1916 0.0794   0.076171
 H 0.4087 0.1933 0.0849   0.12851
 H 0.4075 0.0772 0.8713   0.119135
 H 0.2121 0.0768 0.8726   0.078181
 H 0.7916 0.6916 0.4206   0.076171
 H 0.5913 0.6933 0.4151   0.128509
 H 0.5925 0.5772 0.6287   0.119134
 H 0.7879 0.5768 0.6274   0.078181
 H 0.7916 0.3084 0.5794   0.076171
 H 0.5913 0.3067 0.5849   0.12851
 H 0.5925 0.4228 0.3713   0.119135
 H 0.7879 0.4232 0.3726   0.078181
 H 0.0 0.0899 0.7798   0.127942
 H 0.0 0.9701 0.5643   0.115672
 H 0.0 0.8106 0.7585   0.086718
 H 0.0 0.1409 0.579   0.331631
 H 0.0 0.1831 0.6604   0.336322
 H 0.0 0.9101 0.2202   0.127942
 H 0.0 0.0299 0.4357   0.115672
 H 0.0 0.1894 0.2415   0.086718
 H 0.0 0.8591 0.421   0.331631
 H 0.0 0.8169 0.3396   0.336322
 H 0.0 0.4101 0.2798   0.127942
 H 0.0 0.5299 0.0643   0.115672
 H 0.0 0.6894 0.2585   0.086719
 H 0.0 0.3591 0.079   0.331631
 H 0.0 0.3169 0.1604   0.336323
 H 0.0 0.5899 0.7202   0.127942
 H 0.0 0.4701 0.9357   0.115672
 H 0.0 0.3106 0.7415   0.086719
 H 0.0 0.6409 0.921   0.331631
 H 0.0 0.6831 0.8396   0.336323
 C 0.7505 0.1679 0.0358   0.181024
 C 0.6291 0.1696 0.0399   -0.210576
 C 0.5652 0.1358 0.9768   0.091102
 C 0.6309 0.1018 0.9157   -0.206976
 C 0.7488 0.102 0.9165   0.185705
 C 0.7505 0.8321 0.9642   0.181024
 C 0.6291 0.8304 0.9601   -0.210576
 C 0.5652 0.8642 0.0232   0.091102
 C 0.6309 0.8982 0.0843   -0.206977
 C 0.7488 0.898 0.0835   0.185704
 C 0.2495 0.3321 0.5358   0.181024
 C 0.3709 0.3304 0.5399   -0.210576
 C 0.4348 0.3642 0.4768   0.091102
 C 0.3691 0.3982 0.4157   -0.206976
 C 0.2512 0.398 0.4165   0.185705
 C 0.2495 0.6679 0.4642   0.181024
 C 0.3709 0.6696 0.4601   -0.210576
 C 0.4348 0.6358 0.5232   0.091102
 C 0.3691 0.6018 0.5843   -0.206977
 C 0.2512 0.602 0.5835   0.185704
 C 0.2495 0.8321 0.9642   0.181025
 C 0.3709 0.8304 0.9601   -0.210577
 C 0.4348 0.8642 0.0232   0.091104
 C 0.3691 0.8982 0.0843   -0.206978
 C 0.2512 0.898 0.0835   0.185705
 C 0.2495 0.1679 0.0358   0.181025
 C 0.3709 0.1696 0.0399   -0.210577
 C 0.4348 0.1358 0.9768   0.091104
 C 0.3691 0.1018 0.9157   -0.206979
 C 0.2512 0.102 0.9165   0.185705
 C 0.7505 0.6679 0.4642   0.181025
 C 0.6291 0.6696 0.4601   -0.210577
 C 0.5652 0.6358 0.5232   0.091104
 C 0.6309 0.6018 0.5843   -0.206978
 C 0.7488 0.602 0.5835   0.185705
 C 0.7505 0.3321 0.5358   0.181025
 C 0.6291 0.3304 0.5399   -0.210577
 C 0.5652 0.3642 0.4768   0.091104
 C 0.6309 0.3982 0.4157   -0.206979
 C 0.7488 0.398 0.4165   0.185705
 C 0.0 0.9428 0.8741   0.655293
 C 0.0 0.9486 0.7828   -0.137779
 C 0.0 0.0365 0.7481   -0.181414
 C 0.0 0.0435 0.6648   0.285117
 C 0.0 0.9643 0.6197   -0.181555
 C 0.0 0.8763 0.6524   -0.098488
 C 0.0 0.8693 0.7347   -0.086695
 C 0.0 0.7914 0.6015   0.635642
 C 0.0 0.0572 0.1259   0.655293
 C 0.0 0.0514 0.2172   -0.137779
 C 0.0 0.9635 0.2519   -0.181414
 C 0.0 0.9565 0.3352   0.285117
 C 0.0 0.0357 0.3803   -0.181555
 C 0.0 0.1237 0.3476   -0.098488
 C 0.0 0.1307 0.2653   -0.086695
 C 0.0 0.2086 0.3985   0.635642
 C 0.0 0.5572 0.3741   0.655293
 C 0.0 0.5514 0.2828   -0.137779
 C 0.0 0.4635 0.2481   -0.181414
 C 0.0 0.4565 0.1648   0.285117
 C 0.0 0.5357 0.1197   -0.181555
 C 0.0 0.6237 0.1524   -0.098488
 C 0.0 0.6307 0.2347   -0.086696
 C 0.0 0.7086 0.1015   0.635642
 C 0.0 0.4428 0.6259   0.655293
 C 0.0 0.4486 0.7172   -0.137779
 C 0.0 0.5365 0.7519   -0.181414
 C 0.0 0.5435 0.8352   0.285117
 C 0.0 0.4643 0.8803   -0.181555
 C 0.0 0.3763 0.8476   -0.098488
 C 0.0 0.3693 0.7653   -0.086696
 C 0.0 0.2914 0.8985   0.635642
 N 0.8126 0.1356 0.9756   -0.337024
 N 0.8126 0.8644 0.0244   -0.337024
 N 0.1874 0.3644 0.4756   -0.337024
 N 0.1874 0.6356 0.5244   -0.337024
 N 0.1874 0.8644 0.0244   -0.337024
 N 0.1874 0.1356 0.9756   -0.337024
 N 0.8126 0.6356 0.5244   -0.337024
 N 0.8126 0.3644 0.4756   -0.337024
 N 0.0 0.1346 0.6302   -0.728875
 N 0.0 0.8654 0.3698   -0.728875
 N 0.0 0.3654 0.1302   -0.728875
 N 0.0 0.6346 0.8698   -0.728875
 O 0.0 0.0175 0.9112   -0.608845
 O 0.0 0.8627 0.9031   -0.549202
 O 0.0 0.7143 0.6352   -0.562797
 O 0.0 0.7966 0.5272   -0.571285
 O 0.0 0.9825 0.0888   -0.608845
 O 0.0 0.1373 0.0969   -0.549202
 O 0.0 0.2857 0.3648   -0.562797
 O 0.0 0.2034 0.4728   -0.571285
 O 0.0 0.4825 0.4112   -0.608845
 O 0.0 0.6373 0.4031   -0.549202
 O 0.0 0.7857 0.1352   -0.562797
 O 0.0 0.7034 0.0272   -0.571285
 O 0.0 0.5175 0.5888   -0.608845
 O 0.0 0.3627 0.5969   -0.549202
 O 0.0 0.2143 0.8648   -0.562797
 O 0.0 0.2966 0.9728   -0.571285
