{'_ref': 'TBD', '_srcid': 'CAKYAQ_clean', 'submitters': [{'name': 'Dalar Nazarian Jeff Camp and David Sholl', 'email': 'dalar@gatech.edu jcamp6@gatech.edu'}], '_method': 'VASP DFT with PBE;DDEC'}
data_CuH16(C5N2)4
_symmetry_space_group_name_H-M   'P 1'
_cell_length_a   3.88109947
_cell_length_b   15.40049509
_cell_length_c   15.40050000
_cell_angle_alpha   89.09031263
_cell_angle_beta   82.76160393
_cell_angle_gamma   82.76123004
_symmetry_Int_Tables_number   1
_chemical_formula_structural   CuH16(C5N2)4
_chemical_formula_sum   'Cu2 H32 C40 N16'
_cell_volume   905.886851743
_cell_formula_units_Z   2
loop_
 _symmetry_equiv_pos_site_id
 _symmetry_equiv_pos_as_xyz
  1  'x, y, z'
loop_
 _atom_site_label
 _atom_site_fract_x
 _atom_site_fract_y
 _atom_site_fract_z
 _atom_site_charge
 Cu 0.125 0.25 0.25   0.858122
 Cu 0.875 0.75 0.75   0.858122
 H 0.2818 0.3638 0.4506   0.136907
 H 0.3543 0.6652 0.3862   0.127148
 H 0.0714 0.6596 0.3536   0.117485
 H 0.9939 0.7091 0.4251   0.122716
 H 0.5962 0.1362 0.0494   0.138199
 H 0.9057 0.8348 0.1138   0.126057
 H 0.5846 0.8404 0.1464   0.117699
 H 0.6281 0.7909 0.0749   0.122152
 H 0.1456 0.9506 0.6362   0.13803
 H 0.5195 0.8862 0.3348   0.126951
 H 0.231 0.8536 0.3404   0.117553
 H 0.203 0.9251 0.2909   0.122706
 H 0.2324 0.5494 0.8638   0.137217
 H 0.2405 0.6138 0.1652   0.126467
 H 0.925 0.6464 0.1596   0.117492
 H 0.919 0.5749 0.2091   0.121927
 H 0.7182 0.6362 0.5494   0.136905
 H 0.6457 0.3348 0.6138   0.127149
 H 0.9286 0.3404 0.6464   0.117485
 H 0.0061 0.2909 0.5749   0.122717
 H 0.4038 0.8638 0.9506   0.138197
 H 0.0943 0.1652 0.8862   0.126057
 H 0.4154 0.1596 0.8536   0.117699
 H 0.3719 0.2091 0.9251   0.122152
 H 0.8544 0.0494 0.3638   0.138028
 H 0.4805 0.1138 0.6652   0.126952
 H 0.769 0.1464 0.6596   0.117553
 H 0.797 0.0749 0.7091   0.122706
 H 0.7676 0.4506 0.1362   0.137215
 H 0.7595 0.3862 0.8348   0.126468
 H 0.075 0.3536 0.8404   0.117493
 H 0.081 0.4251 0.7909   0.121927
 C 0.6473 0.4194 0.3212   0.557849
 C 0.2427 0.4952 0.4234   0.249501
 C 0.0645 0.5793 0.4541   0.085443
 C 0.1681 0.4178 0.4718   -0.244891
 C 0.1345 0.661 0.4036   -0.328481
 C 0.8879 0.0806 0.1788   0.557767
 C 0.6613 0.0048 0.0766   0.250929
 C 0.5979 0.9207 0.0459   0.085168
 C 0.5577 0.0822 0.0282   -0.24755
 C 0.6991 0.839 0.0964   -0.32672
 C 0.5667 0.8212 0.5806   0.55715
 C 0.2379 0.9234 0.5048   0.249948
 C 0.1438 0.9541 0.4207   0.085337
 C 0.0859 0.9718 0.5822   -0.246235
 C 0.2955 0.9036 0.339   -0.328401
 C 0.4685 0.6788 0.9194   0.55801
 C 0.1661 0.5766 0.9952   0.250835
 C 0.0186 0.5459 0.0793   0.085279
 C 0.1399 0.5282 0.9178   -0.245331
 C 0.0381 0.5964 0.161   -0.327022
 C 0.3527 0.5806 0.6788   0.557849
 C 0.7573 0.5048 0.5766   0.249496
 C 0.9355 0.4207 0.5459   0.085458
 C 0.8319 0.5822 0.5282   -0.244874
 C 0.8655 0.339 0.5964   -0.328482
 C 0.1121 0.9194 0.8212   0.557767
 C 0.3387 0.9952 0.9234   0.250924
 C 0.4021 0.0793 0.9541   0.085187
 C 0.4423 0.9178 0.9718   -0.247528
 C 0.3009 0.161 0.9036   -0.326723
 C 0.4333 0.1788 0.4194   0.55715
 C 0.7621 0.0766 0.4952   0.249943
 C 0.8562 0.0459 0.5793   0.085353
 C 0.9141 0.0282 0.4178   -0.246215
 C 0.7045 0.0964 0.661   -0.328403
 C 0.5315 0.3212 0.0806   0.55801
 C 0.8339 0.4234 0.0048   0.25083
 C 0.9814 0.4541 0.9207   0.085297
 C 0.8601 0.4718 0.0822   -0.245311
 C 0.9619 0.4036 0.839   -0.327024
 N 0.815 0.3587 0.2879   -0.589363
 N 0.4722 0.494 0.351   -0.448875
 N 0.9616 0.1413 0.2121   -0.589065
 N 0.8172 0.006 0.149   -0.449193
 N 0.6737 0.7879 0.6413   -0.589078
 N 0.4662 0.851 0.506   -0.448455
 N 0.6029 0.7121 0.8587   -0.589043
 N 0.3232 0.649 0.994   -0.450403
 N 0.185 0.6413 0.7121   -0.589363
 N 0.5278 0.506 0.649   -0.448874
 N 0.0384 0.8587 0.7879   -0.589065
 N 0.1828 0.994 0.851   -0.449192
 N 0.3263 0.2121 0.3587   -0.589078
 N 0.5338 0.149 0.494   -0.448454
 N 0.3971 0.2879 0.1413   -0.589043
 N 0.6768 0.351 0.006   -0.450403
