{'_ref': 'TBD', '_srcid': 'CAKYAQ_clean', 'submitters': [{'name': 'Dalar Nazarian Jeff Camp and David Sholl', 'email': 'dalar@gatech.edu jcamp6@gatech.edu'}], '_method': 'VASP DFT with PBE;DDEC'}
data_Nd2H18(C5O4)3
_symmetry_space_group_name_H-M   'P 1'
_cell_length_a   8.11730019
_cell_length_b   8.60877488
_cell_length_c   19.88030000
_cell_angle_alpha   88.22745503
_cell_angle_beta   86.23810091
_cell_angle_gamma   61.87141929
_symmetry_Int_Tables_number   1
_chemical_formula_structural   Nd2H18(C5O4)3
_chemical_formula_sum   'Nd4 H36 C30 O24'
_cell_volume   1222.51563584
_cell_formula_units_Z   2
loop_
 _symmetry_equiv_pos_site_id
 _symmetry_equiv_pos_as_xyz
  1  'x, y, z'
loop_
 _atom_site_label
 _atom_site_fract_x
 _atom_site_fract_y
 _atom_site_fract_z
 _atom_site_charge
 Nd 0.2079 0.0754 0.5119   2.287209
 Nd 0.7167 0.0754 0.9881   2.287237
 Nd 0.7921 0.9246 0.4881   2.287209
 Nd 0.2833 0.9246 0.0119   2.287236
 H 0.5084 0.7544 0.3023   0.136574
 H 0.6914 0.7124 0.3382   0.120502
 H 0.6421 0.4568 0.3254   0.070231
 H 0.4708 0.5438 0.3779   0.074377
 H 0.6733 0.5294 0.4604   0.141044
 H 0.8441 0.4412 0.408   0.126056
 H 0.9441 0.4462 0.7077   0.116851
 H 0.76 0.4652 0.6794   0.120192
 H 0.9887 0.1928 0.7665   0.072527
 H 0.7372 0.7544 0.1977   0.136885
 H 0.5962 0.7124 0.1618   0.120345
 H 0.9011 0.4568 0.1746   0.0699
 H 0.9854 0.5438 0.1221   0.074514
 H 0.7973 0.5294 0.0396   0.141327
 H 0.7147 0.4412 0.092   0.126086
 H 0.6097 0.4462 0.7923   0.116944
 H 0.7748 0.4652 0.8206   0.119731
 H 0.8185 0.1928 0.7335   0.072621
 H 0.4916 0.2456 0.6977   0.136572
 H 0.3086 0.2876 0.6618   0.120501
 H 0.3579 0.5432 0.6746   0.070231
 H 0.5292 0.4562 0.6221   0.074378
 H 0.3267 0.4706 0.5396   0.141044
 H 0.1559 0.5588 0.592   0.126057
 H 0.0559 0.5538 0.2923   0.116852
 H 0.24 0.5348 0.3206   0.120192
 H 0.0113 0.8072 0.2335   0.072526
 H 0.2628 0.2456 0.8023   0.136884
 H 0.4038 0.2876 0.8382   0.120345
 H 0.0989 0.5432 0.8254   0.069899
 H 0.0146 0.4562 0.8779   0.074514
 H 0.2027 0.4706 0.9604   0.141327
 H 0.2853 0.5588 0.908   0.126086
 H 0.3903 0.5538 0.2077   0.116945
 H 0.2252 0.5348 0.1794   0.119731
 H 0.1815 0.8072 0.2665   0.072619
 C 0.454 0.8516 0.3985   0.798773
 C 0.5693 0.718 0.3446   -0.345928
 C 0.5926 0.5336 0.3644   -0.007251
 C 0.7226 0.4512 0.4218   -0.360357
 C 0.2516 0.7282 0.5568   0.810004
 C 0.9955 0.2758 0.6299   0.719196
 C 0.8843 0.3806 0.692   -0.33037
 C 0.6944 0.8516 0.1015   0.799681
 C 0.7127 0.718 0.1554   -0.346418
 C 0.8738 0.5336 0.1356   -0.007282
 C 0.8262 0.4512 0.0782   -0.360357
 C 0.0202 0.7282 0.9432   0.80987
 C 0.7287 0.2758 0.8701   0.719564
 C 0.7351 0.3806 0.808   -0.3298
 C 0.546 0.1484 0.6015   0.798773
 C 0.4307 0.282 0.6554   -0.345927
 C 0.4074 0.4664 0.6356   -0.007251
 C 0.2774 0.5488 0.5782   -0.360357
 C 0.7484 0.2718 0.4432   0.810004
 C 0.0045 0.7242 0.3701   0.719196
 C 0.1157 0.6194 0.308   -0.33037
 C 0.3056 0.1484 0.8985   0.799681
 C 0.2873 0.282 0.8446   -0.346417
 C 0.1262 0.4664 0.8644   -0.007282
 C 0.1738 0.5488 0.9218   -0.360357
 C 0.9798 0.2718 0.0568   0.809871
 C 0.2713 0.7242 0.1299   0.719564
 C 0.2649 0.6194 0.192   -0.3298
 C 0.866 0.268 0.75   -0.023224
 C 0.134 0.732 0.25   -0.023223
 O 0.5306 0.9104 0.4384   -0.895791
 O 0.2815 0.9008 0.4057   -0.673053
 O 0.0947 0.8406 0.5344   -0.865767
 O 0.3819 0.7684 0.5599   -0.673028
 O 0.0983 0.1102 0.6335   -0.679149
 O 0.9901 0.3556 0.5742   -0.751287
 O 0.559 0.9104 0.0616   -0.896073
 O 0.8177 0.9008 0.0943   -0.673475
 O 0.0647 0.8406 0.9656   -0.865513
 O 0.8497 0.7684 0.9401   -0.673258
 O 0.7915 0.1102 0.8665   -0.679409
 O 0.6543 0.3556 0.9258   -0.751448
 O 0.4694 0.0896 0.5616   -0.895791
 O 0.7185 0.0992 0.5943   -0.673054
 O 0.9053 0.1594 0.4656   -0.865767
 O 0.6181 0.2316 0.4401   -0.673028
 O 0.9017 0.8898 0.3665   -0.67915
 O 0.0099 0.6444 0.4258   -0.751286
 O 0.441 0.0896 0.9384   -0.896073
 O 0.1823 0.0992 0.9057   -0.673475
 O 0.9353 0.1594 0.0344   -0.865513
 O 0.1503 0.2316 0.0599   -0.673258
 O 0.2085 0.8898 0.1335   -0.67941
 O 0.3457 0.6444 0.0742   -0.751448
