{'_ref': 'TBD', '_srcid': 'CAKYAQ_clean', 'submitters': [{'name': 'Dalar Nazarian Jeff Camp and David Sholl', 'email': 'dalar@gatech.edu jcamp6@gatech.edu'}], '_method': 'VASP DFT with PBE;DDEC'}
data_KNdRe4Te4(CN)12
_symmetry_space_group_name_H-M   'P 1'
_cell_length_a   13.33990000
_cell_length_b   13.33989992
_cell_length_c   20.77730000
_cell_angle_alpha   90.00000000
_cell_angle_beta   90.00000000
_cell_angle_gamma   108.34200037
_symmetry_Int_Tables_number   1
_chemical_formula_structural   KNdRe4Te4(CN)12
_chemical_formula_sum   'K4 Nd4 Re16 Te16 C48 N48'
_cell_volume   3509.53616117
_cell_formula_units_Z   4
loop_
 _symmetry_equiv_pos_site_id
 _symmetry_equiv_pos_as_xyz
  1  'x, y, z'
loop_
 _atom_site_label
 _atom_site_fract_x
 _atom_site_fract_y
 _atom_site_fract_z
 _atom_site_charge
 K 0.1269 0.1269 0.0   0.936016
 K 0.8731 0.8731 0.5   0.936016
 K 0.8731 0.8731 0.0   0.936014
 K 0.1269 0.1269 0.5   0.936014
 Nd 0.62875 0.88165 0.25   2.346606
 Nd 0.37125 0.11835 0.75   2.346606
 Nd 0.11835 0.37125 0.25   2.346608
 Nd 0.88165 0.62875 0.75   2.346608
 Re 0.25655 0.55989 0.95025   -0.409151
 Re 0.74345 0.44011 0.45025   -0.409151
 Re 0.44011 0.74345 0.54975   -0.409152
 Re 0.55989 0.25655 0.04975   -0.409152
 Re 0.74345 0.44011 0.04975   -0.409151
 Re 0.25655 0.55989 0.54975   -0.409151
 Re 0.55989 0.25655 0.45025   -0.409151
 Re 0.44011 0.74345 0.95025   -0.409151
 Re 0.2975 0.7025 0.0577   -0.555356
 Re 0.23464 0.76536 0.93386   -0.596002
 Re 0.7025 0.2975 0.5577   -0.555356
 Re 0.76536 0.23464 0.43386   -0.596002
 Re 0.2975 0.7025 0.4423   -0.555356
 Re 0.23464 0.76536 0.56614   -0.596003
 Re 0.7025 0.2975 0.9423   -0.555356
 Re 0.76536 0.23464 0.06614   -0.596003
 Te 0.10832 0.62054 0.00806   0.60826
 Te 0.89168 0.37946 0.50806   0.60826
 Te 0.37946 0.89168 0.49194   0.60826
 Te 0.62054 0.10832 0.99194   0.60826
 Te 0.89168 0.37946 0.99194   0.60826
 Te 0.10832 0.62054 0.49194   0.60826
 Te 0.62054 0.10832 0.50806   0.60826
 Te 0.37946 0.89168 0.00806   0.60826
 Te 0.32326 0.67674 0.84744   0.53377
 Te 0.41624 0.58376 0.03031   0.597
 Te 0.67674 0.32326 0.34744   0.53377
 Te 0.58376 0.41624 0.53031   0.597
 Te 0.32326 0.67674 0.65256   0.533771
 Te 0.41624 0.58376 0.46969   0.596999
 Te 0.67674 0.32326 0.15256   0.533771
 Te 0.58376 0.41624 0.96969   0.596999
 C 0.4152 0.7638 0.1284   0.392656
 C 0.1311 0.4787 0.8895   0.126474
 C 0.3255 0.4579 0.9025   0.189207
 C 0.1869 0.4197 0.0019   0.21178
 C 0.284 0.8934 0.8691   0.376453
 C 0.5848 0.2362 0.6284   0.392656
 C 0.8689 0.5213 0.3895   0.126474
 C 0.6745 0.5421 0.4025   0.189207
 C 0.8131 0.5803 0.5019   0.21178
 C 0.716 0.1066 0.3691   0.376453
 C 0.2362 0.5848 0.3716   0.392656
 C 0.5213 0.8689 0.6105   0.126474
 C 0.5421 0.6745 0.5975   0.189207
 C 0.5803 0.8131 0.4981   0.21178
 C 0.1066 0.716 0.6309   0.376453
 C 0.7638 0.4152 0.8716   0.392656
 C 0.4787 0.1311 0.1105   0.126474
 C 0.4579 0.3255 0.0975   0.189207
 C 0.4197 0.1869 0.9981   0.21178
 C 0.8934 0.284 0.1309   0.376453
 C 0.5848 0.2362 0.8716   0.392656
 C 0.8689 0.5213 0.1105   0.126474
 C 0.6745 0.5421 0.0975   0.189207
 C 0.8131 0.5803 0.9981   0.21178
 C 0.716 0.1066 0.1309   0.376453
 C 0.4152 0.7638 0.3716   0.392656
 C 0.1311 0.4787 0.6105   0.126474
 C 0.3255 0.4579 0.5975   0.189207
 C 0.1869 0.4197 0.4981   0.21178
 C 0.284 0.8934 0.6309   0.376453
 C 0.7638 0.4152 0.6284   0.392656
 C 0.4787 0.1311 0.3895   0.126474
 C 0.4579 0.3255 0.4025   0.189207
 C 0.4197 0.1869 0.5019   0.21178
 C 0.8934 0.284 0.3691   0.376453
 C 0.2362 0.5848 0.1284   0.392656
 C 0.5213 0.8689 0.8895   0.126474
 C 0.5421 0.6745 0.9025   0.189207
 C 0.5803 0.8131 0.0019   0.21178
 C 0.1066 0.716 0.8691   0.376453
 C 0.2183 0.7817 0.1162   0.141789
 C 0.1428 0.8572 0.9692   0.273464
 C 0.7817 0.2183 0.6162   0.141789
 C 0.8572 0.1428 0.4692   0.273464
 C 0.2183 0.7817 0.3838   0.141789
 C 0.1428 0.8572 0.5308   0.273464
 C 0.7817 0.2183 0.8838   0.141789
 C 0.8572 0.1428 0.0308   0.273464
 N 0.4806 0.7978 0.1657   -0.678654
 N 0.0634 0.4314 0.8579   -0.410766
 N 0.3627 0.4043 0.8753   -0.49181
 N 0.1458 0.341 0.0264   -0.544917
 N 0.3115 0.9635 0.8343   -0.709844
 N 0.5194 0.2022 0.6657   -0.678654
 N 0.9366 0.5686 0.3579   -0.410766
 N 0.6373 0.5957 0.3753   -0.49181
 N 0.8542 0.659 0.5264   -0.544917
 N 0.6885 0.0365 0.3343   -0.709844
 N 0.2022 0.5194 0.3343   -0.678654
 N 0.5686 0.9366 0.6421   -0.410766
 N 0.5957 0.6373 0.6247   -0.49181
 N 0.659 0.8542 0.4736   -0.544917
 N 0.0365 0.6885 0.6657   -0.709844
 N 0.7978 0.4806 0.8343   -0.678654
 N 0.4314 0.0634 0.1421   -0.410766
 N 0.4043 0.3627 0.1247   -0.49181
 N 0.341 0.1458 0.9736   -0.544917
 N 0.9635 0.3115 0.1657   -0.709844
 N 0.5194 0.2022 0.8343   -0.678654
 N 0.9366 0.5686 0.1421   -0.410765
 N 0.6373 0.5957 0.1247   -0.49181
 N 0.8542 0.659 0.9736   -0.544917
 N 0.6885 0.0365 0.1657   -0.709844
 N 0.4806 0.7978 0.3343   -0.678654
 N 0.0634 0.4314 0.6421   -0.410765
 N 0.3627 0.4043 0.6247   -0.49181
 N 0.1458 0.341 0.4736   -0.544917
 N 0.3115 0.9635 0.6657   -0.709844
 N 0.7978 0.4806 0.6657   -0.678654
 N 0.4314 0.0634 0.3579   -0.410765
 N 0.4043 0.3627 0.3753   -0.49181
 N 0.341 0.1458 0.5264   -0.544917
 N 0.9635 0.3115 0.3343   -0.709844
 N 0.2022 0.5194 0.1657   -0.678654
 N 0.5686 0.9366 0.8579   -0.410765
 N 0.5957 0.6373 0.8753   -0.49181
 N 0.659 0.8542 0.0264   -0.544917
 N 0.0365 0.6885 0.8343   -0.709844
 N 0.1761 0.8239 0.1485   -0.3816
 N 0.0928 0.9072 0.9842   -0.615065
 N 0.8239 0.1761 0.6485   -0.3816
 N 0.9072 0.0928 0.4842   -0.615065
 N 0.1761 0.8239 0.3515   -0.381601
 N 0.0928 0.9072 0.5158   -0.615065
 N 0.8239 0.1761 0.8515   -0.381601
 N 0.9072 0.0928 0.0158   -0.615065
