{'_ref': 'TBD', '_srcid': 'CAKYAQ_clean', 'submitters': [{'name': 'Dalar Nazarian Jeff Camp and David Sholl', 'email': 'dalar@gatech.edu jcamp6@gatech.edu'}], '_method': 'VASP DFT with PBE;DDEC'}
data_In2H20C37O20
_symmetry_space_group_name_H-M   'P 1'
_cell_length_a   16.53880017
_cell_length_b   17.67249999
_cell_length_c   17.67250000
_cell_angle_alpha   77.35250105
_cell_angle_beta   62.10039863
_cell_angle_gamma   62.10040127
_symmetry_Int_Tables_number   1
_chemical_formula_structural   In2H20C37O20
_chemical_formula_sum   'In4 H40 C74 O40'
_cell_volume   4034.38560876
_cell_formula_units_Z   2
loop_
 _symmetry_equiv_pos_site_id
 _symmetry_equiv_pos_as_xyz
  1  'x, y, z'
loop_
 _atom_site_label
 _atom_site_fract_x
 _atom_site_fract_y
 _atom_site_fract_z
 _atom_site_charge
 In 0.58739 0.01853 0.6031   1.470092
 In 0.20902 0.98147 0.3969   1.4697
 In 0.80951 0.6031 0.98147   1.471606
 In 0.39408 0.3969 0.01853   1.470023
 H 0.0279 0.0426 0.0806   0.084704
 H 0.0839 0.9425 0.0699   0.085077
 H 0.0761 0.9761 0.1913   0.127699
 H 0.9206 0.9712 0.4464   0.118488
 H 0.7938 0.9958 0.2898   0.139311
 H 0.7843 0.6033 0.4789   0.087981
 H 0.6744 0.6217 0.5503   0.081415
 H 0.7037 0.7238 0.5716   0.138926
 H 0.7115 0.7862 0.7732   0.132531
 H 0.8267 0.5349 0.7195   0.158205
 H 0.1511 0.9574 0.9194   0.08499
 H 0.0963 0.0575 0.9301   0.084464
 H 0.2435 0.0239 0.8087   0.128415
 H 0.3382 0.0288 0.5536   0.118344
 H 0.0794 0.0042 0.7102   0.138607
 H 0.8665 0.3967 0.5211   0.087886
 H 0.8464 0.3783 0.4497   0.081205
 H 0.9991 0.2762 0.4284   0.139637
 H 0.2709 0.2138 0.2268   0.133174
 H 0.0811 0.4651 0.2805   0.157398
 H 0.8915 0.0806 0.9574   0.084882
 H 0.8462 0.0699 0.0575   0.083262
 H 0.7326 0.1913 0.0239   0.127402
 H 0.633 0.4464 0.0288   0.119368
 H 0.9164 0.2898 0.0042   0.138397
 H 0.7368 0.4789 0.3967   0.087966
 H 0.7753 0.5503 0.3783   0.08164
 H 0.7247 0.5716 0.2762   0.137996
 H 0.5153 0.7732 0.2138   0.131211
 H 0.4538 0.7195 0.4651   0.157328
 H 0.9295 0.9194 0.0426   0.085541
 H 0.9736 0.9301 0.9425   0.086022
 H 0.9478 0.8087 0.9761   0.128212
 H 0.1082 0.5536 0.9712   0.119346
 H 0.2104 0.7102 0.9958   0.13966
 H 0.6124 0.5211 0.6033   0.088957
 H 0.7039 0.4497 0.6217   0.082604
 H 0.5725 0.4284 0.7238   0.136987
 H 0.5023 0.2268 0.7862   0.131797
 H 0.6384 0.2805 0.5349   0.15672
 C 0.02111 0.99219 0.07649   0.057868
 C 0.94042 0.97801 0.22685   0.259213
 C 0.01957 0.97387 0.23863   -0.194203
 C 0.01559 0.96621 0.32381   -0.062655
 C 0.9265 0.97158 0.39142   -0.004957
 C 0.84038 0.97772 0.38232   -0.089166
 C 0.84943 0.98545 0.29849   -0.12972
 C 0.09611 0.96466 0.33652   0.588119
 C 0.7521 0.99002 0.46096   0.613097
 C 0.7437 0.57888 0.52752   0.058889
 C 0.7631 0.61946 0.64214   0.24969
 C 0.71823 0.70845 0.61909   -0.169994
 C 0.69849 0.76771 0.66911   -0.058875
 C 0.7238 0.7442 0.7404   -0.00776
 C 0.76809 0.65635 0.76065   -0.061352
 C 0.79256 0.59254 0.70954   -0.138996
 C 0.64748 0.85896 0.65368   0.631822
 C 0.7963 0.6338 0.8374   0.609434
 C 0.08979 0.00781 0.92351   0.059418
 C 0.14528 0.02199 0.77315   0.258505
 C 0.23207 0.02613 0.76137   -0.194435
 C 0.30561 0.03379 0.67619   -0.066992
 C 0.2895 0.02842 0.60858   -0.000107
 C 0.20042 0.02228 0.61768   -0.095769
 C 0.13337 0.01455 0.70151   -0.124784
 C 0.39729 0.03534 0.66348   0.590053
 C 0.20308 0.00998 0.53904   0.617197
 C 0.8501 0.42112 0.47248   0.058745
 C 0.0247 0.38054 0.35786   0.245638
 C 0.04577 0.29155 0.38091   -0.172
 C 0.13531 0.23229 0.33089   -0.054911
 C 0.2084 0.2558 0.2596   -0.010591
 C 0.18509 0.34365 0.23935   -0.063574
 C 0.09464 0.40746 0.29046   -0.134088
 C 0.16012 0.14104 0.34632   0.63402
 C 0.2675 0.3662 0.1626   0.609363
 C 0.9024 0.07649 0.00781   0.061049
 C 0.83273 0.22685 0.02199   0.261381
 C 0.7418 0.23863 0.02613   -0.193859
 C 0.6606 0.32381 0.03379   -0.062777
 C 0.68208 0.39142 0.02842   -0.007368
 C 0.7773 0.38232 0.02228   -0.089388
 C 0.85208 0.29849 0.01455   -0.127289
 C 0.56737 0.33652 0.03534   0.589812
 C 0.78694 0.46096 0.00998   0.611989
 C 0.72878 0.52752 0.42112   0.056418
 C 0.59476 0.64214 0.38054   0.244818
 C 0.66268 0.61909 0.29155   -0.168263
 C 0.6324 0.66911 0.23229   -0.058768
 C 0.5358 0.7404 0.2558   -0.005571
 C 0.47126 0.76065 0.34365   -0.061912
 C 0.4979 0.70954 0.40746   -0.136396
 C 0.69884 0.65368 0.14104   0.631497
 C 0.3663 0.8374 0.3662   0.60919
 C 0.9867 0.92351 0.99219   0.056467
 C 0.08157 0.77315 0.97801   0.261303
 C 0.00656 0.76137 0.97387   -0.195064
 C 0.0182 0.67619 0.96621   -0.063145
 C 0.10192 0.60858 0.97158   -0.005905
 C 0.1819 0.61768 0.97772   -0.0921
 C 0.16512 0.70151 0.98545   -0.12798
 C 0.93923 0.66348 0.96466   0.590005
 C 0.25788 0.53904 0.99002   0.616242
 C 0.67742 0.47248 0.57888   0.05406
 C 0.61744 0.35786 0.61946   0.244913
 C 0.57332 0.38091 0.70845   -0.169675
 C 0.5338 0.33089 0.76771   -0.055746
 C 0.532 0.2596 0.7442   -0.005819
 C 0.57556 0.23935 0.65635   -0.063287
 C 0.6149 0.29046 0.59254   -0.135394
 C 0.49356 0.34632 0.85896   0.629596
 C 0.5699 0.1626 0.6338   0.607494
 C 0.0 0.0 0.0   -0.05268
 C 0.75 0.5 0.5   -0.026258
 O 0.93998 0.98378 0.1522   -0.217865
 O 0.66994 0.01111 0.45247   -0.536742
 O 0.75229 0.98462 0.53178   -0.534164
 O 0.09291 0.94633 0.41171   -0.524678
 O 0.16962 0.97857 0.27241   -0.518255
 O 0.7819 0.5521 0.5935   -0.270445
 O 0.62299 0.88202 0.59384   -0.568761
 O 0.6411 0.91363 0.69367   -0.529967
 O 0.74789 0.68537 0.89303   -0.501388
 O 0.86249 0.55865 0.83519   -0.553259
 O 0.07596 0.01622 0.8478   -0.219821
 O 0.13352 0.98889 0.54753   -0.538068
 O 0.26869 0.01538 0.46822   -0.534661
 O 0.45095 0.05367 0.58829   -0.526116
 O 0.4206 0.02143 0.72759   -0.517613
 O 0.9275 0.4479 0.4065   -0.268326
 O 0.09885 0.11798 0.40616   -0.570612
 O 0.2484 0.08637 0.30633   -0.53124
 O 0.32629 0.31463 0.10697   -0.500372
 O 0.25633 0.44135 0.16481   -0.552526
 O 0.90782 0.1522 0.01622   -0.22158
 O 0.87759 0.45247 0.98889   -0.535753
 O 0.71593 0.53178 0.01538   -0.534656
 O 0.49538 0.41171 0.05367   -0.526338
 O 0.55797 0.27241 0.02143   -0.518111
 O 0.6246 0.5935 0.4479   -0.266123
 O 0.78317 0.59384 0.11798   -0.5682
 O 0.66523 0.69367 0.08637   -0.530943
 O 0.35908 0.89303 0.31463   -0.501668
 O 0.30232 0.83519 0.44135   -0.552142
 O 0.07624 0.8478 0.98378   -0.219774
 O 0.31895 0.54753 0.01111   -0.537315
 O 0.26309 0.46822 0.98462   -0.535154
 O 0.96076 0.58829 0.94633   -0.525996
 O 0.85181 0.72759 0.97857   -0.519153
 O 0.666 0.4065 0.5521   -0.26591
 O 0.49499 0.40616 0.88202   -0.568415
 O 0.44527 0.30633 0.91363   -0.529472
 O 0.56674 0.10697 0.68537   -0.500098
 O 0.57886 0.16481 0.55865   -0.551233
