{'_ref': 'TBD', '_srcid': 'CAKYAQ_clean', 'submitters': [{'name': 'Dalar Nazarian Jeff Camp and David Sholl', 'email': 'dalar@gatech.edu jcamp6@gatech.edu'}], '_method': 'VASP DFT with PBE;DDEC'}
data_Zn4H16C30O13
_symmetry_space_group_name_H-M   'P 1'
_cell_length_a   17.30430000
_cell_length_b   17.95650000
_cell_length_c   18.37700000
_cell_angle_alpha   90.00000000
_cell_angle_beta   90.00000000
_cell_angle_gamma   90.00000000
_symmetry_Int_Tables_number   1
_chemical_formula_structural   Zn4H16C30O13
_chemical_formula_sum   'Zn16 H64 C120 O52'
_cell_volume   5710.18713103
_cell_formula_units_Z   4
loop_
 _symmetry_equiv_pos_site_id
 _symmetry_equiv_pos_as_xyz
  1  'x, y, z'
loop_
 _atom_site_label
 _atom_site_fract_x
 _atom_site_fract_y
 _atom_site_fract_z
 _atom_site_charge
 Zn 0.82343 0.05543 0.68187   1.196955
 Zn 0.70347 0.38723 0.18217   1.19676
 Zn 0.82335 0.88725 0.6818   1.197133
 Zn 0.70327 0.55539 0.18165   1.19685
 Zn 0.69809 0.97216 0.60007   1.191214
 Zn 0.69856 0.97082 0.76411   1.19632
 Zn 0.82864 0.47186 0.10012   1.189379
 Zn 0.82835 0.47115 0.26413   1.19686
 Zn 0.17656 0.11217 0.31789   1.196777
 Zn 0.29676 0.44386 0.81827   1.197379
 Zn 0.17649 0.94398 0.3181   1.197517
 Zn 0.29638 0.61202 0.81785   1.197404
 Zn 0.30169 0.02736 0.39997   1.191417
 Zn 0.30147 0.0284 0.23591   1.196176
 Zn 0.17147 0.52724 0.90004   1.189323
 Zn 0.17146 0.52822 0.73603   1.197048
 H 0.31684 0.02863 0.57975   0.115717
 H 0.87022 0.2173 0.52205   0.121349
 H 0.65253 0.13476 0.44143   0.112437
 H 0.65551 0.22693 0.34344   0.11657
 H 0.87207 0.31123 0.42547   0.119927
 H 0.06333 0.8582 0.7205   0.113198
 H 0.20487 0.8593 0.72276   0.110393
 H 0.20455 0.08495 0.64265   0.105104
 H 0.06769 0.5359 0.0831   0.11922
 H 0.67413 0.20977 0.03687   0.120197
 H 0.85675 0.32606 0.92445   0.113486
 H 0.8545 0.23199 0.82827   0.125569
 H 0.6721 0.11555 0.94076   0.1226
 H 0.46349 0.58792 0.15353   0.114878
 H 0.06828 0.40785 0.28146   0.113001
 H 0.21023 0.40687 0.28042   0.117407
 H 0.45851 0.0268 0.57857   0.117186
 H 0.85412 0.71152 0.53523   0.12047
 H 0.67139 0.8277 0.42283   0.112877
 H 0.67358 0.73349 0.32671   0.125204
 H 0.85607 0.61722 0.43926   0.123232
 H 0.06289 0.08459 0.64232   0.114926
 H 0.4586 0.91627 0.78679   0.113091
 H 0.31675 0.916 0.78665   0.116992
 H 0.20964 0.5368 0.08353   0.110763
 H 0.65769 0.71844 0.02284   0.12101
 H 0.872 0.63156 0.9386   0.113975
 H 0.86903 0.72368 0.84054   0.114535
 H 0.65591 0.8122 0.92617   0.119541
 H 0.46302 0.35406 0.20703   0.11347
 H 0.32132 0.35457 0.20771   0.11093
 H 0.32181 0.58804 0.15326   0.114335
 H 0.68355 0.97171 0.41993   0.116221
 H 0.14694 0.28935 0.4636   0.120471
 H 0.3267 0.17075 0.57781   0.112707
 H 0.32453 0.26479 0.67406   0.125492
 H 0.14514 0.38357 0.55969   0.123196
 H 0.93676 0.91436 0.35446   0.114584
 H 0.93231 0.46199 0.91661   0.118226
 H 0.34351 0.28176 0.9779   0.121153
 H 0.12773 0.3668 0.06064   0.114038
 H 0.13071 0.27465 0.15862   0.115584
 H 0.34545 0.18805 0.07467   0.119916
 H 0.53685 0.64393 0.78723   0.113091
 H 0.9317 0.59232 0.71963   0.113224
 H 0.78995 0.59338 0.72059   0.116713
 H 0.54184 0.97368 0.42176   0.11693
 H 0.12837 0.78355 0.47933   0.121305
 H 0.34773 0.86393 0.55801   0.112655
 H 0.34501 0.77138 0.6557   0.116633
 H 0.12655 0.68951 0.57583   0.119513
 H 0.93658 0.14199 0.27973   0.113049
 H 0.795 0.14102 0.27745   0.110224
 H 0.7951 0.91434 0.35467   0.105689
 H 0.54082 0.08291 0.21285   0.11326
 H 0.68271 0.08351 0.21259   0.117677
 H 0.79051 0.46129 0.91638   0.109849
 H 0.32462 0.79028 0.96239   0.120295
 H 0.14657 0.67071 0.07802   0.11268
 H 0.14914 0.76465 0.17431   0.125493
 H 0.32683 0.88442 0.0585   0.122893
 H 0.53629 0.413 0.85185   0.115216
 H 0.67774 0.41282 0.85268   0.113756
 H 0.67845 0.64365 0.78742   0.11166
 C 0.76502 0.33495 0.31693   0.70874
 C 0.34693 0.00427 0.62544   -0.147829
 C 0.76402 0.27698 0.37607   -0.095566
 C 0.76163 0.16741 0.48945   -0.093398
 C 0.76097 0.10893 0.54809   0.711754
 C 0.82272 0.21895 0.48371   -0.075492
 C 0.7014 0.17214 0.43802   -0.064631
 C 0.70284 0.22557 0.38196   -0.081001
 C 0.82381 0.27292 0.42807   -0.07889
 C 0.09327 0.90818 0.70341   -0.050009
 C 0.17481 0.90891 0.70497   -0.15456
 C 0.17462 0.03492 0.65964   -0.145228
 C 0.76184 0.10744 0.81693   0.705996
 C 0.09795 0.50784 0.12675   -0.059343
 C 0.76296 0.16571 0.87604   -0.088823
 C 0.76543 0.27625 0.98891   -0.098012
 C 0.76619 0.33467 0.04782   0.703741
 C 0.71389 0.21548 0.99171   -0.080149
 C 0.81588 0.28062 0.92875   -0.076896
 C 0.81462 0.22639 0.87333   -0.07596
 C 0.71269 0.16121 0.93631   -0.07912
 C 0.43339 0.53644 0.16544   -0.044633
 C 0.09833 0.43628 0.23785   -0.057712
 C 0.17991 0.43542 0.23707   -0.150605
 C 0.76554 0.60835 0.31606   0.706539
 C 0.42846 0.00269 0.62454   -0.05515
 C 0.7649 0.66709 0.37472   -0.089284
 C 0.76251 0.77773 0.48745   -0.096096
 C 0.76135 0.83575 0.54673   0.705614
 C 0.81424 0.71712 0.49014   -0.080334
 C 0.71215 0.78218 0.42722   -0.077188
 C 0.71339 0.72789 0.37184   -0.076376
 C 0.8154 0.66281 0.43482   -0.077407
 C 0.09306 0.03484 0.6598   -0.051603
 C 0.42846 0.94093 0.7411   -0.055714
 C 0.34687 0.94053 0.74089   -0.154544
 C 0.76143 0.83405 0.81602   0.709233
 C 0.17952 0.50873 0.12715   -0.140976
 C 0.76218 0.77578 0.8749   -0.099445
 C 0.76461 0.66642 0.98852   -0.092428
 C 0.76538 0.60818 0.04743   0.707669
 C 0.70444 0.71905 0.98366   -0.077087
 C 0.82386 0.66989 0.93599   -0.066288
 C 0.82234 0.72317 0.87977   -0.077083
 C 0.70335 0.77291 0.92794   -0.079945
 C 0.43315 0.40567 0.19533   -0.047073
 C 0.35156 0.40601 0.1961   -0.159062
 C 0.35183 0.53645 0.16493   -0.158136
 C 0.4707 0.97155 0.68266   -0.125904
 C 0.96362 0.97125 0.68147   0.717438
 C 0.55794 0.97133 0.68241   0.717677
 C 0.30456 0.97253 0.6832   0.074207
 C 0.05089 0.97136 0.6814   -0.127312
 C 0.21705 0.97216 0.68272   0.0777
 C 0.05596 0.47193 0.18234   -0.121025
 C 0.56301 0.47108 0.18117   0.715266
 C 0.96881 0.47162 0.1823   0.717526
 C 0.22199 0.47189 0.18181   0.067254
 C 0.47563 0.47104 0.18059   -0.131685
 C 0.30942 0.47144 0.18096   0.086208
 C 0.23424 0.39106 0.68388   0.706166
 C 0.6532 0.99589 0.37426   -0.149189
 C 0.23478 0.33242 0.62516   -0.088263
 C 0.23704 0.22192 0.51228   -0.09668
 C 0.2382 0.16387 0.453   0.706122
 C 0.18615 0.28317 0.50913   -0.079762
 C 0.28661 0.2168 0.57303   -0.07746
 C 0.28539 0.27098 0.62851   -0.076235
 C 0.18507 0.33742 0.56454   -0.078232
 C 0.90668 0.96448 0.33795   -0.049857
 C 0.2389 0.16516 0.18379   0.70908
 C 0.90203 0.49064 0.87331   -0.05921
 C 0.23825 0.2234 0.12495   -0.097767
 C 0.23584 0.3328 0.01146   -0.093359
 C 0.23493 0.39097 0.95252   0.709856
 C 0.29647 0.2807 0.01675   -0.076944
 C 0.17621 0.32889 0.06358   -0.065051
 C 0.1777 0.27557 0.11972   -0.079178
 C 0.29759 0.22684 0.07246   -0.080869
 C 0.56674 0.593 0.80159   -0.047035
 C 0.90167 0.56345 0.76296   -0.05846
 C 0.82011 0.56437 0.76373   -0.149825
 C 0.23455 0.66451 0.68324   0.710833
 C 0.57168 0.9975 0.37551   -0.054482
 C 0.23551 0.72254 0.62415   -0.097004
 C 0.23784 0.83232 0.51091   -0.094177
 C 0.2386 0.89077 0.45221   0.711251
 C 0.17627 0.78136 0.51718   -0.075014
 C 0.29854 0.82696 0.5618   -0.064987
 C 0.29719 0.77337 0.61775   -0.08012
 C 0.17519 0.72732 0.57276   -0.078158
 C 0.9066 0.0918 0.29617   -0.048964
 C 0.82505 0.09117 0.29466   -0.154662
 C 0.82512 0.96454 0.3383   -0.145944
 C 0.57116 0.05862 0.25861   -0.0555
 C 0.65276 0.05916 0.25853   -0.155704
 C 0.23878 0.8914 0.1835   0.706416
 C 0.82049 0.4899 0.87297   -0.1398
 C 0.23809 0.8328 0.12471   -0.089082
 C 0.23536 0.72231 0.01179   -0.097245
 C 0.23423 0.66415 0.95261   0.702164
 C 0.28587 0.78384 0.00823   -0.079845
 C 0.1864 0.71692 0.07296   -0.077301
 C 0.18783 0.7711 0.12843   -0.075608
 C 0.28718 0.83808 0.06365   -0.079698
 C 0.5664 0.46384 0.8376   -0.047519
 C 0.64792 0.46385 0.8384   -0.154753
 C 0.64834 0.59268 0.80125   -0.157754
 C 0.52917 0.02828 0.31738   -0.125927
 C 0.03626 0.0283 0.3176   0.71791
 C 0.44193 0.02827 0.31778   0.717312
 C 0.69531 0.0274 0.31619   0.074942
 C 0.94895 0.02825 0.31735   -0.129671
 C 0.78277 0.02773 0.31626   0.078164
 C 0.94401 0.52721 0.81814   -0.120499
 C 0.43689 0.52826 0.81859   0.716823
 C 0.03116 0.52754 0.8181   0.718013
 C 0.77797 0.52741 0.81869   0.067579
 C 0.52425 0.52839 0.81923   -0.130415
 C 0.69045 0.52807 0.81956   0.083634
 O 0.71483 0.0538 0.54304   -0.631855
 O 0.81112 0.39015 0.32184   -0.633187
 O 0.8069 0.11443 0.60218   -0.633417
 O 0.71955 0.3289 0.26252   -0.636024
 O 0.92679 0.03285 0.68091   -0.639135
 O 0.81201 0.39016 0.04274   -0.628208
 O 0.71584 0.05205 0.82196   -0.63155
 O 0.72063 0.32863 0.10221   -0.632273
 O 0.80713 0.11359 0.76234   -0.631142
 O 0.59992 0.40952 0.18187   -0.641253
 O 0.71526 0.89108 0.54196   -0.631752
 O 0.8114 0.55288 0.32137   -0.631256
 O 0.8067 0.82941 0.60124   -0.632128
 O 0.71996 0.61411 0.26166   -0.631841
 O 0.92684 0.90962 0.68226   -0.642664
 O 0.81156 0.55305 0.04256   -0.628832
 O 0.7156 0.88942 0.82127   -0.633526
 O 0.7196 0.61394 0.1016   -0.632671
 O 0.80689 0.82817 0.76159   -0.636127
 O 0.59982 0.53273 0.181   -0.639558
 O 0.76088 0.9714 0.68196   -1.381137
 O 0.59455 0.97271 0.6221   -0.642106
 O 0.59491 0.97 0.74253   -0.640543
 O 0.76591 0.4714 0.18202   -1.381838
 O 0.93214 0.47302 0.12204   -0.639223
 O 0.93199 0.47009 0.24248   -0.640926
 O 0.28426 0.10852 0.45788   -0.632011
 O 0.18838 0.44655 0.67867   -0.631349
 O 0.19294 0.17017 0.39842   -0.6317
 O 0.27992 0.38521 0.73822   -0.631638
 O 0.07305 0.08991 0.31702   -0.641814
 O 0.18865 0.44601 0.95741   -0.629726
 O 0.28463 0.10971 0.17858   -0.633589
 O 0.2807 0.38527 0.89833   -0.633423
 O 0.19335 0.1711 0.23813   -0.635678
 O 0.40018 0.46656 0.81881   -0.639681
 O 0.28494 0.94576 0.45712   -0.631526
 O 0.18843 0.60932 0.67834   -0.63396
 O 0.19266 0.88529 0.39812   -0.632856
 O 0.28007 0.6705 0.73761   -0.637082
 O 0.07307 0.96668 0.31839   -0.640099
 O 0.18839 0.60866 0.95766   -0.627962
 O 0.28447 0.94699 0.17823   -0.631628
 O 0.27948 0.67041 0.89802   -0.630701
 O 0.19338 0.88538 0.23802   -0.631449
 O 0.39992 0.58977 0.81785   -0.642379
 O 0.23903 0.02797 0.31798   -1.382253
 O 0.40533 0.02698 0.3781   -0.641668
 O 0.405 0.02933 0.25767   -0.640334
 O 0.23405 0.52784 0.81806   -1.383224
 O 0.06792 0.5261 0.87831   -0.639106
 O 0.06788 0.52915 0.75787   -0.64111
