{'_ref': 'TBD', '_srcid': 'CAKYAQ_clean', 'submitters': [{'name': 'Dalar Nazarian Jeff Camp and David Sholl', 'email': 'dalar@gatech.edu jcamp6@gatech.edu'}], '_method': 'VASP DFT with PBE;DDEC'}
data_TmH3C9(NO2)3
_symmetry_space_group_name_H-M   'P 1'
_cell_length_a   6.02000006
_cell_length_b   12.77219971
_cell_length_c   13.16120000
_cell_angle_alpha   118.82899839
_cell_angle_beta   90.60900278
_cell_angle_gamma   91.68700046
_symmetry_Int_Tables_number   1
_chemical_formula_structural   TmH3C9(NO2)3
_chemical_formula_sum   'Tm2 H6 C18 N6 O12'
_cell_volume   885.788497849
_cell_formula_units_Z   2
loop_
 _symmetry_equiv_pos_site_id
 _symmetry_equiv_pos_as_xyz
  1  'x, y, z'
loop_
 _atom_site_label
 _atom_site_fract_x
 _atom_site_fract_y
 _atom_site_fract_z
 _atom_site_charge
 Tm 0.77803 0.66065 0.82171   2.011963
 Tm 0.22197 0.33935 0.17829   2.011963
 H 0.6928 0.5341 0.1607   0.073343
 H 0.0832 0.8819 0.0785   0.109234
 H 0.6462 0.559 0.5151   0.092837
 H 0.3072 0.4659 0.8393   0.073343
 H 0.9168 0.1181 0.9215   0.109236
 H 0.3538 0.441 0.4849   0.092836
 C 0.6106 0.5189 0.0945   0.218949
 C 0.6884 0.5663 0.0276   0.092075
 C 0.904 0.64 0.0544   0.642763
 C 0.8827 0.9507 0.9   0.061824
 C 0.0473 0.9288 0.0447   0.190031
 C 0.7502 0.893 0.7869   0.642623
 C 0.1239 0.5396 0.5966   0.057459
 C 0.7916 0.5348 0.5106   0.199926
 C 0.2618 0.5941 0.7061   0.692101
 C 0.3894 0.4811 0.9055   0.218948
 C 0.3116 0.4337 0.9724   0.092074
 C 0.096 0.36 0.9456   0.642762
 C 0.1173 0.0493 0.1   0.0618
 C 0.9527 0.0712 0.9553   0.190003
 C 0.2498 0.107 0.2131   0.642621
 C 0.8761 0.4604 0.4034   0.057523
 C 0.2084 0.4652 0.4894   0.19999
 C 0.7382 0.4059 0.2939   0.692095
 N 0.4236 0.4522 0.0699   -0.460726
 N 0.9297 0.8789 0.9442   -0.407045
 N 0.9142 0.5731 0.6086   -0.374842
 N 0.5764 0.5478 0.9301   -0.460725
 N 0.0703 0.1211 0.0558   -0.40704
 N 0.0858 0.4269 0.3914   -0.374857
 O 0.9503 0.6791 0.9853   -0.731318
 O 0.0202 0.6556 0.1388   -0.528868
 O 0.6934 0.7856 0.748   -0.715542
 O 0.6996 0.956 0.7438   -0.484242
 O 0.4631 0.5689 0.704   -0.708294
 O 0.1643 0.6658 0.7969   -0.674255
 O 0.0497 0.3209 0.0147   -0.731318
 O 0.9798 0.3444 0.8612   -0.528886
 O 0.3066 0.2144 0.252   -0.715542
 O 0.3004 0.044 0.2562   -0.484275
 O 0.5369 0.4311 0.296   -0.708292
 O 0.8357 0.3342 0.2031   -0.674253
