{'_ref': 'TBD', '_srcid': 'CAKYAQ_clean', 'submitters': [{'name': 'Dalar Nazarian Jeff Camp and David Sholl', 'email': 'dalar@gatech.edu jcamp6@gatech.edu'}], '_method': 'VASP DFT with PBE;DDEC'}
data_ZnH12C19NO4
_symmetry_space_group_name_H-M   'P 1'
_cell_length_a   14.07099964
_cell_length_b   15.26499990
_cell_length_c   15.35100000
_cell_angle_alpha   88.33699907
_cell_angle_beta   85.77900007
_cell_angle_gamma   85.20500019
_symmetry_Int_Tables_number   1
_chemical_formula_structural   ZnH12C19NO4
_chemical_formula_sum   'Zn4 H48 C76 N4 O16'
_cell_volume   3275.97965441
_cell_formula_units_Z   4
loop_
 _symmetry_equiv_pos_site_id
 _symmetry_equiv_pos_as_xyz
  1  'x, y, z'
loop_
 _atom_site_label
 _atom_site_fract_x
 _atom_site_fract_y
 _atom_site_fract_z
 _atom_site_charge
 Zn 0.89497 0.83529 0.60048   0.911497
 Zn 0.68621 0.85101 0.61409   0.913238
 Zn 0.10503 0.16471 0.39952   0.911497
 Zn 0.31379 0.14899 0.38591   0.913238
 H 0.9149 0.7695 0.8818   0.096379
 H 0.9129 0.7566 0.0307   0.101961
 H 0.6551 0.8781 0.0505   0.098646
 H 0.6481 0.8243 0.1884   0.103936
 H 0.6491 0.8787 0.9028   0.098996
 H 0.6512 0.8346 0.3363   0.100149
 H 0.9357 0.8345 0.3083   0.091189
 H 0.9329 0.8235 0.16   0.109543
 H 0.9267 0.1126 0.6149   0.095121
 H 0.6396 0.1417 0.6167   0.102151
 H 0.6454 0.2914 0.6156   0.103688
 H 0.9314 0.2616 0.6141   0.108924
 H 0.9205 0.3974 0.5458   0.100311
 H 0.928 0.5449 0.5451   0.093272
 H 0.0425 0.9686 0.6047   0.092064
 H 0.0687 0.7125 0.6142   0.092909
 H 0.2301 0.7119 0.6201   0.130029
 H 0.201 0.9756 0.6014   0.124966
 H 0.3753 0.7243 0.6684   0.129486
 H 0.3538 0.968 0.559   0.128998
 H 0.5356 0.7193 0.6491   0.110477
 H 0.5135 0.9731 0.5648   0.091821
 H 0.6702 0.5719 0.674   0.098846
 H 0.6642 0.4221 0.6763   0.107666
 H 0.0851 0.2305 0.1182   0.096379
 H 0.0871 0.2434 0.9693   0.101961
 H 0.3449 0.1219 0.9495   0.098645
 H 0.3519 0.1757 0.8116   0.103937
 H 0.3509 0.1213 0.0972   0.098995
 H 0.3488 0.1654 0.6637   0.100148
 H 0.0643 0.1655 0.6917   0.091189
 H 0.0671 0.1765 0.84   0.109543
 H 0.0733 0.8874 0.3851   0.095121
 H 0.3604 0.8583 0.3833   0.102151
 H 0.3546 0.7086 0.3844   0.103688
 H 0.0686 0.7384 0.3859   0.108924
 H 0.0795 0.6026 0.4542   0.100311
 H 0.072 0.4551 0.4549   0.093272
 H 0.9575 0.0314 0.3953   0.092064
 H 0.9313 0.2875 0.3858   0.092909
 H 0.7699 0.2881 0.3799   0.130029
 H 0.799 0.0244 0.3986   0.124966
 H 0.6247 0.2757 0.3316   0.129486
 H 0.6462 0.032 0.441   0.128998
 H 0.4644 0.2807 0.3509   0.110477
 H 0.4865 0.0269 0.4352   0.091821
 H 0.3298 0.4281 0.326   0.098846
 H 0.3358 0.5779 0.3237   0.107666
 C 0.7837 0.8325 0.7766   0.690291
 C 0.7825 0.8255 0.8733   -0.135206
 C 0.8603 0.7906 0.9152   -0.037769
 C 0.8605 0.7855 0.0056   -0.141004
 C 0.7085 0.855 0.0168   -0.144558
 C 0.7974 0.8452 0.4383   0.664206
 C 0.7944 0.8377 0.3392   -0.156292
 C 0.7067 0.8267 0.2121   -0.144646
 C 0.7049 0.8565 0.9273   -0.035289
 C 0.7081 0.8332 0.3013   -0.041414
 C 0.8772 0.8331 0.2842   -0.034731
 C 0.8757 0.8263 0.1946   -0.139212
 C 0.7898 0.8236 0.1552   0.048461
 C 0.7865 0.8212 0.0587   0.053291
 C 0.7798 0.0129 0.612   0.671374
 C 0.7839 0.1106 0.6151   -0.158718
 C 0.8699 0.1484 0.6148   -0.018709
 C 0.6983 0.1658 0.6158   -0.040915
 C 0.7022 0.2555 0.6154   -0.148603
 C 0.8724 0.2382 0.6145   -0.138174
 C 0.7902 0.2955 0.6146   0.040569
 C 0.794 0.3917 0.6123   0.048958
 C 0.8698 0.4321 0.5726   -0.136378
 C 0.8738 0.5209 0.5709   -0.032025
 C 0.8001 0.5754 0.6061   -0.13489
 C 0.0815 0.9163 0.6054   0.173156
 C 0.096 0.766 0.6122   0.174449
 C 0.1934 0.7651 0.6151   -0.190111
 C 0.238 0.8446 0.6104   0.090557
 C 0.1761 0.921 0.6051   -0.167685
 C 0.3422 0.8459 0.6113   0.095083
 C 0.4037 0.7725 0.6429   -0.18341
 C 0.3895 0.9194 0.5812   -0.174246
 C 0.4983 0.7709 0.6371   0.155159
 C 0.4852 0.9222 0.5832   0.168732
 C 0.8024 0.6732 0.6036   0.686601
 C 0.7207 0.5365 0.6478   -0.041396
 C 0.7176 0.4468 0.6498   -0.147506
 C 0.2163 0.1675 0.2234   0.690291
 C 0.2175 0.1745 0.1267   -0.135206
 C 0.1397 0.2094 0.0848   -0.037769
 C 0.1395 0.2145 0.9944   -0.141004
 C 0.2915 0.145 0.9832   -0.144558
 C 0.2026 0.1548 0.5617   0.664206
 C 0.2056 0.1623 0.6608   -0.156292
 C 0.2933 0.1733 0.7879   -0.144646
 C 0.2951 0.1435 0.0727   -0.035289
 C 0.2919 0.1668 0.6987   -0.041414
 C 0.1228 0.1669 0.7158   -0.034731
 C 0.1243 0.1737 0.8054   -0.139212
 C 0.2102 0.1764 0.8448   0.048461
 C 0.2135 0.1788 0.9413   0.05329
 C 0.2202 0.9871 0.388   0.671374
 C 0.2161 0.8894 0.3849   -0.158718
 C 0.1301 0.8516 0.3852   -0.018708
 C 0.3017 0.8342 0.3842   -0.040915
 C 0.2978 0.7445 0.3846   -0.148603
 C 0.1276 0.7618 0.3855   -0.138173
 C 0.2098 0.7045 0.3854   0.040569
 C 0.206 0.6083 0.3877   0.048958
 C 0.1302 0.5679 0.4274   -0.136377
 C 0.1262 0.4791 0.4291   -0.032025
 C 0.1999 0.4246 0.3939   -0.134891
 C 0.9185 0.0837 0.3946   0.173157
 C 0.904 0.234 0.3878   0.174449
 C 0.8066 0.2349 0.3849   -0.190111
 C 0.762 0.1554 0.3896   0.090557
 C 0.8239 0.079 0.3949   -0.167685
 C 0.6578 0.1541 0.3887   0.095083
 C 0.5963 0.2275 0.3571   -0.18341
 C 0.6105 0.0806 0.4188   -0.174246
 C 0.5017 0.2291 0.3629   0.155159
 C 0.5148 0.0778 0.4168   0.168732
 C 0.1976 0.3268 0.3964   0.686601
 C 0.2793 0.4635 0.3522   -0.041396
 C 0.2824 0.5532 0.3502   -0.147507
 N 0.0392 0.8392 0.6067   -0.298536
 N 0.5414 0.85 0.6122   -0.310012
 N 0.9608 0.1608 0.3933   -0.298536
 N 0.4586 0.15 0.3878   -0.310012
 O 0.6986 0.9828 0.6077   -0.593997
 O 0.8582 0.9667 0.6131   -0.591373
 O 0.8613 0.8157 0.7326   -0.601376
 O 0.7034 0.8525 0.7447   -0.606111
 O 0.7232 0.7181 0.6179   -0.606052
 O 0.882 0.7046 0.5872   -0.589851
 O 0.7179 0.8474 0.4814   -0.601751
 O 0.8778 0.8487 0.467   -0.575206
 O 0.3014 0.0172 0.3923   -0.593997
 O 0.1418 0.0333 0.3869   -0.591373
 O 0.1387 0.1843 0.2674   -0.601376
 O 0.2966 0.1475 0.2553   -0.606111
 O 0.2768 0.2819 0.3821   -0.606052
 O 0.118 0.2954 0.4128   -0.589851
 O 0.2821 0.1526 0.5186   -0.601751
 O 0.1222 0.1513 0.533   -0.575206
