{'_ref': 'TBD', '_srcid': 'CAKYAQ_clean', 'submitters': [{'name': 'Dalar Nazarian Jeff Camp and David Sholl', 'email': 'dalar@gatech.edu jcamp6@gatech.edu'}], '_method': 'VASP DFT with PBE;DDEC'}
data_ZnH10C17N3O4
_symmetry_space_group_name_H-M   'P 1'
_cell_length_a   14.01999953
_cell_length_b   15.08200020
_cell_length_c   15.12100000
_cell_angle_alpha   76.89200029
_cell_angle_beta   86.55000096
_cell_angle_gamma   83.44599852
_symmetry_Int_Tables_number   1
_chemical_formula_structural   ZnH10C17N3O4
_chemical_formula_sum   'Zn4 H40 C68 N12 O16'
_cell_volume   3091.72676694
_cell_formula_units_Z   4
loop_
 _symmetry_equiv_pos_site_id
 _symmetry_equiv_pos_as_xyz
  1  'x, y, z'
loop_
 _atom_site_label
 _atom_site_fract_x
 _atom_site_fract_y
 _atom_site_fract_z
 _atom_site_charge
 Zn 0.89806 0.10985 0.82918   0.92265
 Zn 0.68781 0.13016 0.83556   0.924698
 Zn 0.10194 0.89015 0.17082   0.92265
 Zn 0.31219 0.86984 0.16444   0.924698
 H 0.2104 0.1172 0.9664   0.124518
 H 0.2312 0.1241 0.6968   0.137507
 H 0.3591 0.0638 0.9667   0.134287
 H 0.9323 0.1023 0.1117   0.08848
 H 0.9355 0.1102 0.2603   0.120314
 H 0.6427 0.1258 0.1272   0.081393
 H 0.0492 0.1051 0.963   0.092418
 H 0.0667 0.1225 0.6993   0.094693
 H 0.6577 0.1683 0.5446   0.077323
 H 0.9393 0.0809 0.5449   0.08785
 H 0.6439 0.4305 0.819   0.093526
 H 0.9328 0.0719 0.3965   0.113661
 H 0.6554 0.5784 0.8274   0.114558
 H 0.9418 0.8118 0.844   0.070277
 H 0.6543 0.7027 0.8241   0.117736
 H 0.657 0.8495 0.8406   0.094326
 H 0.5254 0.0667 0.9655   0.07972
 H 0.9302 0.4003 0.7848   0.075077
 H 0.3644 0.1878 0.7015   0.13772
 H 0.5302 0.1911 0.7064   0.102335
 H 0.7896 0.8828 0.0336   0.124518
 H 0.7688 0.8759 0.3032   0.137507
 H 0.6409 0.9362 0.0333   0.134287
 H 0.0677 0.8977 0.8883   0.08848
 H 0.0645 0.8898 0.7397   0.120314
 H 0.3573 0.8742 0.8728   0.081393
 H 0.9508 0.8949 0.037   0.092418
 H 0.9333 0.8775 0.3007   0.094693
 H 0.3423 0.8317 0.4554   0.077323
 H 0.0607 0.9191 0.4551   0.08785
 H 0.3561 0.5695 0.181   0.093526
 H 0.0672 0.9281 0.6035   0.113661
 H 0.3446 0.4216 0.1726   0.114558
 H 0.0582 0.1882 0.156   0.070277
 H 0.3457 0.2973 0.1759   0.117736
 H 0.343 0.1505 0.1594   0.094326
 H 0.4746 0.9333 0.0345   0.07972
 H 0.0698 0.5997 0.2152   0.075077
 H 0.6356 0.8122 0.2985   0.137721
 H 0.4698 0.8089 0.2936   0.102335
 C 0.3452 0.1231 0.8323   0.111686
 C 0.2408 0.1197 0.8325   0.095477
 C 0.183 0.116 0.9108   -0.177919
 C 0.7861 0.1123 0.0042   0.691284
 C 0.7997 0.126 0.6608   0.709497
 C 0.195 0.1215 0.7523   -0.190993
 C 0.3931 0.0889 0.9121   -0.190255
 C 0.7808 0.2948 0.81   0.712687
 C 0.788 0.1132 0.1028   -0.236777
 C 0.8734 0.1082 0.1454   0.049021
 C 0.8757 0.1115 0.2334   -0.193169
 C 0.8005 0.849 0.8416   -0.235947
 C 0.7027 0.1205 0.1551   0.199094
 C 0.7937 0.1198 0.3815   0.238349
 C 0.7856 0.393 0.8078   -0.223842
 C 0.0868 0.1108 0.9081   0.183035
 C 0.0972 0.1194 0.7545   0.165041
 C 0.7912 0.1168 0.2846   0.220833
 C 0.7149 0.1486 0.5145   0.217036
 C 0.7991 0.1236 0.5624   -0.219329
 C 0.88 0.097 0.5151   0.03758
 C 0.8013 0.944 0.85   0.695734
 C 0.7055 0.4517 0.8162   0.038426
 C 0.8767 0.0933 0.427   -0.199262
 C 0.7968 0.6692 0.8232   0.240158
 C 0.7123 0.5395 0.8204   -0.205555
 C 0.8816 0.7904 0.8393   0.205744
 C 0.7143 0.7251 0.8276   -0.20528
 C 0.7161 0.8126 0.8371   0.037726
 C 0.796 0.5718 0.8149   0.245198
 C 0.4922 0.0918 0.9111   0.157341
 C 0.8719 0.4358 0.7955   0.22853
 C 0.3963 0.162 0.7566   -0.186576
 C 0.4956 0.1639 0.7598   0.166764
 C 0.6548 0.8769 0.1677   0.111686
 C 0.7592 0.8803 0.1675   0.095477
 C 0.817 0.884 0.0892   -0.177918
 C 0.2139 0.8877 0.9958   0.691284
 C 0.2003 0.874 0.3392   0.709497
 C 0.805 0.8785 0.2477   -0.190992
 C 0.6069 0.9111 0.0879   -0.190255
 C 0.2192 0.7052 0.19   0.712687
 C 0.212 0.8868 0.8972   -0.236777
 C 0.1266 0.8918 0.8546   0.049021
 C 0.1243 0.8885 0.7666   -0.193169
 C 0.1995 0.151 0.1584   -0.235947
 C 0.2973 0.8795 0.8449   0.199094
 C 0.2063 0.8802 0.6185   0.238349
 C 0.2144 0.607 0.1922   -0.223842
 C 0.9132 0.8892 0.0919   0.183035
 C 0.9028 0.8806 0.2455   0.165041
 C 0.2088 0.8832 0.7154   0.220833
 C 0.2851 0.8514 0.4855   0.217035
 C 0.2009 0.8764 0.4376   -0.219329
 C 0.12 0.903 0.4849   0.037581
 C 0.1987 0.056 0.15   0.695734
 C 0.2945 0.5483 0.1838   0.038426
 C 0.1233 0.9067 0.573   -0.199262
 C 0.2032 0.3308 0.1768   0.240158
 C 0.2877 0.4605 0.1796   -0.205555
 C 0.1184 0.2096 0.1607   0.205744
 C 0.2857 0.2749 0.1724   -0.20528
 C 0.2839 0.1874 0.1629   0.037725
 C 0.204 0.4282 0.1851   0.245198
 C 0.5078 0.9082 0.0889   0.157341
 C 0.1281 0.5642 0.2045   0.228531
 C 0.6037 0.838 0.2434   -0.186576
 C 0.5044 0.8361 0.2402   0.166764
 N 0.5426 0.1287 0.8358   -0.289234
 N 0.0432 0.1134 0.8308   -0.301543
 N 0.704 0.1201 0.2452   -0.42154
 N 0.8806 0.7015 0.8305   -0.413311
 N 0.713 0.1453 0.4276   -0.41757
 N 0.8755 0.521 0.798   -0.409395
 N 0.4574 0.8713 0.1642   -0.289234
 N 0.9568 0.8866 0.1692   -0.301543
 N 0.296 0.8799 0.7548   -0.42154
 N 0.1194 0.2985 0.1695   -0.413311
 N 0.287 0.8547 0.5724   -0.41757
 N 0.1245 0.479 0.202   -0.409395
 O 0.7059 0.1137 0.9712   -0.597682
 O 0.8657 0.1087 0.962   -0.589799
 O 0.721 0.1399 0.7012   -0.605471
 O 0.8801 0.1116 0.6968   -0.599624
 O 0.8815 0.9734 0.8537   -0.596607
 O 0.7015 0.2646 0.8207   -0.589451
 O 0.8611 0.2472 0.8025   -0.623043
 O 0.7225 0.992 0.8503   -0.612135
 O 0.2941 0.8863 0.0288   -0.597682
 O 0.1343 0.8913 0.038   -0.589799
 O 0.279 0.8601 0.2988   -0.605471
 O 0.1199 0.8884 0.3032   -0.599624
 O 0.1185 0.0266 0.1463   -0.596607
 O 0.2985 0.7354 0.1793   -0.589451
 O 0.1389 0.7528 0.1975   -0.623043
 O 0.2775 0.008 0.1497   -0.612135
