{'_ref': 'TBD', '_srcid': 'CAKYAQ_clean', 'submitters': [{'name': 'Dalar Nazarian Jeff Camp and David Sholl', 'email': 'dalar@gatech.edu jcamp6@gatech.edu'}], '_method': 'VASP DFT with PBE;DDEC'}
data_ZnH10C12(NO)2
_symmetry_space_group_name_H-M   'P 1'
_cell_length_a   13.92489960
_cell_length_b   18.11129982
_cell_length_c   18.11130000
_cell_angle_alpha   81.46810011
_cell_angle_beta   67.39190067
_cell_angle_gamma   67.39189932
_symmetry_Int_Tables_number   1
_chemical_formula_structural   ZnH10C12(NO)2
_chemical_formula_sum   'Zn8 H80 C96 N16 O16'
_cell_volume   3892.61361664
_cell_formula_units_Z   8
loop_
 _symmetry_equiv_pos_site_id
 _symmetry_equiv_pos_as_xyz
  1  'x, y, z'
loop_
 _atom_site_label
 _atom_site_fract_x
 _atom_site_fract_y
 _atom_site_fract_z
 _atom_site_charge
 Zn 0.84436 0.2692 0.28312   0.858215
 Zn 0.65564 0.21688 0.2308   0.858218
 Zn 0.10332 0.28312 0.2692   0.856434
 Zn 0.39668 0.2308 0.21688   0.856433
 Zn 0.15564 0.7308 0.71688   0.858215
 Zn 0.34436 0.78312 0.7692   0.858218
 Zn 0.89668 0.71688 0.7308   0.856434
 Zn 0.60332 0.7692 0.78312   0.856433
 H 0.7961 0.1309 0.4849   0.100571
 H 0.8031 0.0288 0.5804   0.115727
 H 0.003 0.8076 0.6114   0.116374
 H 0.9615 0.8982 0.5878   0.132048
 H 0.9895 0.832 0.5282   0.136697
 H 0.0434 0.0463 0.1679   0.102362
 H 0.1418 0.9477 0.0723   0.11341
 H 0.1513 0.8903 0.8659   0.126509
 H 0.1203 0.9783 0.8907   0.135732
 H 0.1118 0.9116 0.9562   0.129119
 H 0.7039 0.0151 0.3691   0.100571
 H 0.6969 0.9196 0.4712   0.115727
 H 0.497 0.8886 0.6924   0.116374
 H 0.5385 0.9122 0.6018   0.132048
 H 0.5105 0.9718 0.668   0.136697
 H 0.4566 0.3321 0.4537   0.102362
 H 0.3582 0.4277 0.5523   0.11341
 H 0.3487 0.6341 0.6097   0.12651
 H 0.3797 0.6093 0.5217   0.135732
 H 0.3882 0.5438 0.5884   0.129119
 H 0.0881 0.4849 0.1309   0.09834
 H 0.0877 0.5804 0.0288   0.11448
 H 0.078 0.6114 0.8076   0.115281
 H 0.0525 0.5878 0.8982   0.133262
 H 0.1503 0.5282 0.832   0.137137
 H 0.2424 0.1679 0.0463   0.102958
 H 0.3382 0.0723 0.9477   0.114053
 H 0.5925 0.8659 0.8903   0.12555
 H 0.5107 0.8907 0.9783   0.13473
 H 0.5204 0.9562 0.9116   0.127341
 H 0.4119 0.3691 0.0151   0.09834
 H 0.4123 0.4712 0.9196   0.11448
 H 0.422 0.6924 0.8886   0.115281
 H 0.4475 0.6018 0.9122   0.133262
 H 0.3497 0.668 0.9718   0.137137
 H 0.2576 0.4537 0.3321   0.102958
 H 0.1618 0.5523 0.4277   0.114053
 H 0.9075 0.6097 0.6341   0.12555
 H 0.9893 0.5217 0.6093   0.13473
 H 0.9796 0.5884 0.5438   0.127341
 H 0.2039 0.8691 0.5151   0.100571
 H 0.1969 0.9712 0.4196   0.115728
 H 0.997 0.1924 0.3886   0.116374
 H 0.0385 0.1018 0.4122   0.132048
 H 0.0105 0.168 0.4718   0.136698
 H 0.9566 0.9537 0.8321   0.102362
 H 0.8582 0.0523 0.9277   0.11341
 H 0.8487 0.1097 0.1341   0.126509
 H 0.8797 0.0217 0.1093   0.135733
 H 0.8882 0.0884 0.0438   0.129119
 H 0.2961 0.9849 0.6309   0.100571
 H 0.3031 0.0804 0.5288   0.115728
 H 0.503 0.1114 0.3076   0.116374
 H 0.4615 0.0878 0.3982   0.132048
 H 0.4895 0.0282 0.332   0.136698
 H 0.5434 0.6679 0.5463   0.102362
 H 0.6418 0.5723 0.4477   0.11341
 H 0.6513 0.3659 0.3903   0.12651
 H 0.6203 0.3907 0.4783   0.135733
 H 0.6118 0.4562 0.4116   0.129119
 H 0.9119 0.5151 0.8691   0.09834
 H 0.9123 0.4196 0.9712   0.114481
 H 0.922 0.3886 0.1924   0.115281
 H 0.9475 0.4122 0.1018   0.133262
 H 0.8497 0.4718 0.168   0.137137
 H 0.7576 0.8321 0.9537   0.102958
 H 0.6618 0.9277 0.0523   0.114054
 H 0.4075 0.1341 0.1097   0.12555
 H 0.4893 0.1093 0.0217   0.134731
 H 0.4796 0.0438 0.0884   0.127341
 H 0.5881 0.6309 0.9849   0.09834
 H 0.5877 0.5288 0.0804   0.114481
 H 0.578 0.3076 0.1114   0.115281
 H 0.5525 0.3982 0.0878   0.133262
 H 0.6503 0.332 0.0282   0.137137
 H 0.7424 0.5463 0.6679   0.102958
 H 0.8382 0.4477 0.5723   0.114054
 H 0.0925 0.3903 0.3659   0.12555
 H 0.0107 0.4783 0.3907   0.134731
 H 0.0204 0.4116 0.4562   0.127341
 C 0.7783 0.0877 0.4801   -0.027264
 C 0.7804 0.0262 0.5392   -0.181097
 C 0.8415 0.8501 0.6195   0.260471
 C 0.9594 0.8467 0.5835   -0.376674
 C 0.1034 0.0512 0.124   -0.01553
 C 0.1623 0.9921 0.0659   -0.17725
 C 0.27239 0.90411 0.89351   0.270175
 C 0.1531 0.9228 0.9024   -0.386119
 C 0.7217 0.0199 0.4123   -0.027264
 C 0.7196 0.9608 0.4738   -0.181097
 C 0.6585 0.8805 0.6499   0.26047
 C 0.5406 0.9165 0.6533   -0.376674
 C 0.3966 0.376 0.4488   -0.01553
 C 0.3377 0.4341 0.5079   -0.17725
 C 0.22761 0.60649 0.59589   0.270175
 C 0.3469 0.5976 0.5772   -0.386119
 C 0.1539 0.4801 0.0877   -0.025061
 C 0.1542 0.5392 0.0262   -0.180407
 C 0.1889 0.6195 0.8501   0.258488
 C 0.1104 0.5835 0.8467   -0.376343
 C 0.2214 0.124 0.0512   -0.016944
 C 0.2797 0.0659 0.9921   -0.174939
 C 0.42999 0.89351 0.90411   0.271289
 C 0.5217 0.9024 0.9228   -0.382748
 C 0.3461 0.4123 0.0199   -0.025061
 C 0.3458 0.4738 0.9608   -0.180407
 C 0.3111 0.6499 0.8805   0.258487
 C 0.3896 0.6533 0.9165   -0.376343
 C 0.2786 0.4488 0.376   -0.016944
 C 0.2203 0.5079 0.4341   -0.174939
 C 0.07001 0.59589 0.60649   0.271289
 C 0.9783 0.5772 0.5976   -0.382748
 C 0.2217 0.9123 0.5199   -0.027264
 C 0.2196 0.9738 0.4608   -0.181097
 C 0.1585 0.1499 0.3805   0.260471
 C 0.0406 0.1533 0.4165   -0.376674
 C 0.8966 0.9488 0.876   -0.01553
 C 0.8377 0.0079 0.9341   -0.17725
 C 0.72761 0.09589 0.10649   0.270175
 C 0.8469 0.0772 0.0976   -0.386119
 C 0.2783 0.9801 0.5877   -0.027264
 C 0.2804 0.0392 0.5262   -0.181097
 C 0.3415 0.1195 0.3501   0.26047
 C 0.4594 0.0835 0.3467   -0.376674
 C 0.6034 0.624 0.5512   -0.01553
 C 0.6623 0.5659 0.4921   -0.17725
 C 0.77239 0.39351 0.40411   0.270175
 C 0.6531 0.4024 0.4228   -0.386119
 C 0.8461 0.5199 0.9123   -0.025061
 C 0.8458 0.4608 0.9738   -0.180407
 C 0.8111 0.3805 0.1499   0.258488
 C 0.8896 0.4165 0.1533   -0.376343
 C 0.7786 0.876 0.9488   -0.016944
 C 0.7203 0.9341 0.0079   -0.174939
 C 0.57001 0.10649 0.09589   0.27129
 C 0.4783 0.0976 0.0772   -0.382748
 C 0.6539 0.5877 0.9801   -0.025061
 C 0.6542 0.5262 0.0392   -0.180407
 C 0.6889 0.3501 0.1195   0.258487
 C 0.6104 0.3467 0.0835   -0.376343
 C 0.7214 0.5512 0.624   -0.016944
 C 0.7797 0.4921 0.5659   -0.174939
 C 0.92999 0.40411 0.39351   0.27129
 C 0.0217 0.4228 0.4024   -0.382748
 C 0.75 0.1464 0.3536   0.721642
 C 0.75 0.0841 0.4159   -0.171917
 C 0.75 0.9633 0.5367   0.165537
 C 0.75 0.9022 0.5978   -0.291256
 C 0.25 0.3536 0.1464   0.71887
 C 0.25 0.4159 0.0841   -0.170071
 C 0.25 0.5367 0.9633   0.165102
 C 0.25 0.5978 0.9022   -0.288999
 C 0.25 0.8536 0.6464   0.721642
 C 0.25 0.9159 0.5841   -0.171917
 C 0.25 0.0367 0.4633   0.165537
 C 0.25 0.0978 0.4022   -0.291256
 C 0.75 0.6464 0.8536   0.71887
 C 0.75 0.5841 0.9159   -0.170071
 C 0.75 0.4633 0.0367   0.165102
 C 0.75 0.4022 0.0978   -0.288999
 C 0.0697 0.1803 0.1803   0.674326
 C 0.1328 0.1172 0.1172   -0.166749
 C 0.2523 0.9977 0.9977   0.152586
 C 0.3145 0.9355 0.9355   -0.297723
 C 0.4303 0.3197 0.3197   0.674327
 C 0.3672 0.3828 0.3828   -0.166749
 C 0.2477 0.5023 0.5023   0.152586
 C 0.1855 0.5645 0.5645   -0.297723
 C 0.9303 0.8197 0.8197   0.674326
 C 0.8672 0.8828 0.8828   -0.166749
 C 0.7477 0.0023 0.0023   0.152586
 C 0.6855 0.0645 0.0645   -0.297723
 C 0.5697 0.6803 0.6803   0.674327
 C 0.6328 0.6172 0.6172   -0.166749
 C 0.7523 0.4977 0.4977   0.152586
 C 0.8145 0.4355 0.4355   -0.297723
 N 0.8069 0.80129 0.67851   -0.323248
 N 0.35496 0.84726 0.84262   -0.323747
 N 0.6931 0.82149 0.69871   -0.323243
 N 0.14504 0.65738 0.65274   -0.323746
 N 0.2133 0.67851 0.80129   -0.324231
 N 0.45516 0.84262 0.84726   -0.323357
 N 0.2867 0.69871 0.82149   -0.324225
 N 0.04484 0.65274 0.65738   -0.323358
 N 0.1931 0.19871 0.32149   -0.323248
 N 0.64504 0.15274 0.15738   -0.323747
 N 0.3069 0.17851 0.30129   -0.323243
 N 0.85496 0.34262 0.34726   -0.323746
 N 0.7867 0.32149 0.19871   -0.324231
 N 0.54484 0.15738 0.15274   -0.323357
 N 0.7133 0.30129 0.17851   -0.324225
 N 0.95516 0.34726 0.34262   -0.323358
 O 0.76386 0.20732 0.36516   -0.59293
 O 0.98066 0.1761 0.23498   -0.586658
 O 0.73614 0.13484 0.29268   -0.59293
 O 0.51934 0.26502 0.3239   -0.586658
 O 0.16366 0.36516 0.20732   -0.591182
 O 0.10826 0.23498 0.1761   -0.587925
 O 0.33634 0.29268 0.13484   -0.591182
 O 0.39174 0.3239 0.26502   -0.587925
 O 0.23614 0.79268 0.63484   -0.59293
 O 0.01934 0.8239 0.76502   -0.586658
 O 0.26386 0.86516 0.70732   -0.59293
 O 0.48066 0.73498 0.6761   -0.586658
 O 0.83634 0.63484 0.79268   -0.591182
 O 0.89174 0.76502 0.8239   -0.587925
 O 0.66366 0.70732 0.86516   -0.591182
 O 0.60826 0.6761 0.73498   -0.587925
