{'_ref': 'TBD', '_srcid': 'CAKYAQ_clean', 'submitters': [{'name': 'Dalar Nazarian Jeff Camp and David Sholl', 'email': 'dalar@gatech.edu jcamp6@gatech.edu'}], '_method': 'VASP DFT with PBE;DDEC'}
data_CaLuH12(C4O5)3
_symmetry_space_group_name_H-M   'P 1'
_cell_length_a   18.62499987
_cell_length_b   18.62500004
_cell_length_c   18.62500000
_cell_angle_alpha   60.00000007
_cell_angle_beta   59.99999978
_cell_angle_gamma   60.00000117
_symmetry_Int_Tables_number   1
_chemical_formula_structural   CaLuH12(C4O5)3
_chemical_formula_sum   'Ca8 Lu8 H96 C96 O120'
_cell_volume   4568.50229754
_cell_formula_units_Z   8
loop_
 _symmetry_equiv_pos_site_id
 _symmetry_equiv_pos_as_xyz
  1  'x, y, z'
loop_
 _atom_site_label
 _atom_site_fract_x
 _atom_site_fract_y
 _atom_site_fract_z
 _atom_site_charge
 Ca 0.5 0.5 0.5   1.50709
 Ca 0.0 0.0 0.5   1.50709
 Ca 0.0 0.5 0.0   1.50709
 Ca 0.0 0.5 0.5   1.50709
 Ca 0.5 0.5 0.0   1.50709
 Ca 0.0 0.0 0.0   1.50709
 Ca 0.5 0.0 0.5   1.50709
 Ca 0.5 0.0 0.0   1.50709
 Lu 0.75 0.25 0.25   1.567584
 Lu 0.75 0.25 0.75   1.567584
 Lu 0.75 0.75 0.25   1.567584
 Lu 0.25 0.25 0.25   1.567584
 Lu 0.25 0.75 0.75   1.567584
 Lu 0.25 0.75 0.25   1.567584
 Lu 0.25 0.25 0.75   1.567584
 Lu 0.75 0.75 0.75   1.567584
 H 0.5163 0.4161 0.3447   0.10262
 H 0.5774 0.4736 0.2946   0.109806
 H 0.9161 0.0163 0.7229   0.10262
 H 0.9736 0.0774 0.6544   0.109806
 H 0.8447 0.7229 0.0163   0.102619
 H 0.7946 0.6544 0.0774   0.109806
 H 0.2229 0.3447 0.4161   0.102619
 H 0.1544 0.2946 0.4736   0.109806
 H 0.5163 0.3447 0.7229   0.102619
 H 0.5774 0.2946 0.6544   0.109806
 H 0.9161 0.7229 0.3447   0.102619
 H 0.9736 0.6544 0.2946   0.109806
 H 0.8447 0.0163 0.4161   0.10262
 H 0.7946 0.0774 0.4736   0.109806
 H 0.2229 0.4161 0.0163   0.10262
 H 0.1544 0.4736 0.0774   0.109806
 H 0.5163 0.7229 0.4161   0.10262
 H 0.5774 0.6544 0.4736   0.109806
 H 0.9161 0.3447 0.0163   0.10262
 H 0.9736 0.2946 0.0774   0.109806
 H 0.8447 0.4161 0.7229   0.102619
 H 0.7946 0.4736 0.6544   0.109806
 H 0.2229 0.0163 0.3447   0.102619
 H 0.1544 0.0774 0.2946   0.109806
 H 0.5839 0.4837 0.1553   0.10262
 H 0.5264 0.4226 0.2054   0.109806
 H 0.9837 0.0839 0.7771   0.10262
 H 0.9226 0.0264 0.8456   0.109806
 H 0.2771 0.1553 0.4837   0.10262
 H 0.3456 0.2054 0.4226   0.109806
 H 0.6553 0.7771 0.0839   0.10262
 H 0.7054 0.8456 0.0264   0.109806
 H 0.6553 0.4837 0.7771   0.10262
 H 0.7054 0.4226 0.8456   0.109806
 H 0.2771 0.0839 0.1553   0.10262
 H 0.3456 0.0264 0.2054   0.109806
 H 0.9837 0.1553 0.0839   0.10262
 H 0.9226 0.2054 0.0264   0.109806
 H 0.5839 0.7771 0.4837   0.10262
 H 0.5264 0.8456 0.4226   0.109806
 H 0.2771 0.4837 0.0839   0.10262
 H 0.3456 0.4226 0.0264   0.109806
 H 0.6553 0.0839 0.4837   0.10262
 H 0.7054 0.0264 0.4226   0.109806
 H 0.5839 0.1553 0.7771   0.10262
 H 0.5264 0.2054 0.8456   0.109806
 H 0.9837 0.7771 0.1553   0.10262
 H 0.9226 0.8456 0.2054   0.109806
 H 0.4837 0.5839 0.6553   0.10262
 H 0.4226 0.5264 0.7054   0.109806
 H 0.0839 0.9837 0.2771   0.10262
 H 0.0264 0.9226 0.3456   0.109806
 H 0.1553 0.2771 0.9837   0.10262
 H 0.2054 0.3456 0.9226   0.109806
 H 0.7771 0.6553 0.5839   0.10262
 H 0.8456 0.7054 0.5264   0.109806
 H 0.4837 0.6553 0.2771   0.10262
 H 0.4226 0.7054 0.3456   0.109806
 H 0.0839 0.2771 0.6553   0.10262
 H 0.0264 0.3456 0.7054   0.109806
 H 0.1553 0.9837 0.5839   0.10262
 H 0.2054 0.9226 0.5264   0.109806
 H 0.7771 0.5839 0.9837   0.10262
 H 0.8456 0.5264 0.9226   0.109806
 H 0.4837 0.2771 0.5839   0.10262
 H 0.4226 0.3456 0.5264   0.109806
 H 0.0839 0.6553 0.9837   0.10262
 H 0.0264 0.7054 0.9226   0.109806
 H 0.1553 0.5839 0.2771   0.10262
 H 0.2054 0.5264 0.3456   0.109806
 H 0.7771 0.9837 0.6553   0.10262
 H 0.8456 0.9226 0.7054   0.109806
 H 0.4161 0.5163 0.8447   0.10262
 H 0.4736 0.5774 0.7946   0.109806
 H 0.0163 0.9161 0.2229   0.10262
 H 0.0774 0.9736 0.1544   0.109807
 H 0.7229 0.8447 0.5163   0.10262
 H 0.6544 0.7946 0.5774   0.109806
 H 0.3447 0.2229 0.9161   0.10262
 H 0.2946 0.1544 0.9736   0.109806
 H 0.3447 0.5163 0.2229   0.10262
 H 0.2946 0.5774 0.1544   0.109806
 H 0.7229 0.9161 0.8447   0.10262
 H 0.6544 0.9736 0.7946   0.109806
 H 0.0163 0.8447 0.9161   0.10262
 H 0.0774 0.7946 0.9736   0.109806
 H 0.4161 0.2229 0.5163   0.10262
 H 0.4736 0.1544 0.5774   0.109807
 H 0.7229 0.5163 0.9161   0.10262
 H 0.6544 0.5774 0.9736   0.109807
 H 0.3447 0.9161 0.5163   0.10262
 H 0.2946 0.9736 0.5774   0.109806
 H 0.4161 0.8447 0.2229   0.10262
 H 0.4736 0.7946 0.1544   0.109806
 H 0.0163 0.2229 0.8447   0.10262
 H 0.0774 0.1544 0.7946   0.109806
 C 0.57704 0.41416 0.31792   -0.114903
 C 0.62192 0.35828 0.38552   0.717529
 C 0.91416 0.07704 0.69088   -0.114903
 C 0.85828 0.12192 0.63428   0.71753
 C 0.81792 0.69088 0.07704   -0.114902
 C 0.88552 0.63428 0.12192   0.717529
 C 0.19088 0.31792 0.41416   -0.114902
 C 0.13428 0.38552 0.35828   0.71753
 C 0.57704 0.31792 0.69088   -0.114902
 C 0.62192 0.38552 0.63428   0.717529
 C 0.91416 0.69088 0.31792   -0.114902
 C 0.85828 0.63428 0.38552   0.71753
 C 0.81792 0.07704 0.41416   -0.114903
 C 0.88552 0.12192 0.35828   0.717529
 C 0.19088 0.41416 0.07704   -0.114903
 C 0.13428 0.35828 0.12192   0.71753
 C 0.57704 0.69088 0.41416   -0.114903
 C 0.62192 0.63428 0.35828   0.71753
 C 0.91416 0.31792 0.07704   -0.114903
 C 0.85828 0.38552 0.12192   0.717529
 C 0.81792 0.41416 0.69088   -0.114903
 C 0.88552 0.35828 0.63428   0.71753
 C 0.19088 0.07704 0.31792   -0.114902
 C 0.13428 0.12192 0.38552   0.717529
 C 0.58584 0.42296 0.18208   -0.114903
 C 0.64172 0.37808 0.11448   0.717529
 C 0.92296 0.08584 0.80912   -0.114903
 C 0.87808 0.14172 0.86572   0.71753
 C 0.30912 0.18208 0.42296   -0.114902
 C 0.36572 0.11448 0.37808   0.717529
 C 0.68208 0.80912 0.08584   -0.114903
 C 0.61448 0.86572 0.14172   0.71753
 C 0.68208 0.42296 0.80912   -0.114902
 C 0.61448 0.37808 0.86572   0.717529
 C 0.30912 0.08584 0.18208   -0.114902
 C 0.36572 0.14172 0.11448   0.71753
 C 0.92296 0.18208 0.08584   -0.114903
 C 0.87808 0.11448 0.14172   0.717529
 C 0.58584 0.80912 0.42296   -0.114903
 C 0.64172 0.86572 0.37808   0.71753
 C 0.30912 0.42296 0.08584   -0.114903
 C 0.36572 0.37808 0.14172   0.71753
 C 0.68208 0.08584 0.42296   -0.114903
 C 0.61448 0.14172 0.37808   0.717529
 C 0.58584 0.18208 0.80912   -0.114903
 C 0.64172 0.11448 0.86572   0.71753
 C 0.92296 0.80912 0.18208   -0.114902
 C 0.87808 0.86572 0.11448   0.717529
 C 0.42296 0.58584 0.68208   -0.114903
 C 0.37808 0.64172 0.61448   0.717529
 C 0.08584 0.92296 0.30912   -0.114903
 C 0.14172 0.87808 0.36572   0.71753
 C 0.18208 0.30912 0.92296   -0.114902
 C 0.11448 0.36572 0.87808   0.717529
 C 0.80912 0.68208 0.58584   -0.114903
 C 0.86572 0.61448 0.64172   0.71753
 C 0.42296 0.68208 0.30912   -0.114902
 C 0.37808 0.61448 0.36572   0.717529
 C 0.08584 0.30912 0.68208   -0.114903
 C 0.14172 0.36572 0.61448   0.71753
 C 0.18208 0.92296 0.58584   -0.114903
 C 0.11448 0.87808 0.64172   0.717529
 C 0.80912 0.58584 0.92296   -0.114903
 C 0.86572 0.64172 0.87808   0.71753
 C 0.42296 0.30912 0.58584   -0.114903
 C 0.37808 0.36572 0.64172   0.71753
 C 0.08584 0.68208 0.92296   -0.114903
 C 0.14172 0.61448 0.87808   0.717529
 C 0.18208 0.58584 0.30912   -0.114903
 C 0.11448 0.64172 0.36572   0.71753
 C 0.80912 0.92296 0.68208   -0.114902
 C 0.86572 0.87808 0.61448   0.717529
 C 0.41416 0.57704 0.81792   -0.114903
 C 0.35828 0.62192 0.88552   0.717529
 C 0.07704 0.91416 0.19088   -0.114903
 C 0.12192 0.85828 0.13428   0.71753
 C 0.69088 0.81792 0.57704   -0.114902
 C 0.63428 0.88552 0.62192   0.717529
 C 0.31792 0.19088 0.91416   -0.114903
 C 0.38552 0.13428 0.85828   0.71753
 C 0.31792 0.57704 0.19088   -0.114902
 C 0.38552 0.62192 0.13428   0.717529
 C 0.69088 0.91416 0.81792   -0.114903
 C 0.63428 0.85828 0.88552   0.71753
 C 0.07704 0.81792 0.91416   -0.114903
 C 0.12192 0.88552 0.85828   0.717529
 C 0.41416 0.19088 0.57704   -0.114903
 C 0.35828 0.13428 0.62192   0.71753
 C 0.69088 0.57704 0.91416   -0.114903
 C 0.63428 0.62192 0.85828   0.71753
 C 0.31792 0.91416 0.57704   -0.114903
 C 0.38552 0.85828 0.62192   0.717529
 C 0.41416 0.81792 0.19088   -0.114903
 C 0.35828 0.88552 0.13428   0.71753
 C 0.07704 0.19088 0.81792   -0.114902
 C 0.12192 0.13428 0.88552   0.717529
 O 0.68872 0.29362 0.37114   -0.567773
 O 0.59087 0.37923 0.45171   -0.648044
 O 0.79362 0.18872 0.64652   -0.567772
 O 0.87923 0.09087 0.57819   -0.648043
 O 0.87114 0.64652 0.18872   -0.567773
 O 0.95171 0.57819 0.09087   -0.648044
 O 0.14652 0.37114 0.29362   -0.567773
 O 0.07819 0.45171 0.37923   -0.648044
 O 0.68872 0.37114 0.64652   -0.567773
 O 0.59087 0.45171 0.57819   -0.648044
 O 0.79362 0.64652 0.37114   -0.567773
 O 0.87923 0.57819 0.45171   -0.648044
 O 0.87114 0.18872 0.29362   -0.567773
 O 0.95171 0.09087 0.37923   -0.648044
 O 0.14652 0.29362 0.18872   -0.567772
 O 0.07819 0.37923 0.09087   -0.648043
 O 0.68872 0.64652 0.29362   -0.567772
 O 0.59087 0.57819 0.37923   -0.648043
 O 0.79362 0.37114 0.18872   -0.567773
 O 0.87923 0.45171 0.09087   -0.648044
 O 0.87114 0.29362 0.64652   -0.567773
 O 0.95171 0.37923 0.57819   -0.648044
 O 0.14652 0.18872 0.37114   -0.567773
 O 0.07819 0.09087 0.45171   -0.648044
 O 0.70638 0.31128 0.12886   -0.567773
 O 0.62077 0.40913 0.04829   -0.648044
 O 0.81128 0.20638 0.85348   -0.567772
 O 0.90913 0.12077 0.92181   -0.648043
 O 0.35348 0.12886 0.31128   -0.567773
 O 0.42181 0.04829 0.40913   -0.648044
 O 0.62886 0.85348 0.20638   -0.567773
 O 0.54829 0.92181 0.12077   -0.648044
 O 0.62886 0.31128 0.85348   -0.567773
 O 0.54829 0.40913 0.92181   -0.648044
 O 0.35348 0.20638 0.12886   -0.567773
 O 0.42181 0.12077 0.04829   -0.648044
 O 0.81128 0.12886 0.20638   -0.567773
 O 0.90913 0.04829 0.12077   -0.648044
 O 0.70638 0.85348 0.31128   -0.567772
 O 0.62077 0.92181 0.40913   -0.648043
 O 0.35348 0.31128 0.20638   -0.567772
 O 0.42181 0.40913 0.12077   -0.648043
 O 0.62886 0.20638 0.31128   -0.567773
 O 0.54829 0.12077 0.40913   -0.648044
 O 0.70638 0.12886 0.85348   -0.567773
 O 0.62077 0.04829 0.92181   -0.648044
 O 0.81128 0.85348 0.12886   -0.567773
 O 0.90913 0.92181 0.04829   -0.648044
 O 0.31128 0.70638 0.62886   -0.567773
 O 0.40913 0.62077 0.54829   -0.648044
 O 0.20638 0.81128 0.35348   -0.567772
 O 0.12077 0.90913 0.42181   -0.648043
 O 0.12886 0.35348 0.81128   -0.567773
 O 0.04829 0.42181 0.90913   -0.648044
 O 0.85348 0.62886 0.70638   -0.567773
 O 0.92181 0.54829 0.62077   -0.648044
 O 0.31128 0.62886 0.35348   -0.567773
 O 0.40913 0.54829 0.42181   -0.648044
 O 0.20638 0.35348 0.62886   -0.567773
 O 0.12077 0.42181 0.54829   -0.648044
 O 0.12886 0.81128 0.70638   -0.567773
 O 0.04829 0.90913 0.62077   -0.648044
 O 0.85348 0.70638 0.81128   -0.567772
 O 0.92181 0.62077 0.90913   -0.648043
 O 0.31128 0.35348 0.70638   -0.567772
 O 0.40913 0.42181 0.62077   -0.648043
 O 0.20638 0.62886 0.81128   -0.567773
 O 0.12077 0.54829 0.90913   -0.648044
 O 0.12886 0.70638 0.35348   -0.567773
 O 0.04829 0.62077 0.42181   -0.648044
 O 0.85348 0.81128 0.62886   -0.567773
 O 0.92181 0.90913 0.54829   -0.648044
 O 0.29362 0.68872 0.87114   -0.567773
 O 0.37923 0.59087 0.95171   -0.648044
 O 0.18872 0.79362 0.14652   -0.567772
 O 0.09087 0.87923 0.07819   -0.648043
 O 0.64652 0.87114 0.68872   -0.567773
 O 0.57819 0.95171 0.59087   -0.648044
 O 0.37114 0.14652 0.79362   -0.567773
 O 0.45171 0.07819 0.87923   -0.648044
 O 0.37114 0.68872 0.14652   -0.567773
 O 0.45171 0.59087 0.07819   -0.648044
 O 0.64652 0.79362 0.87114   -0.567773
 O 0.57819 0.87923 0.95171   -0.648044
 O 0.18872 0.87114 0.79362   -0.567773
 O 0.09087 0.95171 0.87923   -0.648044
 O 0.29362 0.14652 0.68872   -0.567772
 O 0.37923 0.07819 0.59087   -0.648043
 O 0.64652 0.68872 0.79362   -0.567772
 O 0.57819 0.59087 0.87923   -0.648043
 O 0.37114 0.79362 0.68872   -0.567773
 O 0.45171 0.87923 0.59087   -0.648044
 O 0.29362 0.87114 0.14652   -0.567773
 O 0.37923 0.95171 0.07819   -0.648044
 O 0.18872 0.14652 0.87114   -0.567773
 O 0.09087 0.07819 0.95171   -0.648044
 O 0.62074 0.37926 0.25   -0.223365
 O 0.87926 0.12074 0.75   -0.223364
 O 0.75 0.75 0.12074   -0.223364
 O 0.25 0.25 0.37926   -0.223364
 O 0.62074 0.25 0.75   -0.223364
 O 0.87926 0.75 0.25   -0.223364
 O 0.75 0.12074 0.37926   -0.223365
 O 0.25 0.37926 0.12074   -0.223364
 O 0.62074 0.75 0.37926   -0.223364
 O 0.87926 0.25 0.12074   -0.223365
 O 0.75 0.37926 0.75   -0.223364
 O 0.25 0.12074 0.25   -0.223364
 O 0.37926 0.62074 0.75   -0.223365
 O 0.12074 0.87926 0.25   -0.223364
 O 0.25 0.25 0.87926   -0.223364
 O 0.75 0.75 0.62074   -0.223364
 O 0.37926 0.75 0.25   -0.223364
 O 0.12074 0.25 0.75   -0.223364
 O 0.25 0.87926 0.62074   -0.223365
 O 0.75 0.62074 0.87926   -0.223364
 O 0.37926 0.25 0.62074   -0.223364
 O 0.12074 0.75 0.87926   -0.223365
 O 0.25 0.62074 0.25   -0.223364
 O 0.75 0.87926 0.75   -0.223364
