{'_ref': 'TBD', '_srcid': 'CAKYAQ_clean', 'submitters': [{'name': 'Dalar Nazarian Jeff Camp and David Sholl', 'email': 'dalar@gatech.edu jcamp6@gatech.edu'}], '_method': 'VASP DFT with PBE;DDEC'}
data_LiH11(C6O)2
_symmetry_space_group_name_H-M   'P 1'
_cell_length_a   15.00310000
_cell_length_b   15.00310000
_cell_length_c   24.71850000
_cell_angle_alpha   90.00000000
_cell_angle_beta   90.00000000
_cell_angle_gamma   90.00000000
_symmetry_Int_Tables_number   1
_chemical_formula_structural   LiH11(C6O)2
_chemical_formula_sum   'Li16 H176 C192 O32'
_cell_volume   5563.96155804
_cell_formula_units_Z   16
loop_
 _symmetry_equiv_pos_site_id
 _symmetry_equiv_pos_as_xyz
  1  'x, y, z'
loop_
 _atom_site_label
 _atom_site_fract_x
 _atom_site_fract_y
 _atom_site_fract_z
 _atom_site_charge
 Li 0.52403 0.33343 0.91376   0.893583
 Li 0.41657 0.77403 0.16376   0.893583
 Li 0.02403 0.83343 0.41376   0.893583
 Li 0.91657 0.27403 0.66376   0.893583
 Li 0.58343 0.72597 0.16376   0.893583
 Li 0.97597 0.66657 0.41376   0.893583
 Li 0.08343 0.22597 0.66376   0.893583
 Li 0.47597 0.16657 0.91376   0.893583
 Li 0.47597 0.66657 0.08624   0.893583
 Li 0.58343 0.22597 0.83624   0.893583
 Li 0.97597 0.16657 0.58624   0.893583
 Li 0.08343 0.72597 0.33624   0.893583
 Li 0.41657 0.27403 0.83624   0.893583
 Li 0.02403 0.33343 0.58624   0.893583
 Li 0.91657 0.77403 0.33624   0.893583
 Li 0.52403 0.83343 0.08624   0.893583
 H 0.6603 0.2838 0.0029   0.118476
 H 0.4662 0.9103 0.2529   0.118476
 H 0.1603 0.7838 0.5029   0.118476
 H 0.9662 0.4103 0.7529   0.118476
 H 0.5338 0.5897 0.2529   0.118476
 H 0.8397 0.7162 0.5029   0.118476
 H 0.0338 0.0897 0.7529   0.118476
 H 0.3397 0.2162 0.0029   0.118476
 H 0.3397 0.7162 0.9971   0.118476
 H 0.5338 0.0897 0.7471   0.118476
 H 0.8397 0.2162 0.4971   0.118476
 H 0.0338 0.5897 0.2471   0.118476
 H 0.4662 0.4103 0.7471   0.118476
 H 0.1603 0.2838 0.4971   0.118476
 H 0.9662 0.9103 0.2471   0.118476
 H 0.6603 0.7838 0.9971   0.118476
 H 0.7668 0.2166 0.0588   0.079116
 H 0.5334 0.0168 0.3088   0.079116
 H 0.2668 0.7166 0.5588   0.079116
 H 0.0334 0.5168 0.8088   0.079116
 H 0.4666 0.4832 0.3088   0.079116
 H 0.7332 0.7834 0.5588   0.079116
 H 0.9666 0.9832 0.8088   0.079116
 H 0.2332 0.2834 0.0588   0.079116
 H 0.2332 0.7834 0.9412   0.079116
 H 0.4666 0.9832 0.6912   0.079116
 H 0.7332 0.2834 0.4412   0.079116
 H 0.9666 0.4832 0.1912   0.079116
 H 0.5334 0.5168 0.6912   0.079116
 H 0.2668 0.2166 0.4412   0.079116
 H 0.0334 0.0168 0.1912   0.079116
 H 0.7668 0.7166 0.9412   0.079116
 H 0.8314 0.083 0.0357   0.107683
 H 0.667 0.0814 0.2857   0.107683
 H 0.3314 0.583 0.5357   0.107683
 H 0.167 0.5814 0.7857   0.107683
 H 0.333 0.4186 0.2857   0.107683
 H 0.6686 0.917 0.5357   0.107683
 H 0.833 0.9186 0.7857   0.107683
 H 0.1686 0.417 0.0357   0.107683
 H 0.1686 0.917 0.9643   0.107683
 H 0.333 0.9186 0.7143   0.107683
 H 0.6686 0.417 0.4643   0.107683
 H 0.833 0.4186 0.2143   0.107683
 H 0.667 0.5814 0.7143   0.107683
 H 0.3314 0.083 0.4643   0.107683
 H 0.167 0.0814 0.2143   0.107683
 H 0.8314 0.583 0.9643   0.107683
 H 0.8397 0.952 0.9724   0.104518
 H 0.798 0.0897 0.2224   0.104518
 H 0.3397 0.452 0.4724   0.104518
 H 0.298 0.5897 0.7224   0.104518
 H 0.202 0.4103 0.2224   0.104518
 H 0.6603 0.048 0.4724   0.104518
 H 0.702 0.9103 0.7224   0.104518
 H 0.1603 0.548 0.9724   0.104518
 H 0.1603 0.048 0.0276   0.104518
 H 0.202 0.9103 0.7776   0.104518
 H 0.6603 0.548 0.5276   0.104518
 H 0.702 0.4103 0.2776   0.104518
 H 0.798 0.5897 0.7776   0.104518
 H 0.3397 0.952 0.5276   0.104518
 H 0.298 0.0897 0.2776   0.104518
 H 0.8397 0.452 0.0276   0.104518
 H 0.7942 0.8807 0.8951   0.094844
 H 0.8693 0.0442 0.1451   0.094844
 H 0.2942 0.3807 0.3951   0.094844
 H 0.3693 0.5442 0.6451   0.094844
 H 0.1307 0.4558 0.1451   0.094844
 H 0.7058 0.1193 0.3951   0.094844
 H 0.6307 0.9558 0.6451   0.094844
 H 0.2058 0.6193 0.8951   0.094844
 H 0.2058 0.1193 0.1049   0.094844
 H 0.1307 0.9558 0.8549   0.094844
 H 0.7058 0.6193 0.6049   0.094844
 H 0.6307 0.4558 0.3549   0.094844
 H 0.8693 0.5442 0.8549   0.094844
 H 0.2942 0.8807 0.6049   0.094844
 H 0.3693 0.0442 0.3549   0.094844
 H 0.7942 0.3807 0.1049   0.094844
 H 0.6839 0.944 0.84   0.098378
 H 0.806 0.9339 0.09   0.098378
 H 0.1839 0.444 0.34   0.098378
 H 0.306 0.4339 0.59   0.098378
 H 0.194 0.5661 0.09   0.098378
 H 0.8161 0.056 0.34   0.098378
 H 0.694 0.0661 0.59   0.098378
 H 0.3161 0.556 0.84   0.098378
 H 0.3161 0.056 0.16   0.098378
 H 0.194 0.0661 0.91   0.098378
 H 0.8161 0.556 0.66   0.098378
 H 0.694 0.5661 0.41   0.098378
 H 0.806 0.4339 0.91   0.098378
 H 0.1839 0.944 0.66   0.098378
 H 0.306 0.9339 0.41   0.098378
 H 0.6839 0.444 0.16   0.098378
 H 0.6197 0.0786 0.863   0.068571
 H 0.6714 0.8697 0.113   0.068571
 H 0.1197 0.5786 0.363   0.068571
 H 0.1714 0.3697 0.613   0.068571
 H 0.3286 0.6303 0.113   0.068571
 H 0.8803 0.9214 0.363   0.068571
 H 0.8286 0.1303 0.613   0.068571
 H 0.3803 0.4214 0.863   0.068571
 H 0.3803 0.9214 0.137   0.068571
 H 0.3286 0.1303 0.887   0.068571
 H 0.8803 0.4214 0.637   0.068571
 H 0.8286 0.6303 0.387   0.068571
 H 0.6714 0.3697 0.887   0.068571
 H 0.1197 0.0786 0.637   0.068571
 H 0.1714 0.8697 0.387   0.068571
 H 0.6197 0.5786 0.137   0.068571
 H 0.3946 0.2603 0.7186   0.07915
 H 0.4897 0.6446 0.9686   0.07915
 H 0.8946 0.7603 0.2186   0.07915
 H 0.9897 0.1446 0.4686   0.07915
 H 0.5103 0.8554 0.9686   0.079151
 H 0.1054 0.7397 0.2186   0.079151
 H 0.0103 0.3554 0.4686   0.079151
 H 0.6054 0.2397 0.7186   0.079151
 H 0.6054 0.7397 0.2814   0.07915
 H 0.5103 0.3554 0.0314   0.07915
 H 0.1054 0.2397 0.7814   0.07915
 H 0.0103 0.8554 0.5314   0.07915
 H 0.4897 0.1446 0.0314   0.079151
 H 0.8946 0.2603 0.7814   0.079151
 H 0.9897 0.6446 0.5314   0.079151
 H 0.3946 0.7603 0.2814   0.079151
 H 0.3174 0.333 0.7109   0.04882
 H 0.417 0.5674 0.9609   0.04882
 H 0.8174 0.833 0.2109   0.04882
 H 0.917 0.0674 0.4609   0.04882
 H 0.583 0.9326 0.9609   0.048821
 H 0.1826 0.667 0.2109   0.048821
 H 0.083 0.4326 0.4609   0.048821
 H 0.6826 0.167 0.7109   0.048821
 H 0.6826 0.667 0.2891   0.04882
 H 0.583 0.4326 0.0391   0.04882
 H 0.1826 0.167 0.7891   0.04882
 H 0.083 0.9326 0.5391   0.04882
 H 0.417 0.0674 0.0391   0.048821
 H 0.8174 0.333 0.7891   0.048821
 H 0.917 0.5674 0.5391   0.048821
 H 0.3174 0.833 0.2891   0.048821
 H 0.211 0.3552 0.7832   0.056544
 H 0.3948 0.461 0.0332   0.056544
 H 0.711 0.8552 0.2832   0.056544
 H 0.8948 0.961 0.5332   0.056544
 H 0.6052 0.039 0.0332   0.056544
 H 0.289 0.6448 0.2832   0.056544
 H 0.1052 0.539 0.5332   0.056544
 H 0.789 0.1448 0.7832   0.056544
 H 0.789 0.6448 0.2168   0.056544
 H 0.6052 0.539 0.9668   0.056544
 H 0.289 0.1448 0.7168   0.056544
 H 0.1052 0.039 0.4668   0.056544
 H 0.3948 0.961 0.9668   0.056544
 H 0.711 0.3552 0.7168   0.056544
 H 0.8948 0.461 0.4668   0.056544
 H 0.211 0.8552 0.2168   0.056544
 H 0.2202 0.2967 0.8372   0.088374
 H 0.4533 0.4702 0.0872   0.088374
 H 0.7202 0.7967 0.3372   0.088374
 H 0.9533 0.9702 0.5872   0.088374
 H 0.5467 0.0298 0.0872   0.088374
 H 0.2798 0.7033 0.3372   0.088374
 H 0.0467 0.5298 0.5872   0.088374
 H 0.7798 0.2033 0.8372   0.088374
 H 0.7798 0.7033 0.1628   0.088374
 H 0.5467 0.5298 0.9128   0.088374
 H 0.2798 0.2033 0.6628   0.088374
 H 0.0467 0.0298 0.4128   0.088374
 H 0.4533 0.9702 0.9128   0.088374
 H 0.7202 0.2967 0.6628   0.088374
 H 0.9533 0.4702 0.4128   0.088374
 H 0.2202 0.7967 0.1628   0.088374
 C 0.65515 0.18654 0.94613   0.431545
 C 0.56346 0.90515 0.19613   0.431545
 C 0.15515 0.68654 0.44613   0.431545
 C 0.06346 0.40515 0.69613   0.431545
 C 0.43654 0.59485 0.19613   0.431545
 C 0.84485 0.81346 0.44613   0.431545
 C 0.93654 0.09485 0.69613   0.431545
 C 0.34485 0.31346 0.94613   0.431545
 C 0.34485 0.81346 0.05387   0.431545
 C 0.43654 0.09485 0.80387   0.431545
 C 0.84485 0.31346 0.55387   0.431545
 C 0.93654 0.59485 0.30387   0.431545
 C 0.56346 0.40515 0.80387   0.431545
 C 0.15515 0.18654 0.55387   0.431545
 C 0.06346 0.90515 0.30387   0.431545
 C 0.65515 0.68654 0.05387   0.431545
 C 0.68438 0.2275 0.99297   -0.325255
 C 0.5225 0.93438 0.24297   -0.325255
 C 0.18438 0.7275 0.49297   -0.325255
 C 0.0225 0.43438 0.74297   -0.325255
 C 0.4775 0.56562 0.24297   -0.325255
 C 0.81562 0.7725 0.49297   -0.325255
 C 0.9775 0.06562 0.74297   -0.325255
 C 0.31562 0.2725 0.99297   -0.325255
 C 0.31562 0.7725 0.00703   -0.325255
 C 0.4775 0.06562 0.75703   -0.325255
 C 0.81562 0.2725 0.50703   -0.325255
 C 0.9775 0.56562 0.25703   -0.325255
 C 0.5225 0.43438 0.75703   -0.325255
 C 0.18438 0.2275 0.50703   -0.325255
 C 0.0225 0.93438 0.25703   -0.325255
 C 0.68438 0.7275 0.00703   -0.325255
 C 0.74917 0.18751 0.02636   -0.003623
 C 0.56249 0.99917 0.27636   -0.003623
 C 0.24917 0.68751 0.52636   -0.003623
 C 0.06249 0.49917 0.77636   -0.003623
 C 0.43751 0.50083 0.27636   -0.003623
 C 0.75083 0.81249 0.52636   -0.003623
 C 0.93751 0.000830000000001 0.77636   -0.003623
 C 0.25083 0.31249 0.02636   -0.003623
 C 0.25083 0.81249 0.97364   -0.003623
 C 0.43751 0.000830000000001 0.72364   -0.003623
 C 0.75083 0.31249 0.47364   -0.003623
 C 0.93751 0.50083 0.22364   -0.003623
 C 0.56249 0.49917 0.72364   -0.003623
 C 0.24917 0.18751 0.47364   -0.003623
 C 0.06249 0.99917 0.22364   -0.003623
 C 0.74917 0.68751 0.97364   -0.003623
 C 0.78683 0.10819 0.01313   -0.242135
 C 0.64181 0.03683 0.26313   -0.242135
 C 0.28683 0.60819 0.51313   -0.242135
 C 0.14181 0.53683 0.76313   -0.242135
 C 0.35819 0.46317 0.26313   -0.242135
 C 0.71317 0.89181 0.51313   -0.242135
 C 0.85819 0.96317 0.76313   -0.242135
 C 0.21317 0.39181 0.01313   -0.242135
 C 0.21317 0.89181 0.98687   -0.242135
 C 0.35819 0.96317 0.73687   -0.242135
 C 0.71317 0.39181 0.48687   -0.242135
 C 0.85819 0.46317 0.23687   -0.242135
 C 0.64181 0.53683 0.73687   -0.242135
 C 0.28683 0.10819 0.48687   -0.242135
 C 0.14181 0.03683 0.23687   -0.242135
 C 0.78683 0.60819 0.98687   -0.242135
 C 0.7596 0.06294 0.96564   0.10075
 C 0.68706 0.0096 0.21564   0.10075
 C 0.2596 0.56294 0.46564   0.10075
 C 0.18706 0.5096 0.71564   0.10075
 C 0.31294 0.4904 0.21564   0.10075
 C 0.7404 0.93706 0.46564   0.10075
 C 0.81294 0.9904 0.71564   0.10075
 C 0.2404 0.43706 0.96564   0.10075
 C 0.2404 0.93706 0.03436   0.10075
 C 0.31294 0.9904 0.78436   0.10075
 C 0.7404 0.43706 0.53436   0.10075
 C 0.81294 0.4904 0.28436   0.10075
 C 0.68706 0.5096 0.78436   0.10075
 C 0.2596 0.06294 0.53436   0.10075
 C 0.18706 0.0096 0.28436   0.10075
 C 0.7596 0.56294 0.03436   0.10075
 C 0.79552 0.979 0.9502   -0.145501
 C 0.771 0.04552 0.2002   -0.145501
 C 0.29552 0.479 0.4502   -0.145501
 C 0.271 0.54552 0.7002   -0.145501
 C 0.229 0.45448 0.2002   -0.145501
 C 0.70448 0.021 0.4502   -0.145501
 C 0.729 0.95448 0.7002   -0.145501
 C 0.20448 0.521 0.9502   -0.145501
 C 0.20448 0.021 0.0498   -0.145501
 C 0.229 0.95448 0.7998   -0.145501
 C 0.70448 0.521 0.5498   -0.145501
 C 0.729 0.45448 0.2998   -0.145501
 C 0.771 0.54552 0.7998   -0.145501
 C 0.29552 0.979 0.5498   -0.145501
 C 0.271 0.04552 0.2998   -0.145501
 C 0.79552 0.479 0.0498   -0.145501
 C 0.76844 0.93639 0.90472   -0.079646
 C 0.81361 0.01844 0.15472   -0.079646
 C 0.26844 0.43639 0.40472   -0.079646
 C 0.31361 0.51844 0.65472   -0.079646
 C 0.18639 0.48156 0.15472   -0.079646
 C 0.73156 0.06361 0.40472   -0.079646
 C 0.68639 0.98156 0.65472   -0.079646
 C 0.23156 0.56361 0.90472   -0.079646
 C 0.23156 0.06361 0.09528   -0.079646
 C 0.18639 0.98156 0.84528   -0.079646
 C 0.73156 0.56361 0.59528   -0.079646
 C 0.68639 0.48156 0.34528   -0.079646
 C 0.81361 0.51844 0.84528   -0.079646
 C 0.26844 0.93639 0.59528   -0.079646
 C 0.31361 0.01844 0.34528   -0.079646
 C 0.76844 0.43639 0.09528   -0.079646
 C 0.70264 0.97416 0.87184   -0.116275
 C 0.77584 0.95264 0.12184   -0.116275
 C 0.20264 0.47416 0.37184   -0.116275
 C 0.27584 0.45264 0.62184   -0.116275
 C 0.22416 0.54736 0.12184   -0.116275
 C 0.79736 0.02584 0.37184   -0.116275
 C 0.72416 0.04736 0.62184   -0.116275
 C 0.29736 0.52584 0.87184   -0.116275
 C 0.29736 0.02584 0.12816   -0.116275
 C 0.22416 0.04736 0.87816   -0.116275
 C 0.79736 0.52584 0.62816   -0.116275
 C 0.72416 0.54736 0.37816   -0.116275
 C 0.77584 0.45264 0.87816   -0.116275
 C 0.20264 0.97416 0.62816   -0.116275
 C 0.27584 0.95264 0.37816   -0.116275
 C 0.70264 0.47416 0.12816   -0.116275
 C 0.66515 0.05429 0.88528   -0.058587
 C 0.69571 0.91515 0.13528   -0.058587
 C 0.16515 0.55429 0.38528   -0.058587
 C 0.19571 0.41515 0.63528   -0.058587
 C 0.30429 0.58485 0.13528   -0.058587
 C 0.83485 0.94571 0.38528   -0.058587
 C 0.80429 0.08485 0.63528   -0.058587
 C 0.33485 0.44571 0.88528   -0.058587
 C 0.33485 0.94571 0.11472   -0.058587
 C 0.30429 0.08485 0.86472   -0.058587
 C 0.83485 0.44571 0.61472   -0.058587
 C 0.80429 0.58485 0.36472   -0.058587
 C 0.69571 0.41515 0.86472   -0.058587
 C 0.16515 0.05429 0.61472   -0.058587
 C 0.19571 0.91515 0.36472   -0.058587
 C 0.66515 0.55429 0.11472   -0.058587
 C 0.69305 0.10153 0.93186   -0.155271
 C 0.64847 0.94305 0.18186   -0.155271
 C 0.19305 0.60153 0.43186   -0.155271
 C 0.14847 0.44305 0.68186   -0.155271
 C 0.35153 0.55695 0.18186   -0.155271
 C 0.80695 0.89847 0.43186   -0.155271
 C 0.85153 0.05695 0.68186   -0.155271
 C 0.30695 0.39847 0.93186   -0.155271
 C 0.30695 0.89847 0.06814   -0.155271
 C 0.35153 0.05695 0.81814   -0.155271
 C 0.80695 0.39847 0.56814   -0.155271
 C 0.85153 0.55695 0.31814   -0.155271
 C 0.64847 0.44305 0.81814   -0.155271
 C 0.19305 0.10153 0.56814   -0.155271
 C 0.14847 0.94305 0.31814   -0.155271
 C 0.69305 0.60153 0.06814   -0.155271
 C 0.33158 0.27427 0.72694   0.079889
 C 0.47573 0.58158 0.97694   0.079889
 C 0.83158 0.77427 0.22694   0.079889
 C 0.97573 0.08158 0.47694   0.079889
 C 0.52427 0.91842 0.97694   0.079889
 C 0.16842 0.72573 0.22694   0.079889
 C 0.02427 0.41842 0.47694   0.079889
 C 0.66842 0.22573 0.72694   0.079889
 C 0.66842 0.72573 0.27306   0.079889
 C 0.52427 0.41842 0.02306   0.079889
 C 0.16842 0.22573 0.77306   0.079889
 C 0.02427 0.91842 0.52306   0.079889
 C 0.47573 0.08158 0.02306   0.079889
 C 0.83158 0.27427 0.77306   0.079889
 C 0.97573 0.58158 0.52306   0.079889
 C 0.33158 0.77427 0.27306   0.079889
 C 0.272 0.2041 0.70259   0.072225
 C 0.5459 0.522 0.95259   0.072225
 C 0.772 0.7041 0.20259   0.072225
 C 0.0459 0.022 0.45259   0.072225
 C 0.4541 0.978 0.95259   0.072225
 C 0.228 0.7959 0.20259   0.072225
 C 0.9541 0.478 0.45259   0.072225
 C 0.728 0.2959 0.70259   0.072225
 C 0.728 0.7959 0.29741   0.072225
 C 0.4541 0.478 0.04741   0.072225
 C 0.228 0.2959 0.79741   0.072225
 C 0.9541 0.978 0.54741   0.072225
 C 0.5459 0.022 0.04741   0.072225
 C 0.772 0.2041 0.79741   0.072225
 C 0.0459 0.522 0.54741   0.072225
 C 0.272 0.7041 0.29741   0.072225
 O 0.40688 0.27688 0.91485   -0.959846
 O 0.47312 0.65688 0.16485   -0.959846
 O 0.90688 0.77688 0.41485   -0.959846
 O 0.97312 0.15688 0.66485   -0.959846
 O 0.52688 0.84312 0.16485   -0.959846
 O 0.09312 0.72312 0.41485   -0.959846
 O 0.02688 0.34312 0.66485   -0.959846
 O 0.59312 0.22312 0.91485   -0.959846
 O 0.59312 0.72312 0.08515   -0.959846
 O 0.52688 0.34312 0.83515   -0.959846
 O 0.09312 0.22312 0.58515   -0.959846
 O 0.02688 0.84312 0.33515   -0.959846
 O 0.47312 0.15688 0.83515   -0.959846
 O 0.90688 0.27688 0.58515   -0.959846
 O 0.97312 0.65688 0.33515   -0.959846
 O 0.40688 0.77688 0.08515   -0.959846
 O 0.31974 0.27824 0.7846   -0.436329
 O 0.47176 0.56974 0.0346   -0.436329
 O 0.81974 0.77824 0.2846   -0.436329
 O 0.97176 0.06974 0.5346   -0.436329
 O 0.52824 0.93026 0.0346   -0.436329
 O 0.18026 0.72176 0.2846   -0.436329
 O 0.02824 0.43026 0.5346   -0.436329
 O 0.68026 0.22176 0.7846   -0.436329
 O 0.68026 0.72176 0.2154   -0.436329
 O 0.52824 0.43026 0.9654   -0.436329
 O 0.18026 0.22176 0.7154   -0.436329
 O 0.02824 0.93026 0.4654   -0.436329
 O 0.47176 0.06974 0.9654   -0.436329
 O 0.81974 0.27824 0.7154   -0.436329
 O 0.97176 0.56974 0.4654   -0.436329
 O 0.31974 0.77824 0.2154   -0.436329
