{'_ref': 'TBD', '_srcid': 'CAKYAQ_clean', 'submitters': [{'name': 'Dalar Nazarian Jeff Camp and David Sholl', 'email': 'dalar@gatech.edu jcamp6@gatech.edu'}], '_method': 'VASP DFT with PBE;DDEC'}
data_Rb3H3C31(N8O)2
_symmetry_space_group_name_H-M   'P 1'
_cell_length_a   10.24030000
_cell_length_b   20.41699975
_cell_length_c   21.73340000
_cell_angle_alpha   90.00000000
_cell_angle_beta   90.00000000
_cell_angle_gamma   95.30099977
_symmetry_Int_Tables_number   1
_chemical_formula_structural   Rb3H3C31(N8O)2
_chemical_formula_sum   'Rb12 H12 C124 N64 O8'
_cell_volume   4524.50271408
_cell_formula_units_Z   4
loop_
 _symmetry_equiv_pos_site_id
 _symmetry_equiv_pos_as_xyz
  1  'x, y, z'
loop_
 _atom_site_label
 _atom_site_fract_x
 _atom_site_fract_y
 _atom_site_fract_z
 _atom_site_charge
 Rb 0.36772 0.64834 0.88253   0.918545
 Rb 0.42993 0.0358 0.90319   0.890612
 Rb 0.37725 0.14114 0.63603   0.91778
 Rb 0.13228 0.85166 0.38253   0.918545
 Rb 0.07007 0.4642 0.40319   0.890612
 Rb 0.12275 0.35886 0.13603   0.91778
 Rb 0.63228 0.35166 0.11747   0.918548
 Rb 0.57007 0.9642 0.09681   0.890613
 Rb 0.62275 0.85886 0.36397   0.917782
 Rb 0.86772 0.14834 0.61747   0.918548
 Rb 0.92993 0.5358 0.59681   0.890613
 Rb 0.87725 0.64114 0.86397   0.917782
 H 0.1186 0.9204 0.0686   0.167578
 H 0.0575 0.9875 0.0763   0.171276
 H 0.1842 0.9743 0.113   0.159406
 H 0.3814 0.5796 0.5686   0.167578
 H 0.4425 0.5125 0.5763   0.171276
 H 0.3158 0.5257 0.613   0.159406
 H 0.8814 0.0796 0.9314   0.167578
 H 0.9425 0.0125 0.9237   0.171276
 H 0.8158 0.0257 0.887   0.159406
 H 0.6186 0.4204 0.4314   0.167578
 H 0.5575 0.4875 0.4237   0.171276
 H 0.6842 0.4743 0.387   0.159406
 C 0.2218 0.90076 0.78507   0.348328
 C 0.2432 0.94713 0.65032   0.364991
 C 0.1986 0.82496 0.56689   0.351451
 C 0.1457 0.70322 0.65009   0.353336
 C 0.1564 0.74978 0.78538   0.387602
 C 0.2031 0.85976 0.73193   -0.070459
 C 0.2141 0.88092 0.66997   -0.088552
 C 0.1951 0.82503 0.6325   -0.07206
 C 0.1715 0.76941 0.67031   -0.082463
 C 0.1758 0.79081 0.73162   -0.087419
 C 0.5697 0.93341 0.77068   0.355424
 C 0.5973 0.99729 0.64463   0.373195
 C 0.5522 0.88706 0.54547   0.355688
 C 0.4928 0.75548 0.61368   0.304139
 C 0.5025 0.7828 0.75177   0.371321
 C 0.555 0.89911 0.71361   -0.076824
 C 0.5675 0.92892 0.65482   -0.096996
 C 0.5472 0.87941 0.61046   -0.069522
 C 0.5215 0.81867 0.64102   -0.070021
 C 0.526 0.83149 0.70509   -0.087618
 C 0.1378 0.9668 0.07486   -0.346973
 C 0.3421 0.2709 0.78339   0.363709
 C 0.3941 0.4212 0.78718   0.301413
 C 0.4041 0.46473 0.92219   0.362332
 C 0.3666 0.33817 0.0039   0.392214
 C 0.3284 0.21918 0.91702   0.350753
 C 0.3564 0.30947 0.83798   -0.096179
 C 0.3799 0.37852 0.83965   -0.056368
 C 0.3872 0.39833 0.90196   -0.088041
 C 0.368 0.34098 0.93826   -0.088553
 C 0.3492 0.2863 0.89917   -0.074307
 C 0.2782 0.59924 0.28507   0.348328
 C 0.2568 0.55287 0.15032   0.364991
 C 0.3014 0.67504 0.06689   0.351451
 C 0.3543 0.79678 0.15009   0.353336
 C 0.3436 0.75022 0.28538   0.387602
 C 0.2969 0.64024 0.23193   -0.070459
 C 0.2859 0.61908 0.16997   -0.088552
 C 0.3049 0.67497 0.1325   -0.07206
 C 0.3285 0.73059 0.17031   -0.082463
 C 0.3242 0.70919 0.23162   -0.087419
 C 0.9303 0.56659 0.27068   0.355424
 C 0.9027 0.50271 0.14463   0.373195
 C 0.9478 0.61294 0.04547   0.355688
 C 0.0072 0.74452 0.11368   0.304139
 C 0.9975 0.7172 0.25177   0.371321
 C 0.945 0.60089 0.21361   -0.076824
 C 0.9325 0.57108 0.15482   -0.096996
 C 0.9528 0.62059 0.11046   -0.069522
 C 0.9785 0.68133 0.14102   -0.070021
 C 0.974 0.66851 0.20509   -0.087618
 C 0.3622 0.5332 0.57486   -0.346973
 C 0.1579 0.2291 0.28339   0.363709
 C 0.1059 0.0788 0.28718   0.301413
 C 0.0959 0.03527 0.42219   0.362332
 C 0.1334 0.16183 0.5039   0.392214
 C 0.1716 0.28082 0.41702   0.350753
 C 0.1436 0.19053 0.33798   -0.096179
 C 0.1201 0.12148 0.33965   -0.056368
 C 0.1128 0.10167 0.40196   -0.088041
 C 0.132 0.15902 0.43826   -0.088553
 C 0.1508 0.2137 0.39917   -0.074307
 C 0.7782 0.09924 0.21493   0.348328
 C 0.7568 0.05287 0.34968   0.364991
 C 0.8014 0.17504 0.43311   0.35145
 C 0.8543 0.29678 0.34991   0.353336
 C 0.8436 0.25022 0.21462   0.387602
 C 0.7969 0.14024 0.26807   -0.070459
 C 0.7859 0.11908 0.33003   -0.088552
 C 0.8049 0.17497 0.3675   -0.07206
 C 0.8285 0.23059 0.32969   -0.082463
 C 0.8242 0.20919 0.26838   -0.08742
 C 0.4303 0.06659 0.22932   0.355423
 C 0.4027 0.00271 0.35537   0.373194
 C 0.4478 0.11294 0.45453   0.355688
 C 0.5072 0.24452 0.38632   0.304139
 C 0.4975 0.2172 0.24823   0.371321
 C 0.445 0.10089 0.28639   -0.076824
 C 0.4325 0.07108 0.34518   -0.096997
 C 0.4528 0.12059 0.38954   -0.069522
 C 0.4785 0.18133 0.35898   -0.070021
 C 0.474 0.16851 0.29491   -0.087618
 C 0.8622 0.0332 0.92514   -0.346973
 C 0.6579 0.7291 0.21661   0.363708
 C 0.6059 0.5788 0.21282   0.301412
 C 0.5959 0.53527 0.07781   0.362332
 C 0.6334 0.66183 0.9961   0.392214
 C 0.6716 0.78082 0.08298   0.350753
 C 0.6436 0.69053 0.16202   -0.096179
 C 0.6201 0.62148 0.16035   -0.056368
 C 0.6128 0.60167 0.09804   -0.088042
 C 0.632 0.65902 0.06174   -0.088554
 C 0.6508 0.7137 0.10083   -0.074307
 C 0.7218 0.40076 0.71493   0.348328
 C 0.7432 0.44713 0.84968   0.364991
 C 0.6986 0.32496 0.93311   0.35145
 C 0.6457 0.20322 0.84991   0.353336
 C 0.6564 0.24978 0.71462   0.387602
 C 0.7031 0.35976 0.76807   -0.070459
 C 0.7141 0.38092 0.83003   -0.088552
 C 0.6951 0.32503 0.8675   -0.07206
 C 0.6715 0.26941 0.82969   -0.082463
 C 0.6758 0.29081 0.76838   -0.08742
 C 0.0697 0.43341 0.72932   0.355423
 C 0.0973 0.49729 0.85537   0.373194
 C 0.0522 0.38706 0.95453   0.355688
 C 0.9928 0.25548 0.88632   0.304139
 C 0.0025 0.2828 0.74823   0.371321
 C 0.055 0.39911 0.78639   -0.076824
 C 0.0675 0.42892 0.84518   -0.096997
 C 0.0472 0.37941 0.88954   -0.069522
 C 0.0215 0.31867 0.85898   -0.070021
 C 0.026 0.33149 0.79491   -0.087618
 C 0.6378 0.4668 0.42514   -0.346973
 C 0.8421 0.7709 0.71661   0.363708
 C 0.8941 0.9212 0.71282   0.301412
 C 0.9041 0.96473 0.57781   0.362332
 C 0.8666 0.83817 0.4961   0.392214
 C 0.8284 0.71918 0.58298   0.350753
 C 0.8564 0.80947 0.66202   -0.096179
 C 0.8799 0.87852 0.66035   -0.056368
 C 0.8872 0.89833 0.59804   -0.088042
 C 0.868 0.84098 0.56174   -0.088554
 C 0.8492 0.7863 0.60083   -0.074307
 N 0.2393 0.93353 0.8275   -0.443314
 N 0.267 0.99986 0.63481   -0.459773
 N 0.2017 0.82461 0.51434   -0.449189
 N 0.1242 0.6499 0.6332   -0.454911
 N 0.1414 0.71806 0.82809   -0.510814
 N 0.5809 0.96129 0.816   -0.453483
 N 0.6219 0.05263 0.63778   -0.495889
 N 0.5584 0.89113 0.4932   -0.445244
 N 0.4691 0.70464 0.59274   -0.384355
 N 0.482 0.74338 0.78861   -0.474198
 N 0.2199 0.99492 0.02369   0.704008
 N 0.3319 0.24118 0.73904   -0.47108
 N 0.4046 0.4539 0.74515   -0.391635
 N 0.4164 0.51836 0.9363   -0.448242
 N 0.3646 0.33429 0.05642   -0.523091
 N 0.3126 0.16488 0.9305   -0.453667
 N 0.2607 0.56647 0.3275   -0.443314
 N 0.233 0.50014 0.13481   -0.459773
 N 0.2983 0.67539 0.01434   -0.449189
 N 0.3758 0.8501 0.1332   -0.454911
 N 0.3586 0.78194 0.32809   -0.510814
 N 0.9191 0.53871 0.316   -0.453483
 N 0.8781 0.44737 0.13778   -0.495889
 N 0.9416 0.60887 0.9932   -0.445244
 N 0.0309 0.79536 0.09274   -0.384355
 N 0.018 0.75662 0.28861   -0.474198
 N 0.2801 0.50508 0.52369   0.704008
 N 0.1681 0.25882 0.23904   -0.47108
 N 0.0954 0.0461 0.24515   -0.391635
 N 0.0836 0.98164 0.4363   -0.448242
 N 0.1354 0.16571 0.55642   -0.523091
 N 0.1874 0.33512 0.4305   -0.453667
 N 0.7607 0.06647 0.1725   -0.443314
 N 0.733 0.000140000000002 0.36519   -0.459774
 N 0.7983 0.17539 0.48566   -0.449189
 N 0.8758 0.3501 0.3668   -0.454911
 N 0.8586 0.28194 0.17191   -0.510814
 N 0.4191 0.03871 0.184   -0.453483
 N 0.3781 0.94737 0.36222   -0.495889
 N 0.4416 0.10887 0.5068   -0.445244
 N 0.5309 0.29536 0.40726   -0.384355
 N 0.518 0.25662 0.21139   -0.474198
 N 0.7801 0.00508 0.97631   0.704008
 N 0.6681 0.75882 0.26096   -0.47108
 N 0.5954 0.5461 0.25485   -0.391635
 N 0.5836 0.48164 0.0637   -0.448242
 N 0.6354 0.66571 0.94358   -0.523091
 N 0.6874 0.83512 0.0695   -0.453668
 N 0.7393 0.43353 0.6725   -0.443314
 N 0.767 0.49986 0.86519   -0.459774
 N 0.7017 0.32461 0.98566   -0.449189
 N 0.6242 0.1499 0.8668   -0.454911
 N 0.6414 0.21806 0.67191   -0.510814
 N 0.0809 0.46129 0.684   -0.453483
 N 0.1219 0.55263 0.86222   -0.495889
 N 0.0584 0.39113 0.0068   -0.445244
 N 0.9691 0.20464 0.90726   -0.384355
 N 0.982 0.24338 0.71139   -0.474198
 N 0.7199 0.49492 0.47631   0.704008
 N 0.8319 0.74118 0.76096   -0.47108
 N 0.9046 0.9539 0.75485   -0.391635
 N 0.9164 0.01836 0.5637   -0.448242
 N 0.8646 0.83429 0.44358   -0.523091
 N 0.8126 0.66488 0.5695   -0.453668
 O 0.3344 0.01365 0.03381   -0.459585
 O 0.17 0.99723 0.97265   -0.394275
 O 0.1656 0.48635 0.53381   -0.459585
 O 0.33 0.50277 0.47265   -0.394275
 O 0.6656 0.98635 0.96619   -0.459585
 O 0.83 0.00277 0.02735   -0.394275
 O 0.8344 0.51365 0.46619   -0.459585
 O 0.67 0.49723 0.52735   -0.394275
