{'_ref': 'TBD', '_srcid': 'CAKYAQ_clean', 'submitters': [{'name': 'Dalar Nazarian Jeff Camp and David Sholl', 'email': 'dalar@gatech.edu jcamp6@gatech.edu'}], '_method': 'VASP DFT with PBE;DDEC'}
data_Ni9H40C60(N5O12)2
_symmetry_space_group_name_H-M   'P 1'
_cell_length_a   12.85379949
_cell_length_b   19.86870000
_cell_length_c   19.86869970
_cell_angle_alpha   77.76500038
_cell_angle_beta   72.49929951
_cell_angle_gamma   72.49900005
_symmetry_Int_Tables_number   1
_chemical_formula_structural   Ni9H40C60(N5O12)2
_chemical_formula_sum   'Ni9 H40 C60 N10 O24'
_cell_volume   4574.00226092
_cell_formula_units_Z   1
loop_
 _symmetry_equiv_pos_site_id
 _symmetry_equiv_pos_as_xyz
  1  'x, y, z'
loop_
 _atom_site_label
 _atom_site_fract_x
 _atom_site_fract_y
 _atom_site_fract_z
 _atom_site_charge
 Ni 0.4391 0.81678 0.30876   0.754165
 Ni 0.5609 0.69124 0.18322   0.754169
 Ni 0.5609 0.18322 0.69124   0.754165
 Ni 0.4391 0.30876 0.81678   0.754169
 Ni 0.07052 0.27843 0.27843   0.775277
 Ni 0.33777 0.28688 0.28688   0.789401
 Ni 0.92948 0.72157 0.72157   0.775277
 Ni 0.66223 0.71312 0.71312   0.789401
 Ni 0.0 0.0 0.0   0.701112
 H 0.4617 0.0616 0.3168   0.130436
 H 0.5197 0.9405 0.3235   0.083631
 H 0.2205 0.9322 0.3256   0.088272
 H 0.158 0.0541 0.3171   0.127782
 H 0.2626 0.9542 0.1588   0.127116
 H 0.15 0.0165 0.0837   0.044504
 H 0.1213 0.8436 0.0398   0.090012
 H 0.2567 0.7756 0.0992   0.136221
 H 0.5383 0.6832 0.9384   0.130431
 H 0.4803 0.6765 0.0595   0.083618
 H 0.7795 0.6744 0.0678   0.088274
 H 0.842 0.6829 0.9459   0.127776
 H 0.7374 0.8412 0.0458   0.127114
 H 0.85 0.9163 0.9835   0.044461
 H 0.8787 0.9602 0.1564   0.090008
 H 0.7433 0.9008 0.2244   0.136215
 H 0.5383 0.9384 0.6832   0.130436
 H 0.4803 0.0595 0.6765   0.083632
 H 0.7795 0.0678 0.6744   0.088272
 H 0.842 0.9459 0.6829   0.127782
 H 0.7374 0.0458 0.8412   0.127116
 H 0.85 0.9835 0.9163   0.044504
 H 0.8787 0.1564 0.9602   0.090012
 H 0.7433 0.2244 0.9008   0.136221
 H 0.4617 0.3168 0.0616   0.130431
 H 0.5197 0.3235 0.9405   0.083618
 H 0.2205 0.3256 0.9322   0.088274
 H 0.158 0.3171 0.0541   0.127776
 H 0.2626 0.1588 0.9542   0.127114
 H 0.15 0.0837 0.0165   0.044461
 H 0.1213 0.0398 0.8436   0.090008
 H 0.2567 0.0992 0.7756   0.136215
 H 0.0851 0.115 0.115   0.112685
 H 0.1457 0.176 0.176   0.083984
 H 0.8389 0.268 0.268   0.080444
 H 0.7717 0.2083 0.2083   0.121247
 H 0.9149 0.885 0.885   0.112685
 H 0.8543 0.824 0.824   0.083984
 H 0.1611 0.732 0.732   0.080444
 H 0.2283 0.7917 0.7917   0.121247
 C 0.2672 0.1527 0.3043   0.701223
 C 0.3042 0.0718 0.3138   -0.028095
 C 0.4112 0.0363 0.3173   -0.140548
 C 0.4457 0.9632 0.3216   0.159195
 C 0.2711 0.9584 0.3226   0.159221
 C 0.2326 0.0319 0.3177   -0.154389
 C 0.3559 0.8168 0.181   0.681633
 C 0.2713 0.8598 0.1384   -0.001831
 C 0.238 0.9299 0.1337   -0.170555
 C 0.166 0.967 0.0904   0.16883
 C 0.152 0.8664 0.0626   0.139426
 C 0.231 0.8245 0.0997   -0.172069
 C 0.7328 0.6957 0.8473   0.701219
 C 0.6958 0.6862 0.9282   -0.028112
 C 0.5888 0.6827 0.9637   -0.14053
 C 0.5543 0.6784 0.0368   0.159205
 C 0.7289 0.6774 0.0416   0.159215
 C 0.7674 0.6823 0.9681   -0.154362
 C 0.6441 0.819 0.1832   0.681671
 C 0.7287 0.8616 0.1402   -0.00185
 C 0.762 0.8663 0.0701   -0.170548
 C 0.834 0.9096 0.033   0.168879
 C 0.848 0.9374 0.1336   0.139423
 C 0.769 0.9003 0.1755   -0.172045
 C 0.7328 0.8473 0.6957   0.701223
 C 0.6958 0.9282 0.6862   -0.028095
 C 0.5888 0.9637 0.6827   -0.140548
 C 0.5543 0.0368 0.6784   0.159195
 C 0.7289 0.0416 0.6774   0.159221
 C 0.7674 0.9681 0.6823   -0.154389
 C 0.6441 0.1832 0.819   0.681633
 C 0.7287 0.1402 0.8616   -0.001831
 C 0.762 0.0701 0.8663   -0.170556
 C 0.834 0.033 0.9096   0.16883
 C 0.848 0.1336 0.9374   0.139426
 C 0.769 0.1755 0.9003   -0.172069
 C 0.2672 0.3043 0.1527   0.701219
 C 0.3042 0.3138 0.0718   -0.028112
 C 0.4112 0.3173 0.0363   -0.14053
 C 0.4457 0.3216 0.9632   0.159205
 C 0.2711 0.3226 0.9584   0.159215
 C 0.2326 0.3177 0.0319   -0.154361
 C 0.3559 0.181 0.8168   0.681671
 C 0.2713 0.1384 0.8598   -0.00185
 C 0.238 0.1337 0.9299   -0.170548
 C 0.166 0.0904 0.967   0.168879
 C 0.152 0.0626 0.8664   0.139423
 C 0.231 0.0997 0.8245   -0.172045
 C 0.878 0.1153 0.1153   0.643763
 C 0.9218 0.154 0.154   -0.004293
 C 0.0324 0.1457 0.1457   -0.158173
 C 0.0687 0.1828 0.1828   0.149544
 C 0.8903 0.237 0.237   0.140645
 C 0.8492 0.2007 0.2007   -0.149807
 C 0.122 0.8847 0.8847   0.643763
 C 0.0782 0.846 0.846   -0.004293
 C 0.9676 0.8543 0.8543   -0.158173
 C 0.9313 0.8172 0.8172   0.149544
 C 0.1097 0.763 0.763   0.140645
 C 0.1508 0.7993 0.7993   -0.149807
 N 0.3771 0.9237 0.3231   -0.353197
 N 0.1177 0.938 0.0582   -0.27818
 N 0.6229 0.6769 0.0763   -0.353196
 N 0.8823 0.9418 0.062   -0.278187
 N 0.6229 0.0763 0.6769   -0.353197
 N 0.8823 0.062 0.9418   -0.27818
 N 0.3771 0.3231 0.9237   -0.353196
 N 0.1177 0.0582 0.938   -0.278187
 N 0.9952 0.2287 0.2287   -0.326661
 N 0.0048 0.7713 0.7713   -0.326661
 O 0.3377 0.1831 0.3011   -0.57708
 O 0.1685 0.1794 0.3004   -0.58068
 O 0.3396 0.8379 0.2389   -0.562878
 O 0.4299 0.7677 0.1537   -0.556438
 O 0.6623 0.6989 0.8169   -0.577085
 O 0.8315 0.6996 0.8206   -0.580681
 O 0.6604 0.7611 0.1621   -0.562886
 O 0.5701 0.8463 0.2323   -0.556468
 O 0.6623 0.8169 0.6989   -0.57708
 O 0.8315 0.8206 0.6996   -0.58068
 O 0.6604 0.1621 0.7611   -0.562878
 O 0.5701 0.2323 0.8463   -0.556438
 O 0.3377 0.3011 0.1831   -0.577085
 O 0.1685 0.3004 0.1794   -0.580681
 O 0.3396 0.2389 0.8379   -0.562886
 O 0.4299 0.1537 0.7677   -0.556468
 O 0.9506 0.0741 0.0741   -0.617716
 O 0.7767 0.1252 0.1252   -0.612134
 O 0.1603 0.3241 0.3241   -0.709199
 O 0.0494 0.9259 0.9259   -0.617716
 O 0.2233 0.8748 0.8748   -0.612134
 O 0.8397 0.6759 0.6759   -0.709199
 O 0.5 0.7099 0.2901   -0.701017
 O 0.5 0.2901 0.7099   -0.701017
