{'_ref': 'TBD', '_srcid': 'CAKYAQ_clean', 'submitters': [{'name': 'Dalar Nazarian Jeff Camp and David Sholl', 'email': 'dalar@gatech.edu jcamp6@gatech.edu'}], '_method': 'VASP DFT with PBE;DDEC'}
data_CoH7C13NO4
_symmetry_space_group_name_H-M   'P 1'
_cell_length_a   11.05000000
_cell_length_b   11.05000025
_cell_length_c   27.77200000
_cell_angle_alpha   90.00000000
_cell_angle_beta   90.00000000
_cell_angle_gamma   119.99999925
_symmetry_Int_Tables_number   1
_chemical_formula_structural   CoH7C13NO4
_chemical_formula_sum   'Co6 H42 C78 N6 O24'
_cell_volume   2936.71875903
_cell_formula_units_Z   6
loop_
 _symmetry_equiv_pos_site_id
 _symmetry_equiv_pos_as_xyz
  1  'x, y, z'
loop_
 _atom_site_label
 _atom_site_fract_x
 _atom_site_fract_y
 _atom_site_fract_z
 _atom_site_charge
 Co 0.07699 0.83077 0.97075   0.887284
 Co 0.75378 0.92301 0.63742   0.887281
 Co 0.16923 0.24622 0.30408   0.887183
 Co 0.24622 0.16923 0.02925   0.887282
 Co 0.83077 0.07699 0.36258   0.887279
 Co 0.92301 0.75378 0.69592   0.88718
 H 0.7464 0.5396 0.7769   0.075566
 H 0.6635 0.1573 0.7398   0.112392
 H 0.9432 0.5008 0.6674   0.082094
 H 0.6931 0.4471 0.8507   0.119232
 H 0.5457 0.3524 0.9164   0.09669
 H 0.2981 0.0028 0.8397   0.103551
 H 0.4485 0.0964 0.7748   0.125114
 H 0.7932 0.2536 0.44357   0.075539
 H 0.4938 0.3365 0.40647   0.112386
 H 0.5576 0.0568 0.33407   0.08212
 H 0.754 0.3069 0.51737   0.119287
 H 0.8067 0.4543 0.58307   0.096774
 H 0.7047 0.7019 0.50637   0.103539
 H 0.6479 0.5515 0.44147   0.124941
 H 0.4604 0.2068 0.11023   0.075589
 H 0.8427 0.5062 0.07313   0.11239
 H 0.4992 0.4424 0.000729999999997   0.082119
 H 0.5529 0.246 0.18403   0.119166
 H 0.6476 0.1933 0.24973   0.096551
 H 0.9972 0.2953 0.17303   0.103589
 H 0.9036 0.3521 0.10813   0.125021
 H 0.2068 0.4604 0.2231   0.075567
 H 0.5062 0.8427 0.2602   0.112392
 H 0.4424 0.4992 0.3326   0.082093
 H 0.246 0.5529 0.1493   0.119232
 H 0.1933 0.6476 0.0836   0.096689
 H 0.2953 0.9972 0.1603   0.103551
 H 0.3521 0.9036 0.2252   0.125114
 H 0.5396 0.7464 0.55643   0.07554
 H 0.1573 0.6635 0.59353   0.112386
 H 0.5008 0.9432 0.66593   0.08212
 H 0.4471 0.6931 0.48263   0.119288
 H 0.3524 0.5457 0.41693   0.096774
 H 0.0028 0.2981 0.49363   0.10354
 H 0.0964 0.4485 0.55853   0.124941
 H 0.2536 0.7932 0.88977   0.075589
 H 0.3365 0.4938 0.92687   0.112389
 H 0.0568 0.5576 0.99927   0.082118
 H 0.3069 0.754 0.81597   0.119166
 H 0.4543 0.8067 0.75027   0.096551
 H 0.7019 0.7047 0.82697   0.103589
 H 0.5515 0.6479 0.89187   0.125021
 C 0.76 0.4807 0.75644   0.144251
 C 0.6858 0.337 0.76539   -0.054284
 C 0.7094 0.2532 0.73474   0.013763
 C 0.8026 0.3116 0.69576   -0.197027
 C 0.8755 0.4589 0.69122   0.205889
 C 0.832 0.2243 0.66178   0.697488
 C 0.5871 0.2818 0.8067   0.068234
 C 0.6156 0.3579 0.84878   -0.151293
 C 0.5271 0.2997 0.88837   -0.000683
 C 0.4102 0.1633 0.88715   -0.173319
 C 0.3787 0.0897 0.8425   -0.02352
 C 0.4675 0.1468 0.80331   -0.14005
 C 0.3172 0.0973 0.92952   0.712995
 C 0.7207 0.24 0.42311   0.144331
 C 0.6512 0.3142 0.43206   -0.054269
 C 0.5438 0.2906 0.40141   0.013689
 C 0.509 0.1974 0.36243   -0.196973
 C 0.5834 0.1245 0.35789   0.205912
 C 0.3923 0.168 0.32845   0.697462
 C 0.6947 0.4129 0.47337   0.068332
 C 0.7423 0.3844 0.51545   -0.151381
 C 0.7726 0.4729 0.55504   -0.000747
 C 0.7531 0.5898 0.55382   -0.173375
 C 0.711 0.6213 0.50917   -0.023529
 C 0.6793 0.5325 0.46998   -0.13988
 C 0.7801 0.6828 0.59619   0.712909
 C 0.5193 0.2793 0.08977   0.1442
 C 0.663 0.3488 0.09872   -0.054154
 C 0.7468 0.4562 0.06807   0.013791
 C 0.6884 0.491 0.02909   -0.197087
 C 0.5411 0.4166 0.02455   0.20586
 C 0.7757 0.6077 0.99511   0.697643
 C 0.7182 0.3053 0.14003   0.06819
 C 0.6421 0.2577 0.18211   -0.151339
 C 0.7003 0.2274 0.2217   -0.000341
 C 0.8367 0.2469 0.22048   -0.173408
 C 0.9103 0.289 0.17583   -0.023519
 C 0.8532 0.3207 0.13664   -0.140033
 C 0.9027 0.2199 0.26285   0.71303
 C 0.2793 0.5193 0.24356   0.144251
 C 0.3488 0.663 0.23461   -0.054283
 C 0.4562 0.7468 0.26526   0.013763
 C 0.491 0.6884 0.30424   -0.197027
 C 0.4166 0.5411 0.30878   0.205889
 C 0.6077 0.7757 0.33822   0.697488
 C 0.3053 0.7182 0.1933   0.068234
 C 0.2577 0.6421 0.15122   -0.151293
 C 0.2274 0.7003 0.11163   -0.000683
 C 0.2469 0.8367 0.11285   -0.173319
 C 0.289 0.9103 0.1575   -0.02352
 C 0.3207 0.8532 0.19669   -0.140049
 C 0.2199 0.9027 0.07048   0.712995
 C 0.4807 0.76 0.57689   0.144331
 C 0.337 0.6858 0.56794   -0.054269
 C 0.2532 0.7094 0.59859   0.013689
 C 0.3116 0.8026 0.63757   -0.196973
 C 0.4589 0.8755 0.64211   0.205912
 C 0.2243 0.832 0.67155   0.697462
 C 0.2818 0.5871 0.52663   0.068332
 C 0.3579 0.6156 0.48455   -0.151382
 C 0.2997 0.5271 0.44496   -0.000747
 C 0.1633 0.4102 0.44618   -0.173375
 C 0.0897 0.3787 0.49083   -0.02353
 C 0.1468 0.4675 0.53002   -0.13988
 C 0.0973 0.3172 0.40381   0.712909
 C 0.24 0.7207 0.91023   0.1442
 C 0.3142 0.6512 0.90128   -0.054154
 C 0.2906 0.5438 0.93193   0.013791
 C 0.1974 0.509 0.97091   -0.197087
 C 0.1245 0.5834 0.97545   0.205861
 C 0.168 0.3923 0.00489   0.697643
 C 0.4129 0.6947 0.85997   0.06819
 C 0.3844 0.7423 0.81789   -0.151339
 C 0.4729 0.7726 0.7783   -0.000341
 C 0.5898 0.7531 0.77952   -0.173408
 C 0.6213 0.711 0.82417   -0.02352
 C 0.5325 0.6793 0.86336   -0.140033
 C 0.6828 0.7801 0.73715   0.71303
 N 0.8497 0.5375 0.71978   -0.332201
 N 0.6878 0.1503 0.38645   -0.332352
 N 0.4625 0.3122 0.05311   -0.332289
 N 0.3122 0.4625 0.28022   -0.332201
 N 0.5375 0.8497 0.61355   -0.332352
 N 0.1503 0.6878 0.94689   -0.33229
 O 0.2207 0.9746 0.92481   -0.600293
 O 0.3492 0.1679 0.96738   -0.559387
 O 0.7739 0.0964 0.67173   -0.60805
 O 0.9072 0.2818 0.62683   -0.604418
 O 0.7539 0.7793 0.59148   -0.600231
 O 0.8187 0.6508 0.63405   -0.559309
 O 0.3225 0.2261 0.3384   -0.607992
 O 0.3746 0.0928 0.2935   -0.604424
 O 0.0254 0.2461 0.25814   -0.600292
 O 0.8321 0.1813 0.30071   -0.559368
 O 0.9036 0.6775 0.00506   -0.608089
 O 0.7182 0.6254 0.96016   -0.604459
 O 0.2461 0.0254 0.07519   -0.600292
 O 0.1813 0.8321 0.03262   -0.559387
 O 0.6775 0.9036 0.32827   -0.60805
 O 0.6254 0.7182 0.37317   -0.604418
 O 0.9746 0.2207 0.40852   -0.60023
 O 0.1679 0.3492 0.36595   -0.559309
 O 0.0964 0.7739 0.6616   -0.607992
 O 0.2818 0.9072 0.7065   -0.604424
 O 0.7793 0.7539 0.74186   -0.600291
 O 0.6508 0.8187 0.69929   -0.559369
 O 0.2261 0.3225 0.99494   -0.608089
 O 0.0928 0.3746 0.03984   -0.604459
