{'_ref': 'TBD', '_srcid': 'CAKYAQ_clean', 'submitters': [{'name': 'Dalar Nazarian Jeff Camp and David Sholl', 'email': 'dalar@gatech.edu jcamp6@gatech.edu'}], '_method': 'VASP DFT with PBE;DDEC'}
data_Ba2CdH8C16(NO7)2
_symmetry_space_group_name_H-M   'P 1'
_cell_length_a   13.38150000
_cell_length_b   17.76470000
_cell_length_c   17.76470000
_cell_angle_alpha   90.00000000
_cell_angle_beta   90.00000000
_cell_angle_gamma   90.00000000
_symmetry_Int_Tables_number   1
_chemical_formula_structural   Ba2CdH8C16(NO7)2
_chemical_formula_sum   'Ba8 Cd4 H32 C64 N8 O56'
_cell_volume   4222.99487113
_cell_formula_units_Z   4
loop_
 _symmetry_equiv_pos_site_id
 _symmetry_equiv_pos_as_xyz
  1  'x, y, z'
loop_
 _atom_site_label
 _atom_site_fract_x
 _atom_site_fract_y
 _atom_site_fract_z
 _atom_site_charge
 Ba 0.17793 0.13588 0.61427   1.626078
 Ba 0.67793 0.86412 0.38573   1.626078
 Ba 0.42793 0.88573 0.63588   1.62608
 Ba 0.92793 0.11427 0.36412   1.62608
 Ba 0.07207 0.36412 0.11427   1.626079
 Ba 0.57207 0.63588 0.88573   1.626079
 Ba 0.82207 0.61427 0.13588   1.62608
 Ba 0.32207 0.38573 0.86412   1.62608
 Cd 0.25 0.33432 0.66568   1.058923
 Cd 0.75 0.66568 0.33432   1.058923
 Cd 0.5 0.83432 0.83432   1.058923
 Cd 0.0 0.16568 0.16568   1.058923
 H 0.1652 0.2419 0.4154   0.078893
 H 0.3012 0.3029 0.2234   0.09583
 H 0.4217 0.3676 0.2921   0.11373
 H 0.4083 0.3737 0.4228   0.105954
 H 0.6652 0.7581 0.5846   0.078893
 H 0.8012 0.6971 0.7766   0.09583
 H 0.9217 0.6324 0.7079   0.11373
 H 0.9083 0.6263 0.5772   0.105954
 H 0.4152 0.0846 0.7419   0.078893
 H 0.5512 0.2766 0.8029   0.09583
 H 0.6717 0.2079 0.8676   0.11373
 H 0.6583 0.0772 0.8737   0.105954
 H 0.9152 0.9154 0.2581   0.078893
 H 0.0512 0.7234 0.1971   0.09583
 H 0.1717 0.7921 0.1324   0.11373
 H 0.1583 0.9228 0.1263   0.105954
 H 0.0848 0.2581 0.9154   0.078893
 H 0.9488 0.1971 0.7234   0.09583
 H 0.8283 0.1324 0.7921   0.11373
 H 0.8417 0.1263 0.9228   0.105954
 H 0.5848 0.7419 0.0846   0.078893
 H 0.4488 0.8029 0.2766   0.09583
 H 0.3283 0.8676 0.2079   0.11373
 H 0.3417 0.8737 0.0772   0.105954
 H 0.8348 0.4154 0.2419   0.078893
 H 0.6988 0.2234 0.3029   0.09583
 H 0.5783 0.2921 0.3676   0.11373
 H 0.5917 0.4228 0.3737   0.105954
 H 0.3348 0.5846 0.7581   0.078893
 H 0.1988 0.7766 0.6971   0.09583
 H 0.0783 0.7079 0.6324   0.11373
 H 0.0917 0.5772 0.6263   0.105954
 C 0.2858 0.3088 0.4325   -0.160532
 C 0.2155 0.2682 0.3906   0.014609
 C 0.2196 0.2667 0.3127   -0.206629
 C 0.2975 0.3042 0.2757   -0.009975
 C 0.3693 0.3435 0.3166   -0.127004
 C 0.3617 0.3463 0.3953   -0.004504
 C 0.2771 0.3133 0.5158   0.690515
 C 0.1427 0.2255 0.2692   0.760478
 C 0.7858 0.6912 0.5675   -0.160532
 C 0.7155 0.7318 0.6094   0.014609
 C 0.7196 0.7333 0.6873   -0.206629
 C 0.7975 0.6958 0.7243   -0.009975
 C 0.8693 0.6565 0.6834   -0.127004
 C 0.8617 0.6537 0.6047   -0.004504
 C 0.7771 0.6867 0.4842   0.690515
 C 0.6427 0.7745 0.7308   0.760478
 C 0.5358 0.0675 0.8088   -0.160532
 C 0.4655 0.1094 0.7682   0.014609
 C 0.4696 0.1873 0.7667   -0.206629
 C 0.5475 0.2243 0.8042   -0.009975
 C 0.6193 0.1834 0.8435   -0.127004
 C 0.6117 0.1047 0.8463   -0.004504
 C 0.5271 0.9842 0.8133   0.690515
 C 0.3927 0.2308 0.7255   0.760478
 C 0.0358 0.9325 0.1912   -0.160532
 C 0.9655 0.8906 0.2318   0.014609
 C 0.9696 0.8127 0.2333   -0.206629
 C 0.0475 0.7757 0.1958   -0.009975
 C 0.1193 0.8166 0.1565   -0.127004
 C 0.1117 0.8953 0.1537   -0.004504
 C 0.0271 0.0158 0.1867   0.690515
 C 0.8927 0.7692 0.2745   0.760478
 C 0.9642 0.1912 0.9325   -0.160532
 C 0.0345 0.2318 0.8906   0.01461
 C 0.0304 0.2333 0.8127   -0.206629
 C 0.9525 0.1958 0.7757   -0.009976
 C 0.8807 0.1565 0.8166   -0.127004
 C 0.8883 0.1537 0.8953   -0.004504
 C 0.9729 0.1867 0.0158   0.690515
 C 0.1073 0.2745 0.7692   0.760478
 C 0.4642 0.8088 0.0675   -0.160532
 C 0.5345 0.7682 0.1094   0.01461
 C 0.5304 0.7667 0.1873   -0.206629
 C 0.4525 0.8042 0.2243   -0.009976
 C 0.3807 0.8435 0.1834   -0.127004
 C 0.3883 0.8463 0.1047   -0.004504
 C 0.4729 0.8133 0.9842   0.690515
 C 0.6073 0.7255 0.2308   0.760478
 C 0.7142 0.4325 0.3088   -0.160532
 C 0.7845 0.3906 0.2682   0.01461
 C 0.7804 0.3127 0.2667   -0.206629
 C 0.7025 0.2757 0.3042   -0.009976
 C 0.6307 0.3166 0.3435   -0.127004
 C 0.6383 0.3953 0.3463   -0.004504
 C 0.7229 0.5158 0.3133   0.690515
 C 0.8573 0.2692 0.2255   0.760478
 C 0.2142 0.5675 0.6912   -0.160532
 C 0.2845 0.6094 0.7318   0.01461
 C 0.2804 0.6873 0.7333   -0.206629
 C 0.2025 0.7243 0.6958   -0.009976
 C 0.1307 0.6834 0.6565   -0.127004
 C 0.1383 0.6047 0.6537   -0.004504
 C 0.2229 0.4842 0.6867   0.690515
 C 0.3573 0.7308 0.7745   0.760478
 N 0.9554 0.1029 0.5481   0.892213
 N 0.4554 0.8971 0.4519   0.892213
 N 0.2054 0.9519 0.6029   0.892213
 N 0.7054 0.0481 0.3971   0.892213
 N 0.2946 0.3971 0.0481   0.892213
 N 0.7946 0.6029 0.9519   0.892213
 N 0.0446 0.5481 0.1029   0.892213
 N 0.5446 0.4519 0.8971   0.892213
 O 0.0255 0.126 0.506   -0.667545
 O 0.9657 0.1051 0.6169   -0.499741
 O 0.8802 0.0765 0.5182   -0.521308
 O 0.2081 0.2773 0.5477   -0.712593
 O 0.3374 0.3532 0.5521   -0.577763
 O 0.0876 0.1793 0.3017   -0.727171
 O 0.1343 0.2396 0.199   -0.692998
 O 0.5255 0.874 0.494   -0.667545
 O 0.4657 0.8949 0.3831   -0.499741
 O 0.3802 0.9235 0.4818   -0.521308
 O 0.7081 0.7227 0.4523   -0.712593
 O 0.8374 0.6468 0.4479   -0.577763
 O 0.5876 0.8207 0.6983   -0.727171
 O 0.6343 0.7604 0.801   -0.692998
 O 0.2755 0.994 0.626   -0.667545
 O 0.2157 0.8831 0.6051   -0.499741
 O 0.1302 0.9818 0.5765   -0.521308
 O 0.4581 0.9523 0.7773   -0.712593
 O 0.5874 0.9479 0.8532   -0.577763
 O 0.3376 0.1983 0.6793   -0.727171
 O 0.3843 0.301 0.7396   -0.692998
 O 0.7755 0.006 0.374   -0.667545
 O 0.7157 0.1169 0.3949   -0.499741
 O 0.6302 0.0182 0.4235   -0.521308
 O 0.9581 0.0477 0.2227   -0.712593
 O 0.0874 0.0521 0.1468   -0.577763
 O 0.8376 0.8017 0.3207   -0.727171
 O 0.8843 0.699 0.2604   -0.692998
 O 0.2245 0.374 0.006   -0.667545
 O 0.2843 0.3949 0.1169   -0.499741
 O 0.3698 0.4235 0.0182   -0.521308
 O 0.0419 0.2227 0.0477   -0.712593
 O 0.9126 0.1468 0.0521   -0.577763
 O 0.1624 0.3207 0.8017   -0.727171
 O 0.1157 0.2604 0.699   -0.692998
 O 0.7245 0.626 0.994   -0.667545
 O 0.7843 0.6051 0.8831   -0.499741
 O 0.8698 0.5765 0.9818   -0.521308
 O 0.5419 0.7773 0.9523   -0.712593
 O 0.4126 0.8532 0.9479   -0.577763
 O 0.6624 0.6793 0.1983   -0.727171
 O 0.6157 0.7396 0.301   -0.692998
 O 0.9745 0.506 0.126   -0.667545
 O 0.0343 0.6169 0.1051   -0.499741
 O 0.1198 0.5182 0.0765   -0.521308
 O 0.7919 0.5477 0.2773   -0.712593
 O 0.6626 0.5521 0.3532   -0.577763
 O 0.9124 0.3017 0.1793   -0.727171
 O 0.8657 0.199 0.2396   -0.692998
 O 0.4745 0.494 0.874   -0.667545
 O 0.5343 0.3831 0.8949   -0.499741
 O 0.6198 0.4818 0.9235   -0.521308
 O 0.2919 0.4523 0.7227   -0.712593
 O 0.1626 0.4479 0.6468   -0.577763
 O 0.4124 0.6983 0.8207   -0.727171
 O 0.3657 0.801 0.7604   -0.692998
