{'_ref': 'TBD', '_srcid': 'CAKYAQ_clean', 'submitters': [{'name': 'Dalar Nazarian Jeff Camp and David Sholl', 'email': 'dalar@gatech.edu jcamp6@gatech.edu'}], '_method': 'VASP DFT with PBE;DDEC'}
data_Cu3H21(C5N2)4
_symmetry_space_group_name_H-M   'P 1'
_cell_length_a   11.42620046
_cell_length_b   11.45089974
_cell_length_c   12.52430000
_cell_angle_alpha   66.62000014
_cell_angle_beta   89.18199980
_cell_angle_gamma   69.90799735
_symmetry_Int_Tables_number   1
_chemical_formula_structural   Cu3H21(C5N2)4
_chemical_formula_sum   'Cu6 H42 C40 N16'
_cell_volume   1398.36841713
_cell_formula_units_Z   2
loop_
 _symmetry_equiv_pos_site_id
 _symmetry_equiv_pos_as_xyz
  1  'x, y, z'
loop_
 _atom_site_label
 _atom_site_fract_x
 _atom_site_fract_y
 _atom_site_fract_z
 _atom_site_charge
 Cu 0.87294 0.18099 0.08289   0.269958
 Cu 0.04699 0.8679 0.49394   0.253771
 Cu 0.81586 0.63671 0.78168   0.281907
 Cu 0.12706 0.81901 0.91711   0.269958
 Cu 0.95301 0.1321 0.50606   0.253776
 Cu 0.18414 0.36329 0.21832   0.281908
 H 0.4529 0.4178 0.8488   0.130883
 H 0.4413 0.5136 0.9128   0.137088
 H 0.3257 0.4773 0.892   0.13396
 H 0.1882 0.6199 0.709   0.280133
 H 0.893 0.8865 0.2099   0.29199
 H 0.2988 0.9991 0.4861   0.138166
 H 0.4218 0.9007 0.4646   0.121438
 H 0.2903 0.9278 0.4039   0.129472
 H 0.5947 0.6057 0.7561   0.117854
 H 0.5749 0.7311 0.6359   0.114767
 H 0.3563 0.8784 0.772   0.121698
 H 0.3783 0.0104 0.8653   0.076169
 H 0.5783 0.9875 0.9272   0.122116
 H 0.8387 0.8733 0.8207   0.130438
 H 0.8581 0.7332 0.9261   0.115185
 H 0.8051 0.6743 0.2209   0.126515
 H 0.8878 0.6193 0.1378   0.140284
 H 0.9508 0.6385 0.2369   0.140745
 H 0.773 0.2222 0.8465   0.128525
 H 0.8519 0.1274 0.7884   0.127284
 H 0.7092 0.1503 0.7957   0.126602
 H 0.5471 0.5822 0.1512   0.130883
 H 0.5587 0.4864 0.0872   0.137086
 H 0.6743 0.5227 0.108   0.133959
 H 0.8118 0.3801 0.291   0.280134
 H 0.107 0.1135 0.7901   0.291988
 H 0.7012 0.000900000000001 0.5139   0.138166
 H 0.5782 0.0993 0.5354   0.121439
 H 0.7097 0.0722 0.5961   0.129475
 H 0.4053 0.3943 0.2439   0.117854
 H 0.4251 0.2689 0.3641   0.114767
 H 0.6437 0.1216 0.228   0.121697
 H 0.6217 0.9896 0.1347   0.076162
 H 0.4217 0.0125 0.0728   0.122111
 H 0.1613 0.1267 0.1793   0.130439
 H 0.1419 0.2668 0.0739   0.115185
 H 0.1949 0.3257 0.7791   0.126513
 H 0.1122 0.3807 0.8622   0.140282
 H 0.0492 0.3615 0.7631   0.140744
 H 0.227 0.7778 0.1535   0.128524
 H 0.1481 0.8726 0.2116   0.127283
 H 0.2908 0.8497 0.2043   0.126606
 C 0.3975 0.4957 0.8598   -0.368291
 C 0.3554 0.6158 0.746   0.171502
 C 0.4113 0.7028 0.6801   -0.199008
 C 0.3245 0.7973 0.5782   0.212018
 C 0.3348 0.9172 0.4736   -0.37017
 C 0.5404 0.6997 0.7086   -0.188243
 C 0.5427 0.7865 0.7734   0.27819
 C 0.4357 0.8728 0.7951   -0.229657
 C 0.449 0.9503 0.8515   0.037176
 C 0.5676 0.9379 0.8871   -0.247389
 C 0.6724 0.849 0.8619   0.282353
 C 0.8074 0.8303 0.8925   -0.201001
 C 0.8771 0.6747 0.1807   -0.36975
 C 0.858 0.8183 0.0971   0.174984
 C 0.8254 0.8885 0.9776   -0.201289
 C 0.82 0.0215 0.9508   0.231831
 C 0.7855 0.1408 0.8352   -0.368256
 C 0.9771 0.0021 0.3431   -0.134472
 C 0.9099 0.6981 0.6644   -0.154648
 C 0.8428 0.3588 0.9727   -0.136585
 C 0.6025 0.5043 0.1402   -0.368291
 C 0.6446 0.3842 0.254   0.171503
 C 0.5887 0.2972 0.3199   -0.199005
 C 0.6755 0.2027 0.4218   0.212023
 C 0.6652 0.0828 0.5264   -0.370172
 C 0.4596 0.3003 0.2914   -0.188243
 C 0.4573 0.2135 0.2266   0.278189
 C 0.5643 0.1272 0.2049   -0.229658
 C 0.551 0.0497 0.1485   0.037176
 C 0.4324 0.0621 0.1129   -0.247388
 C 0.3276 0.151 0.1381   0.282353
 C 0.1926 0.1697 0.1075   -0.201001
 C 0.1229 0.3253 0.8193   -0.369749
 C 0.142 0.1817 0.9029   0.174983
 C 0.1746 0.1115 0.0224   -0.201288
 C 0.18 0.9785 0.0492   0.231831
 C 0.2145 0.8592 0.1648   -0.368257
 C 0.0229 0.9979 0.6569   -0.134472
 C 0.0901 0.3019 0.3356   -0.154647
 C 0.1572 0.6412 0.0273   -0.136585
 N 0.2197 0.7693 0.5829   -0.227561
 N 0.2416 0.659 0.685   -0.118406
 N 0.6585 0.7751 0.8066   -0.34063
 N 0.8719 0.9068 0.1372   -0.128761
 N 0.8482 0.0327 0.048   -0.262737
 N 0.9348 0.0755 0.2483   -0.299083
 N 0.9675 0.7416 0.5978   -0.295251
 N 0.8302 0.4626 0.9032   -0.303817
 N 0.7803 0.2307 0.4171   -0.227561
 N 0.7584 0.341 0.315   -0.118405
 N 0.3415 0.2249 0.1934   -0.34063
 N 0.1281 0.0932 0.8628   -0.12876
 N 0.1518 0.9673 0.952   -0.262738
 N 0.0652 0.9245 0.7517   -0.299081
 N 0.0325 0.2584 0.4022   -0.295251
 N 0.1698 0.5374 0.0968   -0.303817
