{'_ref': 'TBD', '_srcid': 'CAKYAQ_clean', 'submitters': [{'name': 'Dalar Nazarian Jeff Camp and David Sholl', 'email': 'dalar@gatech.edu jcamp6@gatech.edu'}], '_method': 'VASP DFT with PBE;DDEC'}
data_NiH9C11(NO)2
_symmetry_space_group_name_H-M   'P 1'
_cell_length_a   8.14050028
_cell_length_b   10.50319992
_cell_length_c   11.33360000
_cell_angle_alpha   62.39559794
_cell_angle_beta   84.17319955
_cell_angle_gamma   77.34399778
_symmetry_Int_Tables_number   1
_chemical_formula_structural   NiH9C11(NO)2
_chemical_formula_sum   'Ni2 H18 C22 N4 O4'
_cell_volume   837.865555911
_cell_formula_units_Z   2
loop_
 _symmetry_equiv_pos_site_id
 _symmetry_equiv_pos_as_xyz
  1  'x, y, z'
loop_
 _atom_site_label
 _atom_site_fract_x
 _atom_site_fract_y
 _atom_site_fract_z
 _atom_site_charge
 Ni 0.8182 0.94826 0.50648   0.359645
 Ni 0.3182 0.45474 0.49352   0.359485
 H 0.736 0.746 0.376   0.080441
 H 0.098 0.757 0.44   -0.049031
 H 0.762 0.739 0.19   0.148784
 H 0.727 0.798 0.966   0.029517
 H 0.915 0.151 0.216   0.084477
 H 0.739 0.81 0.78   -0.000787
 H 0.868 0.17 0.998   0.14845
 H 0.862 0.128 0.622   0.080927
 H 0.905 0.103 0.818   -0.00059
 H 0.236 0.122 0.624   0.079927
 H 0.598 0.197 0.56   -0.049007
 H 0.262 0.929 0.81   0.149408
 H 0.227 0.764 0.034   0.029378
 H 0.415 0.367 0.784   0.084208
 H 0.239 0.59 0.22   -0.004463
 H 0.368 0.168 0.002   0.148487
 H 0.362 0.75 0.378   0.081507
 H 0.405 0.921 0.182   -0.001924
 C 0.8162 0.9511 0.9406   -0.006037
 C 0.8211 0.9469 0.0736   0.101128
 C 0.7897 0.8354 0.3094   0.110333
 C 0.7862 0.8259 0.19   -0.219486
 C 0.8612 0.0648 0.0848   -0.229484
 C 0.764 0.8455 0.925   -0.065605
 C 0.8615 0.0567 0.2094   0.112825
 C 0.0798 0.6899 0.5418   0.584147
 C 0.864 0.0598 0.8238   -0.005505
 C 0.759 0.8475 0.804   0.235996
 C 0.8623 0.0601 0.705   0.086994
 C 0.3162 0.8917 0.0594   -0.006582
 C 0.3211 0.0205 0.9264   0.102148
 C 0.2897 0.1448 0.6906   0.111872
 C 0.2862 0.0159 0.81   -0.221589
 C 0.3612 0.1496 0.9152   -0.2295
 C 0.264 0.7705 0.075   -0.066571
 C 0.3615 0.2661 0.7906   0.113261
 C 0.5798 0.2317 0.4582   0.583702
 C 0.364 0.8836 0.1762   -0.003356
 C 0.259 0.6515 0.196   0.240223
 C 0.3623 0.7651 0.295   0.086203
 N 0.8246 0.9455 0.3238   -0.206165
 N 0.8119 0.9537 0.6922   -0.297283
 N 0.3246 0.2693 0.6762   -0.20637
 N 0.3119 0.6459 0.3078   -0.297427
 O 0.9636 0.738 0.6006   -0.537625
 O 0.1675 0.5643 0.5936   -0.546147
 O 0.4636 0.3386 0.3994   -0.53695
 O 0.6675 0.1579 0.4064   -0.545992
