{'_ref': 'TBD', '_srcid': 'CAKYAQ_clean', 'submitters': [{'name': 'Dalar Nazarian Jeff Camp and David Sholl', 'email': 'dalar@gatech.edu jcamp6@gatech.edu'}], '_method': 'VASP DFT with PBE;DDEC'}
data_Co5H24C30(N2O)12
_symmetry_space_group_name_H-M   'P 1'
_cell_length_a   9.27500044
_cell_length_b   12.92200007
_cell_length_c   14.56400000
_cell_angle_alpha   105.06000146
_cell_angle_beta   97.19399892
_cell_angle_gamma   96.25399913
_symmetry_Int_Tables_number   1
_chemical_formula_structural   Co5H24C30(N2O)12
_chemical_formula_sum   'Co5 H24 C30 N24 O12'
_cell_volume   1653.96419597
_cell_formula_units_Z   1
loop_
 _symmetry_equiv_pos_site_id
 _symmetry_equiv_pos_as_xyz
  1  'x, y, z'
loop_
 _atom_site_label
 _atom_site_fract_x
 _atom_site_fract_y
 _atom_site_fract_z
 _atom_site_charge
 Co 0.44528 0.91885 0.71791   1.07255
 Co 0.95294 0.70279 0.87317   0.849007
 Co 0.55472 0.08115 0.28209   1.072551
 Co 0.04706 0.29721 0.12683   0.849007
 Co 0.0 0.0 0.0   0.373374
 H 0.7007 0.3562 0.8337   0.094307
 H 0.5667 0.1361 0.5803   0.111083
 H 0.753 0.4332 0.5889   0.1059
 H 0.0444 0.945 0.2107   0.099718
 H 0.6938 0.0187 0.8924   0.070988
 H 0.1933 0.7413 0.7386   0.096763
 H 0.2729 0.1222 0.9463   0.359805
 H 0.3671 0.1047 0.8696   0.348832
 H 0.9138 0.565 0.0113   0.342537
 H 0.9254 0.5759 0.1165   0.371674
 H 0.5406 0.6857 0.674   0.348404
 H 0.6608 0.6342 0.7137   0.351974
 H 0.2993 0.6438 0.1663   0.094304
 H 0.4333 0.8639 0.4197   0.111082
 H 0.247 0.5668 0.4111   0.1059
 H 0.9556 0.055 0.7893   0.099718
 H 0.3062 0.9813 0.1076   0.070988
 H 0.8067 0.2587 0.2614   0.096763
 H 0.7271 0.8778 0.0537   0.359805
 H 0.6329 0.8953 0.1304   0.348832
 H 0.0862 0.435 0.9887   0.342536
 H 0.0746 0.4241 0.8835   0.371672
 H 0.4594 0.3143 0.326   0.348404
 H 0.3392 0.3658 0.2863   0.351974
 C 0.8176 0.5216 0.7773   0.616354
 C 0.741 0.4093 0.7197   -0.180129
 C 0.6908 0.3364 0.7668   0.03089
 C 0.6246 0.232 0.713   -0.162224
 C 0.6096 0.2057 0.616   0.030178
 C 0.6571 0.2807 0.568   -0.157264
 C 0.7219 0.3824 0.62   0.025015
 C 0.6345 0.2491 0.4605   0.67725
 C 0.5674 0.1505 0.7637   0.680955
 C 0.9658 0.7111 0.0885   0.67776
 C 0.0217 0.8802 0.1619   0.269724
 C 0.6721 0.7856 0.7818   0.663723
 C 0.7071 0.947 0.8677   0.270697
 C 0.238 0.9722 0.8648   0.588788
 C 0.1921 0.8068 0.7837   0.302605
 C 0.1824 0.4784 0.2227   0.616354
 C 0.259 0.5907 0.2803   -0.180129
 C 0.3092 0.6636 0.2332   0.030891
 C 0.3754 0.768 0.287   -0.162224
 C 0.3904 0.7943 0.384   0.030179
 C 0.3429 0.7193 0.432   -0.157264
 C 0.2781 0.6176 0.38   0.025015
 C 0.3655 0.7509 0.5395   0.677252
 C 0.4326 0.8495 0.2363   0.680956
 C 0.0342 0.2889 0.9115   0.677759
 C 0.9783 0.1198 0.8381   0.269726
 C 0.3279 0.2144 0.2182   0.663724
 C 0.2929 0.053 0.1323   0.270697
 C 0.762 0.0278 0.1352   0.588788
 C 0.8079 0.1932 0.2163   0.302607
 N 0.1058 0.8195 0.8492   -0.307576
 N 0.1355 0.9268 0.9029   -0.217943
 N 0.2792 0.8999 0.7893   -0.596543
 N 0.3005 0.08 0.8977   -0.73158
 N 0.0124 0.873 0.0711   -0.144731
 N 0.9773 0.7643 0.0218   -0.460204
 N 0.9941 0.7819 0.1766   -0.592019
 N 0.9309 0.605 0.0699   -0.72754
 N 0.8124 0.9063 0.9029   -0.110959
 N 0.7936 0.7976 0.8489   -0.430881
 N 0.6159 0.8779 0.7913   -0.611724
 N 0.6179 0.6902 0.715   -0.709458
 N 0.8942 0.1805 0.1508   -0.307577
 N 0.8645 0.0732 0.0971   -0.217943
 N 0.7208 0.1001 0.2107   -0.596544
 N 0.6995 0.92 0.1023   -0.73158
 N 0.9876 0.127 0.9289   -0.144731
 N 0.0227 0.2357 0.9782   -0.460204
 N 0.0059 0.2181 0.8234   -0.592019
 N 0.0691 0.395 0.9301   -0.727539
 N 0.1876 0.0937 0.0971   -0.110959
 N 0.2064 0.2024 0.1511   -0.430881
 N 0.3841 0.1221 0.2087   -0.611724
 N 0.3821 0.3098 0.285   -0.709458
 O 0.8197 0.5528 0.8667   -0.566618
 O 0.8787 0.5826 0.7343   -0.553992
 O 0.4976 0.0626 0.7064   -0.612732
 O 0.5893 0.1722 0.8513   -0.573961
 O 0.5955 0.148 0.4193   -0.60122
 O 0.6532 0.3184 0.4171   -0.594871
 O 0.1803 0.4472 0.1333   -0.566618
 O 0.1213 0.4174 0.2657   -0.553992
 O 0.5024 0.9374 0.2936   -0.612732
 O 0.4107 0.8278 0.1487   -0.573961
 O 0.4045 0.852 0.5807   -0.601221
 O 0.3468 0.6816 0.5829   -0.594871
