{'_ref': 'TBD', '_srcid': 'CAKYAQ_clean', 'submitters': [{'name': 'Dalar Nazarian Jeff Camp and David Sholl', 'email': 'dalar@gatech.edu jcamp6@gatech.edu'}], '_method': 'VASP DFT with PBE;DDEC'}
data_MnH4(C2O)4
_symmetry_space_group_name_H-M   'P 1'
_cell_length_a   10.68429950
_cell_length_b   13.48409586
_cell_length_c   14.37888686
_cell_angle_alpha   76.88045781
_cell_angle_beta   68.19023202
_cell_angle_gamma   66.66033808
_symmetry_Int_Tables_number   1
_chemical_formula_structural   MnH4(C2O)4
_chemical_formula_sum   'Mn6 H24 C48 O24'
_cell_volume   1758.13454291
_cell_formula_units_Z   6
loop_
 _symmetry_equiv_pos_site_id
 _symmetry_equiv_pos_as_xyz
  1  'x, y, z'
loop_
 _atom_site_label
 _atom_site_fract_x
 _atom_site_fract_y
 _atom_site_fract_z
 _atom_site_charge
 Mn 0.00519 0.96079 0.89067   1.101721
 Mn 0.35665 0.53921 0.60933   1.101757
 Mn 0.99481 0.03921 0.10933   1.10172
 Mn 0.64335 0.46079 0.39067   1.101756
 Mn 0.28139 0.75 0.75   1.249645
 Mn 0.71861 0.25 0.25   1.249645
 H 0.2292 0.8187 0.1533   0.100084
 H 0.3631 0.6865 0.2475   0.110283
 H 0.403 0.4578 0.0924   0.110333
 H 0.2826 0.591 0.9906   0.094958
 H 0.1537 0.8379 0.5521   0.095802
 H 0.84 0.1253 0.6147   0.108903
 H 0.7012 0.6813 0.3467   0.099524
 H 0.7971 0.8135 0.2525   0.108412
 H 0.4532 0.0422 0.4076   0.110964
 H 0.3642 0.909 0.5094   0.093946
 H 0.0437 0.6621 0.9479   0.095936
 H 0.08 0.3747 0.8853   0.109415
 H 0.7708 0.1813 0.8467   0.100085
 H 0.6369 0.3135 0.7525   0.110283
 H 0.597 0.5422 0.9076   0.110333
 H 0.7174 0.409 0.0094   0.094958
 H 0.8463 0.1621 0.4479   0.095801
 H 0.16 0.8747 0.3853   0.108903
 H 0.2988 0.3187 0.6533   0.099525
 H 0.2029 0.1865 0.7475   0.108412
 H 0.5468 0.9578 0.5924   0.110964
 H 0.6358 0.091 0.4906   0.093946
 H 0.9563 0.3379 0.0521   0.095935
 H 0.92 0.6253 0.1147   0.109415
 C 0.1676 0.80446 0.99574   0.731245
 C 0.24535 0.71826 0.06084   -0.157914
 C 0.2669 0.74668 0.13932   -0.040114
 C 0.3452 0.66708 0.19692   -0.05997
 C 0.39648 0.55907 0.17937   -0.120787
 C 0.37092 0.53046 0.1033   -0.05805
 C 0.29706 0.61035 0.04293   -0.035197
 C 0.48667 0.47438 0.23968   0.706905
 C 0.9973 0.95602 0.70658   0.690043
 C 0.99745 0.9783 0.5998   -0.120979
 C 0.09214 0.90313 0.53119   -0.049524
 C 0.90438 0.07513 0.56871   -0.062102
 C 0.4678 0.69554 0.50426   0.729993
 C 0.52445 0.78174 0.43916   -0.156359
 C 0.6529 0.75332 0.36068   -0.040426
 C 0.7092 0.83292 0.30308   -0.058844
 C 0.63492 0.94093 0.32063   -0.117811
 C 0.50468 0.96954 0.3967   -0.06173
 C 0.45034 0.88965 0.45707   -0.032287
 C 0.70073 0.02562 0.26032   0.706196
 C 0.1599 0.54398 0.79342   0.691438
 C 0.07555 0.5217 0.9002   -0.121673
 C 0.02646 0.59687 0.96881   -0.051768
 C 0.04822 0.42487 0.93129   -0.060827
 C 0.8324 0.19554 0.00426   0.731245
 C 0.75465 0.28174 0.93916   -0.157914
 C 0.7331 0.25332 0.86068   -0.040114
 C 0.6548 0.33292 0.80308   -0.059969
 C 0.60352 0.44093 0.82063   -0.120787
 C 0.62908 0.46954 0.8967   -0.05805
 C 0.70294 0.38965 0.95707   -0.035197
 C 0.51333 0.52562 0.76032   0.706905
 C 0.0027 0.04398 0.29342   0.690044
 C 0.00255 0.0217 0.4002   -0.120982
 C 0.90786 0.09687 0.46881   -0.049515
 C 0.09562 0.92487 0.43129   -0.062093
 C 0.5322 0.30446 0.49574   0.729993
 C 0.47555 0.21826 0.56084   -0.156359
 C 0.3471 0.24668 0.63932   -0.040426
 C 0.2908 0.16708 0.69692   -0.058843
 C 0.36508 0.05907 0.67937   -0.117811
 C 0.49532 0.03046 0.6033   -0.061729
 C 0.54966 0.11035 0.54293   -0.032287
 C 0.29927 0.97438 0.73968   0.706195
 C 0.8401 0.45602 0.20658   0.691439
 C 0.92445 0.4783 0.0998   -0.121676
 C 0.97354 0.40313 0.03119   -0.051761
 C 0.95178 0.57513 0.06871   -0.060819
 O 0.0955 0.89884 0.02396   -0.640076
 O 0.17074 0.78325 0.91367   -0.642365
 O 0.54245 0.37835 0.21615   -0.619567
 O 0.50138 0.50832 0.30792   -0.623063
 O 0.07865 0.86647 0.73483   -0.654419
 O 0.916 0.02747 0.76573   -0.590797
 O 0.5183 0.60116 0.47604   -0.640012
 O 0.36766 0.71675 0.58633   -0.64199
 O 0.63695 0.12165 0.28385   -0.61942
 O 0.81762 0.99168 0.19208   -0.623822
 O 0.17995 0.63353 0.76517   -0.654489
 O 0.2092 0.47253 0.73427   -0.591134
 O 0.9045 0.10116 0.97604   -0.640076
 O 0.82926 0.21675 0.08633   -0.642365
 O 0.45755 0.62165 0.78385   -0.619567
 O 0.49862 0.49168 0.69208   -0.623063
 O 0.92135 0.13353 0.26517   -0.654419
 O 0.084 0.97253 0.23427   -0.590797
 O 0.4817 0.39884 0.52396   -0.640012
 O 0.63234 0.28325 0.41367   -0.64199
 O 0.36305 0.87835 0.71615   -0.61942
 O 0.18238 0.00832 0.80792   -0.623822
 O 0.82005 0.36647 0.23483   -0.654489
 O 0.7908 0.52747 0.26573   -0.591134
