{'_ref': 'TBD', '_srcid': 'CAKYAQ_clean', 'submitters': [{'name': 'Dalar Nazarian Jeff Camp and David Sholl', 'email': 'dalar@gatech.edu jcamp6@gatech.edu'}], '_method': 'VASP DFT with PBE;DDEC'}
data_MnH4(C2O)4
_symmetry_space_group_name_H-M   'P 1'
_cell_length_a   10.58419977
_cell_length_b   13.47379979
_cell_length_c   14.42000000
_cell_angle_alpha   77.22029892
_cell_angle_beta   68.46949910
_cell_angle_gamma   66.87309752
_symmetry_Int_Tables_number   1
_chemical_formula_structural   MnH4(C2O)4
_chemical_formula_sum   'Mn6 H24 C48 O24'
_cell_volume   1752.05428405
_cell_formula_units_Z   6
loop_
 _symmetry_equiv_pos_site_id
 _symmetry_equiv_pos_as_xyz
  1  'x, y, z'
loop_
 _atom_site_label
 _atom_site_fract_x
 _atom_site_fract_y
 _atom_site_fract_z
 _atom_site_charge
 Mn 0.35837 0.03705 0.61135   1.101579
 Mn 0.00677 0.46295 0.88865   1.099876
 Mn 0.64163 0.96295 0.38865   1.101579
 Mn 0.99323 0.53705 0.11135   1.099876
 Mn 0.28161 0.25 0.75   1.250864
 Mn 0.71839 0.75 0.25   1.250864
 H 0.361 0.4095 0.5119   0.096513
 H 0.7008 0.1804 0.347   0.098642
 H 0.4508 0.5424 0.4098   0.108751
 H 0.7937 0.3131 0.2499   0.107449
 H 0.0385 0.1648 0.9468   0.0974
 H 0.0899 0.8699 0.8871   0.110142
 H 0.2824 0.0905 0.9881   0.097246
 H 0.2282 0.3196 0.153   0.099449
 H 0.403 0.9576 0.0902   0.107578
 H 0.3567 0.1869 0.2501   0.106812
 H 0.1501 0.3352 0.5532   0.098224
 H 0.8469 0.6301 0.6129   0.109087
 H 0.639 0.5905 0.4881   0.096513
 H 0.2992 0.8196 0.653   0.098642
 H 0.5492 0.4576 0.5902   0.108751
 H 0.2063 0.6869 0.7501   0.107449
 H 0.9615 0.8352 0.0532   0.097399
 H 0.9101 0.1301 0.1129   0.110142
 H 0.7176 0.9095 0.0119   0.097246
 H 0.7718 0.6804 0.847   0.099449
 H 0.597 0.0424 0.9098   0.107578
 H 0.6433 0.8131 0.7499   0.106812
 H 0.8499 0.6648 0.4468   0.098223
 H 0.1531 0.3699 0.3871   0.109087
 C 0.467 0.1948 0.5054   0.733695
 C 0.522 0.2818 0.4404   -0.153497
 C 0.4488 0.3895 0.4583   -0.038792
 C 0.6507 0.2539 0.3611   -0.043855
 C 0.5036 0.4685 0.3981   -0.062251
 C 0.7054 0.3333 0.3031   -0.0637
 C 0.634 0.4416 0.321   -0.113256
 C 0.6975 0.5262 0.2596   0.709152
 C 0.1634 0.0421 0.7947   0.688656
 C 0.0766 0.0214 0.9006   -0.116283
 C 0.0229 0.0975 0.9683   -0.052267
 C 0.0534 0.9232 0.9328   -0.0657
 C 0.1672 0.3052 0.9946   0.734179
 C 0.2442 0.2182 0.0596   -0.151976
 C 0.2966 0.1105 0.0417   -0.039752
 C 0.2657 0.2461 0.1389   -0.045972
 C 0.3702 0.0315 0.1019   -0.058032
 C 0.3418 0.1667 0.1969   -0.061785
 C 0.3966 0.0584 0.179   -0.117877
 C 0.4833 0.9738 0.2404   0.711847
 C 0.0002 0.4579 0.7053   0.687495
 C 0.9986 0.4786 0.5994   -0.11388
 C 0.0887 0.4025 0.5317   -0.055048
 C 0.9094 0.5768 0.5672   -0.064309
 C 0.533 0.8052 0.4946   0.733695
 C 0.478 0.7182 0.5596   -0.153497
 C 0.5512 0.6105 0.5417   -0.038792
 C 0.3493 0.7461 0.6389   -0.043855
 C 0.4964 0.5315 0.6019   -0.062251
 C 0.2946 0.6667 0.6969   -0.0637
 C 0.366 0.5584 0.679   -0.113256
 C 0.3025 0.4738 0.7404   0.709152
 C 0.8366 0.9579 0.2053   0.688657
 C 0.9234 0.9786 0.0994   -0.116284
 C 0.9771 0.9025 0.0317   -0.052263
 C 0.9466 0.0768 0.0672   -0.065695
 C 0.8328 0.6948 0.0054   0.734179
 C 0.7558 0.7818 0.9404   -0.151976
 C 0.7034 0.8895 0.9583   -0.039752
 C 0.7343 0.7539 0.8611   -0.045972
 C 0.6298 0.9685 0.8981   -0.058032
 C 0.6582 0.8333 0.8031   -0.061785
 C 0.6034 0.9416 0.821   -0.117877
 C 0.5167 0.0262 0.7596   0.711847
 C 0.9998 0.5421 0.2947   0.687496
 C 0.0014 0.5214 0.4006   -0.113883
 C 0.9113 0.5975 0.4683   -0.055041
 C 0.0906 0.4232 0.4328   -0.0643
 O 0.36752 0.21535 0.58721   -0.642628
 O 0.51729 0.10181 0.47541   -0.640585
 O 0.81176 0.49178 0.1909   -0.617722
 O 0.63466 0.62208 0.2842   -0.624602
 O 0.21624 0.96892 0.7376   -0.584788
 O 0.18047 0.13296 0.7661   -0.656921
 O 0.17008 0.28465 0.91279   -0.642922
 O 0.09451 0.39819 0.02459   -0.641148
 O 0.49444 0.00822 0.3091   -0.620295
 O 0.54094 0.87792 0.2158   -0.624576
 O 0.92276 0.53108 0.7624   -0.583505
 O 0.07953 0.36704 0.7339   -0.656724
 O 0.63248 0.78465 0.41279   -0.642628
 O 0.48271 0.89819 0.52459   -0.640585
 O 0.18824 0.50822 0.8091   -0.617722
 O 0.36534 0.37792 0.7158   -0.624602
 O 0.78376 0.03108 0.2624   -0.584788
 O 0.81953 0.86704 0.2339   -0.656921
 O 0.82992 0.71535 0.08721   -0.642922
 O 0.90549 0.60181 0.97541   -0.641148
 O 0.50556 0.99178 0.6909   -0.620295
 O 0.45906 0.12208 0.7842   -0.624576
 O 0.07724 0.46892 0.2376   -0.583505
 O 0.92047 0.63296 0.2661   -0.656724
