{'_ref': 'TBD', '_srcid': 'CAKYAQ_clean', 'submitters': [{'name': 'Dalar Nazarian Jeff Camp and David Sholl', 'email': 'dalar@gatech.edu jcamp6@gatech.edu'}], '_method': 'VASP DFT with PBE;DDEC'}
data_ZnH12C9N4O3
_symmetry_space_group_name_H-M   'P 1'
_cell_length_a   9.19799953
_cell_length_b   9.33000000
_cell_length_c   9.63600000
_cell_angle_alpha   90.00000000
_cell_angle_beta   118.47999887
_cell_angle_gamma   90.00000000
_symmetry_Int_Tables_number   1
_chemical_formula_structural   ZnH12C9N4O3
_chemical_formula_sum   'Zn2 H24 C18 N8 O6'
_cell_volume   726.863070277
_cell_formula_units_Z   2
loop_
 _symmetry_equiv_pos_site_id
 _symmetry_equiv_pos_as_xyz
  1  'x, y, z'
loop_
 _atom_site_label
 _atom_site_fract_x
 _atom_site_fract_y
 _atom_site_fract_z
 _atom_site_charge
 Zn 0.91601 0.44079 0.13712   0.824693
 Zn 0.08399 0.94079 0.86288   0.824693
 H 0.6351 0.5088 0.07   0.31315
 H 0.6631 0.3669 0.1378   0.318388
 H 0.0352 0.7436 0.0929   0.043358
 H 0.8273 0.5715 0.5294   0.110353
 H 0.8512 0.738 0.5431   0.113022
 H 0.1058 0.4321 0.6562   0.267871
 H 0.838 0.448 0.7724   0.104138
 H 0.1286 0.7191 0.6242   0.080218
 H 0.3307 0.2886 0.7854   0.13116
 H 0.3634 0.3494 0.9497   0.148048
 H 0.5825 0.4141 0.8381   0.048402
 H 0.5953 0.2644 0.915   0.055626
 H 0.3649 0.0088 0.93   0.313143
 H 0.3369 0.8669 0.8622   0.318387
 H 0.9648 0.2436 0.9071   0.043356
 H 0.1727 0.0715 0.4706   0.110351
 H 0.1488 0.238 0.4569   0.113022
 H 0.8942 0.9321 0.3438   0.267871
 H 0.162 0.948 0.2276   0.104137
 H 0.8714 0.2191 0.3758   0.080217
 H 0.6693 0.7886 0.2146   0.131152
 H 0.6366 0.8494 0.0503   0.148045
 H 0.4175 0.9141 0.1619   0.048403
 H 0.4047 0.7644 0.085   0.055621
 C 0.994 0.6949 0.9973   0.283637
 C 0.9023 0.6475 0.5911   -0.233947
 C 0.8861 0.5336 0.8226   -0.062158
 C 0.0631 0.6316 0.5825   0.040956
 C 0.0149 0.6183 0.4083   0.637126
 C 0.3084 0.5091 0.7835   0.567071
 C 0.9233 0.6424 0.7554   0.155747
 C 0.383 0.3654 0.861   -0.361463
 C 0.5636 0.3634 0.9159   0.146957
 C 0.006 0.1949 0.0027   0.283638
 C 0.0977 0.1475 0.4089   -0.233946
 C 0.1139 0.0336 0.1774   -0.062158
 C 0.9369 0.1316 0.4175   0.040956
 C 0.9851 0.1183 0.5917   0.637126
 C 0.6916 0.0091 0.2165   0.56707
 C 0.0767 0.1424 0.2446   0.155747
 C 0.617 0.8654 0.139   -0.36146
 C 0.4364 0.8634 0.0841   0.146957
 N 0.673 0.4209 0.0654   -0.641283
 N 0.995 0.7499 0.8718   -0.473921
 N 0.1577 0.5124 0.6757   -0.373621
 N 0.9288 0.5659 0.9764   -0.432342
 N 0.327 0.9209 0.9346   -0.64128
 N 0.005 0.2499 0.1282   -0.473921
 N 0.8423 0.0124 0.3243   -0.373621
 N 0.0712 0.0659 0.0236   -0.432342
 O 0.0067 0.4936 0.3566   -0.602883
 O 0.9882 0.7266 0.3291   -0.58575
 O 0.3867 0.6273 0.8304   -0.622544
 O 0.9933 0.9936 0.6434   -0.602883
 O 0.0118 0.2266 0.6709   -0.58575
 O 0.6133 0.1273 0.1696   -0.622543
