{'_ref': 'TBD', '_srcid': 'CAKYAQ_clean', 'submitters': [{'name': 'Dalar Nazarian Jeff Camp and David Sholl', 'email': 'dalar@gatech.edu jcamp6@gatech.edu'}], '_method': 'VASP DFT with PBE;DDEC'}
data_ZnH12C9N4O3
_symmetry_space_group_name_H-M   'P 1'
_cell_length_a   9.12690000
_cell_length_b   9.34269946
_cell_length_c   9.60400000
_cell_angle_alpha   114.45499945
_cell_angle_beta   90.00000000
_cell_angle_gamma   90.00000000
_symmetry_Int_Tables_number   1
_chemical_formula_structural   ZnH12C9N4O3
_chemical_formula_sum   'Zn2 H24 C18 N8 O6'
_cell_volume   745.46286888
_cell_formula_units_Z   2
loop_
 _symmetry_equiv_pos_site_id
 _symmetry_equiv_pos_as_xyz
  1  'x, y, z'
loop_
 _atom_site_label
 _atom_site_fract_x
 _atom_site_fract_y
 _atom_site_fract_z
 _atom_site_charge
 Zn 0.56466 0.40359 0.28456   0.814512
 Zn 0.06466 0.59641 0.71544   0.814511
 H 0.2769 0.5664 0.4544   0.048331
 H 0.4312 0.3573 0.8428   0.106617
 H 0.2624 0.3877 0.8453   0.114905
 H 0.5744 0.6206 0.9124   0.292508
 H 0.5594 0.3383 0.5921   0.111985
 H 0.6788 0.0789 0.2522   0.076238
 H 0.7672 0.1118 0.1287   0.061677
 H 0.2897 0.6512 0.0   0.074324
 H 0.6612 0.8924 0.9339   0.138543
 H 0.7423 0.8415 0.05   0.139905
 H 0.55 0.161 0.046   0.335576
 H 0.476 0.133 0.159   0.318327
 H 0.7769 0.4336 0.5456   0.048332
 H 0.9312 0.6427 0.1572   0.106614
 H 0.7624 0.6123 0.1547   0.114905
 H 0.0744 0.3794 0.0876   0.292508
 H 0.0594 0.6617 0.4079   0.111985
 H 0.1788 0.9211 0.7478   0.076239
 H 0.2672 0.8882 0.8713   0.061673
 H 0.7897 0.3488 0.0   0.074321
 H 0.1612 0.1076 0.0661   0.138539
 H 0.2423 0.1585 0.95   0.139897
 H 0.05 0.839 0.954   0.335568
 H 0.976 0.867 0.841   0.318324
 C 0.3232 0.5215 0.5129   0.269
 C 0.3578 0.4321 0.8422   -0.235327
 C 0.4783 0.3965 0.5877   -0.072935
 C 0.3706 0.4512 0.6964   0.167947
 C 0.6751 0.0719 0.1487   0.112662
 C 0.3846 0.5384 0.1229   0.619154
 C 0.3763 0.5849 0.9876   0.053714
 C 0.6592 0.9 0.0377   -0.365598
 C 0.5198 0.8255 0.0607   0.571703
 C 0.8232 0.4785 0.4871   0.268999
 C 0.8578 0.5679 0.1578   -0.235326
 C 0.9783 0.6035 0.4123   -0.072935
 C 0.8706 0.5488 0.3036   0.167947
 C 0.1751 0.9281 0.8513   0.112661
 C 0.8846 0.4616 0.8771   0.619154
 C 0.8763 0.4151 0.0124   0.053715
 C 0.1592 0.1 0.9623   -0.365594
 C 0.0198 0.1745 0.9393   0.571702
 N 0.5528 0.1735 0.1372   -0.651895
 N 0.5059 0.6703 0.9753   -0.440924
 N 0.4475 0.441 0.4709   -0.420192
 N 0.2705 0.5323 0.6467   -0.479672
 N 0.0528 0.8265 0.8628   -0.651891
 N 0.0059 0.3297 0.0247   -0.440924
 N 0.9475 0.559 0.5291   -0.420192
 N 0.7705 0.4677 0.3533   -0.479672
 O 0.51356 0.5244 0.1671   -0.597899
 O 0.2691 0.5094 0.1744   -0.589675
 O 0.4227 0.9029 0.1506   -0.573499
 O 0.01356 0.4756 0.8329   -0.597898
 O 0.7691 0.4906 0.8256   -0.589675
 O 0.9227 0.0971 0.8494   -0.573498
