{'_ref': 'TBD', '_srcid': 'CAKYAQ_clean', 'submitters': [{'name': 'Dalar Nazarian Jeff Camp and David Sholl', 'email': 'dalar@gatech.edu jcamp6@gatech.edu'}], '_method': 'VASP DFT with PBE;DDEC'}
data_Ca(CO)4
_symmetry_space_group_name_H-M   'P 1'
_cell_length_a   7.67500017
_cell_length_b   10.36389995
_cell_length_c   10.36390000
_cell_angle_alpha   82.11969911
_cell_angle_beta   68.26740318
_cell_angle_gamma   68.26739817
_symmetry_Int_Tables_number   1
_chemical_formula_structural   Ca(CO)4
_chemical_formula_sum   'Ca4 C16 O16'
_cell_volume   711.350041914
_cell_formula_units_Z   4
loop_
 _symmetry_equiv_pos_site_id
 _symmetry_equiv_pos_as_xyz
  1  'x, y, z'
loop_
 _atom_site_label
 _atom_site_fract_x
 _atom_site_fract_y
 _atom_site_fract_z
 _atom_site_charge
 Ca 0.125 0.4407 0.0593   1.557804
 Ca 0.625 0.5593 0.9407   1.557355
 Ca 0.8157 0.0593 0.5593   1.55792
 Ca 0.4343 0.9407 0.4407   1.55792
 C 0.2261 0.6568 0.8272   0.210321
 C 0.0522 0.7194 0.2374   0.23075
 C 0.7101 0.3432 0.1728   0.212072
 C 0.009 0.2806 0.7626   0.229004
 C 0.9467 0.8272 0.3432   0.210773
 C 0.7104 0.2374 0.2806   0.233464
 C 0.1171 0.1728 0.6568   0.212186
 C 0.2284 0.7626 0.7194   0.230731
 C 0.5399 0.3272 0.1568   0.212072
 C 0.241 0.7374 0.2194   0.229004
 C 0.0239 0.6728 0.8432   0.210321
 C 0.1978 0.2626 0.7806   0.230751
 C 0.1329 0.8432 0.3272   0.212186
 C 0.0216 0.7806 0.7374   0.230731
 C 0.3033 0.1568 0.6728   0.210773
 C 0.5396 0.2194 0.2626   0.233464
 O 0.3404 0.5782 0.8878   -0.623896
 O 0.000999999999998 0.645 0.1842   -0.59512
 O 0.8064 0.4218 0.1122   -0.62668
 O 0.8302 0.355 0.8158   -0.594783
 O 0.7718 0.8878 0.4218   -0.624934
 O 0.8148 0.1842 0.355   -0.597911
 O 0.0814 0.1122 0.5782   -0.625211
 O 0.354 0.8158 0.645   -0.596269
 O 0.4436 0.3878 0.0782   -0.626679
 O 0.4198 0.6842 0.145   -0.594783
 O 0.9096 0.6122 0.9218   -0.623895
 O 0.249 0.3158 0.855   -0.59512
 O 0.1686 0.9218 0.3878   -0.62521
 O 0.896 0.855 0.6842   -0.596269
 O 0.4782 0.0782 0.6122   -0.624933
 O 0.4352 0.145 0.3158   -0.597911
