{'_ref': 'TBD', '_srcid': 'CAKYAQ_clean', 'submitters': [{'name': 'Dalar Nazarian Jeff Camp and David Sholl', 'email': 'dalar@gatech.edu jcamp6@gatech.edu'}], '_method': 'VASP DFT with PBE;DDEC'}
data_Gd3PH9C11NO19
_symmetry_space_group_name_H-M   'P 1'
_cell_length_a   10.24810000
_cell_length_b   15.06970002
_cell_length_c   22.39100000
_cell_angle_alpha   90.00000000
_cell_angle_beta   90.00000000
_cell_angle_gamma   108.02000007
_symmetry_Int_Tables_number   1
_chemical_formula_structural   Gd3PH9C11NO19
_chemical_formula_sum   'Gd12 P4 H36 C44 N4 O76'
_cell_volume   3288.353445
_cell_formula_units_Z   4
loop_
 _symmetry_equiv_pos_site_id
 _symmetry_equiv_pos_as_xyz
  1  'x, y, z'
loop_
 _atom_site_label
 _atom_site_fract_x
 _atom_site_fract_y
 _atom_site_fract_z
 _atom_site_charge
 Gd 0.03392 0.50113 0.14153   2.059293
 Gd 0.42225 0.25061 0.15503   2.150246
 Gd 0.24278 0.90998 0.01341   2.064669
 Gd 0.46608 0.99887 0.64153   2.059314
 Gd 0.07775 0.24939 0.65503   2.150248
 Gd 0.25722 0.59002 0.51341   2.06469
 Gd 0.96608 0.49887 0.85847   2.059465
 Gd 0.57775 0.74939 0.84497   2.150484
 Gd 0.75722 0.09002 0.98659   2.06493
 Gd 0.53392 0.00113 0.35847   2.059485
 Gd 0.92225 0.75061 0.34497   2.150486
 Gd 0.74278 0.40998 0.48659   2.06495
 P 0.4546 0.15792 0.00694   1.765513
 P 0.0454 0.34208 0.50694   1.765513
 P 0.5454 0.84208 0.99306   1.765519
 P 0.9546 0.65792 0.49306   1.765519
 H 0.3587 0.3129 0.0095   0.233089
 H 0.2681 0.1765 0.9558   0.185851
 H 0.3999 0.2125 0.9165   0.19257
 H 0.5828 0.3394 0.9735   0.146561
 H 0.533 0.3627 0.911   0.139266
 H 0.5372 0.4288 0.9655   0.132404
 H 0.1878 0.3164 0.9478   0.137086
 H 0.3018 0.4137 0.9509   0.142962
 H 0.296 0.3475 0.8963   0.148296
 H 0.1413 0.1871 0.5095   0.233089
 H 0.2319 0.3235 0.4558   0.185851
 H 0.1001 0.2875 0.4165   0.19257
 H 0.9172 0.1606 0.4735   0.146561
 H 0.967 0.1373 0.411   0.139266
 H 0.9628 0.0712 0.4655   0.132404
 H 0.3122 0.1836 0.4478   0.137086
 H 0.1982 0.0863 0.4509   0.142962
 H 0.204 0.1525 0.3963   0.148296
 H 0.6413 0.6871 0.9905   0.233087
 H 0.7319 0.8235 0.0442   0.185851
 H 0.6001 0.7875 0.0835   0.19257
 H 0.4172 0.6606 0.0265   0.146562
 H 0.467 0.6373 0.089   0.139264
 H 0.4628 0.5712 0.0345   0.132386
 H 0.8122 0.6836 0.0522   0.137087
 H 0.6982 0.5863 0.0491   0.142963
 H 0.704 0.6525 0.1037   0.148295
 H 0.8587 0.8129 0.4905   0.233087
 H 0.7681 0.6765 0.5442   0.185851
 H 0.8999 0.7125 0.5835   0.19257
 H 0.0828 0.8394 0.5265   0.146562
 H 0.033 0.8627 0.589   0.139264
 H 0.0372 0.9288 0.5345   0.132386
 H 0.6878 0.8164 0.5522   0.137087
 H 0.8018 0.9137 0.5491   0.142963
 H 0.796 0.8475 0.6037   0.148295
 C 0.2253 0.3744 0.1802   0.55816
 C 0.2478 0.386 0.1123   0.604048
 C 0.9818 0.6676 0.2201   0.563014
 C 0.9584 0.5844 0.2643   0.569392
 C 0.7517 0.3335 0.1626   0.513374
 C 0.7069 0.4215 0.1506   0.591541
 C 0.9573 0.4474 0.000300000000003   0.570272
 C 0.9933 0.0016 0.0347   0.572232
 C 0.3639 0.2139 0.9564   -0.556387
 C 0.52 0.3651 0.9533   -0.257465
 C 0.282 0.3499 0.9386   -0.281077
 C 0.2747 0.1256 0.6802   0.55816
 C 0.2522 0.114 0.6123   0.604049
 C 0.5182 0.8324 0.7201   0.563014
 C 0.5416 0.9156 0.7643   0.569392
 C 0.7483 0.1665 0.6626   0.513374
 C 0.7931 0.0785 0.6506   0.591541
 C 0.5427 0.0526 0.5003   0.570272
 C 0.5067 0.4984 0.5347   0.572233
 C 0.1361 0.2861 0.4564   -0.556387
 C 0.98 0.1349 0.4533   -0.257465
 C 0.218 0.1501 0.4386   -0.281077
 C 0.7747 0.6256 0.8198   0.558175
 C 0.7522 0.614 0.8877   0.604048
 C 0.0182 0.3324 0.7799   0.563019
 C 0.0416 0.4156 0.7357   0.56939
 C 0.2483 0.6665 0.8374   0.513374
 C 0.2931 0.5785 0.8494   0.591542
 C 0.0427 0.5526 0.9997   0.56751
 C 0.0067 0.9984 0.9653   0.57189
 C 0.6361 0.7861 0.0436   -0.556388
 C 0.48 0.6349 0.0467   -0.257461
 C 0.718 0.6501 0.0614   -0.281077
 C 0.7253 0.8744 0.3198   0.558175
 C 0.7478 0.886 0.3877   0.604048
 C 0.4818 0.1676 0.2799   0.563019
 C 0.4584 0.0844 0.2357   0.56939
 C 0.2517 0.8335 0.3374   0.513374
 C 0.2069 0.9215 0.3494   0.591542
 C 0.4573 0.9474 0.4997   0.56751
 C 0.4933 0.5016 0.4653   0.57189
 C 0.8639 0.7139 0.5436   -0.556388
 C 0.02 0.8651 0.5467   -0.257461
 C 0.782 0.8499 0.5614   -0.281077
 N 0.3706 0.3079 0.9695   0.22391
 N 0.1294 0.1921 0.4695   0.22391
 N 0.6294 0.6921 0.0305   0.223911
 N 0.8706 0.8079 0.5305   0.223911
 O 0.283 0.3249 0.207   -0.669138
 O 0.1489 0.4164 0.203   -0.638827
 O 0.1929 0.4386 0.0862   -0.699118
 O 0.3205 0.3415 0.0894   -0.693558
 O 0.9576 0.7387 0.2386   -0.598972
 O 0.0213 0.6555 0.1687   -0.631605
 O 0.9226 0.5979 0.3162   -0.681072
 O 0.9813 0.5133 0.2458   -0.538639
 O 0.5766 0.4055 0.1526   -0.628987
 O 0.7954 0.4959 0.1415   -0.612648
 O 0.6605 0.256 0.1664   -0.602459
 O 0.8798 0.3474 0.1677   -0.559797
 O 0.9239 0.4104 0.0492   -0.565295
 O 0.9294 0.4086 0.9495   -0.659058
 O 0.0721 0.9676 0.0646   -0.676004
 O 0.9102 0.0384 0.0548   -0.643374
 O 0.3577 0.0628 0.0153   -1.048907
 O 0.5897 0.1601 0.9804   -1.023348
 O 0.4719 0.2147 0.0635   -0.997003
 O 0.217 0.1751 0.707   -0.669138
 O 0.3511 0.0836 0.703   -0.638827
 O 0.3071 0.0614 0.5862   -0.699119
 O 0.1795 0.1585 0.5894   -0.693558
 O 0.5424 0.7613 0.7386   -0.598972
 O 0.4787 0.8445 0.6687   -0.631606
 O 0.5774 0.9021 0.8162   -0.681072
 O 0.5187 0.9867 0.7458   -0.538639
 O 0.9234 0.0945 0.6526   -0.628987
 O 0.7046 0.0041 0.6415   -0.612648
 O 0.8395 0.244 0.6664   -0.602459
 O 0.6202 0.1526 0.6677   -0.559798
 O 0.5761 0.0896 0.5492   -0.565296
 O 0.5706 0.0914 0.4495   -0.659058
 O 0.4279 0.5324 0.5646   -0.676004
 O 0.5898 0.4616 0.5548   -0.643374
 O 0.1423 0.4372 0.5153   -1.048907
 O 0.9103 0.3399 0.4804   -1.023349
 O 0.0281 0.2853 0.5635   -0.997003
 O 0.717 0.6751 0.793   -0.669223
 O 0.8511 0.5836 0.797   -0.638833
 O 0.8071 0.5614 0.9138   -0.699124
 O 0.6795 0.6585 0.9106   -0.693565
 O 0.0424 0.2613 0.7614   -0.599049
 O 0.9787 0.3445 0.8313   -0.631615
 O 0.0774 0.4021 0.6838   -0.681072
 O 0.0187 0.4867 0.7542   -0.538644
 O 0.4234 0.5945 0.8474   -0.628992
 O 0.2046 0.5041 0.8585   -0.612656
 O 0.3395 0.744 0.8336   -0.60248
 O 0.1202 0.6526 0.8323   -0.559812
 O 0.0761 0.5896 0.9508   -0.565007
 O 0.0706 0.5914 0.0505   -0.658795
 O 0.9279 0.0324 0.9354   -0.675977
 O 0.0898 0.9616 0.9452   -0.643334
 O 0.6423 0.9372 0.9847   -1.048917
 O 0.4103 0.8399 0.0196   -1.023339
 O 0.5281 0.7853 0.9365   -0.997015
 O 0.783 0.8249 0.293   -0.669224
 O 0.6489 0.9164 0.297   -0.638833
 O 0.6929 0.9386 0.4138   -0.699125
 O 0.8205 0.8415 0.4106   -0.693565
 O 0.4576 0.2387 0.2614   -0.599049
 O 0.5213 0.1555 0.3313   -0.631616
 O 0.4226 0.0979 0.1838   -0.681072
 O 0.4813 0.0133 0.2542   -0.538644
 O 0.0766 0.9055 0.3474   -0.628992
 O 0.2954 0.9959 0.3585   -0.612657
 O 0.1605 0.756 0.3336   -0.60248
 O 0.3798 0.8474 0.3323   -0.559812
 O 0.4239 0.9104 0.4508   -0.565007
 O 0.4294 0.9086 0.5505   -0.658796
 O 0.5721 0.4676 0.4354   -0.675978
 O 0.4102 0.5384 0.4452   -0.643334
 O 0.8577 0.5628 0.4847   -1.048917
 O 0.0897 0.6601 0.5196   -1.02334
 O 0.9719 0.7147 0.4365   -0.997015
