{'_ref': 'TBD', '_srcid': 'CAKYAQ_clean', 'submitters': [{'name': 'Dalar Nazarian Jeff Camp and David Sholl', 'email': 'dalar@gatech.edu jcamp6@gatech.edu'}], '_method': 'VASP DFT with PBE;DDEC'}
data_KU(CO2)7
_symmetry_space_group_name_H-M   'P 1'
_cell_length_a   12.06819991
_cell_length_b   12.06819994
_cell_length_c   14.61400000
_cell_angle_alpha   86.17389976
_cell_angle_beta   86.17389975
_cell_angle_gamma   64.28399733
_symmetry_Int_Tables_number   1
_chemical_formula_structural   KU(CO2)7
_chemical_formula_sum   'K4 U4 C28 O56'
_cell_volume   1911.63425737
_cell_formula_units_Z   4
loop_
 _symmetry_equiv_pos_site_id
 _symmetry_equiv_pos_as_xyz
  1  'x, y, z'
loop_
 _atom_site_label
 _atom_site_fract_x
 _atom_site_fract_y
 _atom_site_fract_z
 _atom_site_charge
 K 0.06128 0.06128 0.591   0.907353
 K 0.21228 0.21228 0.435   0.917925
 K 0.93872 0.93872 0.409   0.907353
 K 0.78772 0.78772 0.565   0.917925
 U 0.05418 0.5564 0.78904   2.544659
 U 0.4436 0.94582 0.21096   2.544659
 U 0.94582 0.4436 0.21096   2.544659
 U 0.5564 0.05418 0.78904   2.544659
 C 0.0523 0.5157 0.0139   0.527454
 C 0.0476 0.3856 0.6284   0.534857
 C 0.1407 0.4351 0.5906   0.511806
 C 0.7735 0.0545 0.6471   0.567377
 C 0.7774 0.133 0.7239   0.513925
 C 0.4843 0.9477 0.9861   0.527454
 C 0.6144 0.9524 0.3716   0.534857
 C 0.5649 0.8593 0.4094   0.511806
 C 0.9455 0.2265 0.3529   0.567377
 C 0.867 0.2226 0.2761   0.513925
 C 0.9477 0.4843 0.9861   0.527453
 C 0.9524 0.6144 0.3716   0.534857
 C 0.8593 0.5649 0.4094   0.511805
 C 0.2265 0.9455 0.3529   0.567377
 C 0.2226 0.867 0.2761   0.513925
 C 0.5157 0.0523 0.0139   0.527454
 C 0.3856 0.0476 0.6284   0.534857
 C 0.4351 0.1407 0.5906   0.511805
 C 0.0545 0.7735 0.6471   0.567377
 C 0.133 0.7774 0.7239   0.513925
 C 0.346 0.346 0.8138   0.512123
 C 0.2708 0.2708 0.8262   0.549449
 C 0.654 0.654 0.1862   0.512122
 C 0.7292 0.7292 0.1738   0.549449
 C 0.8119 0.8119 0.8513   0.554038
 C 0.7581 0.7581 0.7841   0.504197
 C 0.1881 0.1881 0.1487   0.554038
 C 0.2419 0.2419 0.2159   0.504197
 O 0.8532 0.1766 0.7173   -0.42239
 O 0.8248 0.0574 0.5717   -0.503986
 O 0.1754 0.427 0.5089   -0.442641
 O 0.0369 0.3033 0.5891   -0.521109
 O 0.286 0.461 0.8098   -0.475641
 O 0.1113 0.5435 0.9502   -0.494687
 O 0.0697 0.5101 0.0979   -0.490483
 O 0.8256 0.652 0.7588   -0.512554
 O 0.1566 0.3302 0.8305   -0.537642
 O 0.9878 0.4376 0.7001   -0.501747
 O 0.6988 0.1466 0.7896   -0.494503
 O 0.1742 0.483 0.6521   -0.55295
 O 0.9192 0.745 0.8753   -0.53479
 O 0.7139 0.9913 0.6699   -0.687497
 O 0.8234 0.1468 0.2827   -0.42239
 O 0.9426 0.1752 0.4283   -0.503986
 O 0.573 0.8246 0.4911   -0.442641
 O 0.6967 0.9631 0.4109   -0.521109
 O 0.539 0.714 0.1902   -0.475641
 O 0.4565 0.8887 0.0498   -0.494687
 O 0.4899 0.9303 0.9021   -0.490483
 O 0.348 0.1744 0.2412   -0.512554
 O 0.6698 0.8434 0.1695   -0.537642
 O 0.5624 0.0122 0.2999   -0.501747
 O 0.8534 0.3012 0.2104   -0.494503
 O 0.517 0.8258 0.3479   -0.55295
 O 0.255 0.0808 0.1247   -0.53479
 O 0.0087 0.2861 0.3301   -0.687497
 O 0.1468 0.8234 0.2827   -0.42239
 O 0.1752 0.9426 0.4283   -0.503986
 O 0.8246 0.573 0.4911   -0.442641
 O 0.9631 0.6967 0.4109   -0.521109
 O 0.714 0.539 0.1902   -0.475641
 O 0.8887 0.4565 0.0498   -0.494687
 O 0.9303 0.4899 0.9021   -0.490483
 O 0.1744 0.348 0.2412   -0.512554
 O 0.8434 0.6698 0.1695   -0.537642
 O 0.0122 0.5624 0.2999   -0.501747
 O 0.3012 0.8534 0.2104   -0.494503
 O 0.8258 0.517 0.3479   -0.55295
 O 0.0808 0.255 0.1247   -0.53479
 O 0.2861 0.0087 0.3301   -0.687497
 O 0.1766 0.8532 0.7173   -0.42239
 O 0.0574 0.8248 0.5717   -0.503986
 O 0.427 0.1754 0.5089   -0.442641
 O 0.3033 0.0369 0.5891   -0.521109
 O 0.461 0.286 0.8098   -0.475641
 O 0.5435 0.1113 0.9502   -0.494687
 O 0.5101 0.0697 0.0979   -0.490483
 O 0.652 0.8256 0.7588   -0.512554
 O 0.3302 0.1566 0.8305   -0.537642
 O 0.4376 0.9878 0.7001   -0.501747
 O 0.1466 0.6988 0.7896   -0.494503
 O 0.483 0.1742 0.6521   -0.55295
 O 0.745 0.9192 0.8753   -0.53479
 O 0.9913 0.7139 0.6699   -0.687497
