{'_ref': 'TBD', '_srcid': 'CAKYAQ_clean', 'submitters': [{'name': 'Dalar Nazarian Jeff Camp and David Sholl', 'email': 'dalar@gatech.edu jcamp6@gatech.edu'}], '_method': 'VASP DFT with PBE;DDEC'}
data_CdHgC4(SN)4
_symmetry_space_group_name_H-M   'P 1'
_cell_length_a   7.76700000
_cell_length_b   15.30430000
_cell_length_c   16.24400000
_cell_angle_alpha   90.00000000
_cell_angle_beta   90.00000000
_cell_angle_gamma   90.00000000
_symmetry_Int_Tables_number   1
_chemical_formula_structural   CdHgC4(SN)4
_chemical_formula_sum   'Cd4 Hg4 C16 S16 N16'
_cell_volume   1930.89988314
_cell_formula_units_Z   4
loop_
 _symmetry_equiv_pos_site_id
 _symmetry_equiv_pos_as_xyz
  1  'x, y, z'
loop_
 _atom_site_label
 _atom_site_fract_x
 _atom_site_fract_y
 _atom_site_fract_z
 _atom_site_charge
 Cd 0.49298 0.75983 0.37922   1.180875
 Cd 0.50702 0.25983 0.62078   1.180875
 Cd 0.00702 0.75983 0.87922   1.180875
 Cd 0.99298 0.25983 0.12078   1.180875
 Hg 0.95951 0.56483 0.57107   0.424449
 Hg 0.04049 0.06483 0.42893   0.424449
 Hg 0.54049 0.56483 0.07107   0.424449
 Hg 0.45951 0.06483 0.92893   0.424449
 C 0.33 0.5958 0.4979   0.375298
 C 0.851 0.5953 0.7552   0.397783
 C 0.701 0.4215 0.5069   0.390478
 C 0.8446 0.7531 0.503   0.37992
 C 0.67 0.0958 0.5021   0.375298
 C 0.149 0.0953 0.2448   0.397783
 C 0.299 0.9215 0.4931   0.390478
 C 0.1554 0.2531 0.497   0.37992
 C 0.17 0.5958 0.9979   0.375298
 C 0.649 0.5953 0.2552   0.397782
 C 0.799 0.4215 0.0069   0.390478
 C 0.6554 0.7531 0.003   0.37992
 C 0.83 0.0958 0.0021   0.375298
 C 0.351 0.0953 0.7448   0.397782
 C 0.201 0.9215 0.9931   0.390478
 C 0.3446 0.2531 0.997   0.37992
 S 0.2656 0.5119 0.5533   -0.248676
 S 0.7702 0.5056 0.4535   -0.228858
 S 0.9864 0.7296 0.574   -0.240411
 S 0.7952 0.5127 0.6958   -0.274231
 S 0.7344 0.0119 0.4467   -0.248676
 S 0.2298 0.0056 0.5465   -0.228857
 S 0.0136 0.2296 0.426   -0.24041
 S 0.2048 0.0127 0.3042   -0.274231
 S 0.2344 0.5119 0.0533   -0.248676
 S 0.7298 0.5056 0.9535   -0.228857
 S 0.5136 0.7296 0.074   -0.240411
 S 0.7048 0.5127 0.1958   -0.27423
 S 0.7656 0.0119 0.9467   -0.248676
 S 0.2702 0.0056 0.0465   -0.228857
 S 0.4864 0.2296 0.926   -0.24041
 S 0.2952 0.0127 0.8042   -0.27423
 N 0.377 0.6551 0.4622   -0.534419
 N 0.8802 0.6543 0.7956   -0.542453
 N 0.652 0.3665 0.5469   -0.540743
 N 0.742 0.7672 0.4538   -0.539014
 N 0.623 0.1551 0.5378   -0.534419
 N 0.1198 0.1543 0.2044   -0.542453
 N 0.348 0.8665 0.4531   -0.540743
 N 0.258 0.2672 0.5462   -0.539014
 N 0.123 0.6551 0.9622   -0.534419
 N 0.6198 0.6543 0.2956   -0.542453
 N 0.848 0.3665 0.0469   -0.540742
 N 0.758 0.7672 0.9538   -0.539014
 N 0.877 0.1551 0.0378   -0.534419
 N 0.3802 0.1543 0.7044   -0.542453
 N 0.152 0.8665 0.9531   -0.540742
 N 0.242 0.2672 0.0462   -0.539014
