{'_ref': 'TBD', '_srcid': 'CAKYAQ_clean', 'submitters': [{'name': 'Dalar Nazarian Jeff Camp and David Sholl', 'email': 'dalar@gatech.edu jcamp6@gatech.edu'}], '_method': 'VASP DFT with PBE;DDEC'}
data_SrCoH4(C2O3)3
_symmetry_space_group_name_H-M   'P 1'
_cell_length_a   6.87999972
_cell_length_b   14.36000000
_cell_length_c   15.80000000
_cell_angle_alpha   90.00000000
_cell_angle_beta   101.69000275
_cell_angle_gamma   90.00000000
_symmetry_Int_Tables_number   1
_chemical_formula_structural   SrCoH4(C2O3)3
_chemical_formula_sum   'Sr4 Co4 H16 C24 O36'
_cell_volume   1528.61161485
_cell_formula_units_Z   4
loop_
 _symmetry_equiv_pos_site_id
 _symmetry_equiv_pos_as_xyz
  1  'x, y, z'
loop_
 _atom_site_label
 _atom_site_fract_x
 _atom_site_fract_y
 _atom_site_fract_z
 _atom_site_charge
 Sr 0.76629 0.91528 0.54858   1.598062
 Sr 0.23371 0.41528 0.95142   1.598062
 Sr 0.23371 0.08472 0.45142   1.598062
 Sr 0.76629 0.58472 0.04858   1.598062
 Co 0.77507 0.7373 0.79696   1.113703
 Co 0.22493 0.2373 0.70304   1.113703
 Co 0.22493 0.2627 0.20304   1.113703
 Co 0.77507 0.7627 0.29696   1.113703
 H 0.1645 0.9368 0.8474   0.203722
 H 0.2923 0.8841 0.7925   0.184156
 H 0.3098 0.541 0.7666   0.176441
 H 0.5105 0.538 0.7352   0.194299
 H 0.8355 0.4368 0.6526   0.20372
 H 0.7077 0.3841 0.7075   0.184156
 H 0.6902 0.041 0.7334   0.176441
 H 0.4895 0.038 0.7648   0.194298
 H 0.8355 0.0632 0.1526   0.20372
 H 0.7077 0.1159 0.2075   0.184156
 H 0.6902 0.459 0.2334   0.176441
 H 0.4895 0.462 0.2648   0.194299
 H 0.1645 0.5632 0.3474   0.203718
 H 0.2923 0.6159 0.2925   0.184156
 H 0.3098 0.959 0.2666   0.176441
 H 0.5105 0.962 0.2352   0.194298
 C 0.0056 0.8914 0.7346   0.810725
 C 0.169 0.8811 0.8132   -0.599231
 C 0.1909 0.8015 0.8752   0.785116
 C 0.3746 0.6639 0.7151   0.774084
 C 0.4309 0.5754 0.7663   -0.589227
 C 0.5432 0.5835 0.8592   0.8447
 C 0.9944 0.3914 0.7654   0.810725
 C 0.831 0.3811 0.6868   -0.59923
 C 0.8091 0.3015 0.6248   0.785116
 C 0.6254 0.1639 0.7849   0.774084
 C 0.5691 0.0754 0.7337   -0.589226
 C 0.4568 0.0835 0.6408   0.8447
 C 0.9944 0.1086 0.2654   0.810725
 C 0.831 0.1189 0.1868   -0.59923
 C 0.8091 0.1985 0.1248   0.785116
 C 0.6254 0.3361 0.2849   0.774084
 C 0.5691 0.4246 0.2337   -0.589227
 C 0.4568 0.4165 0.1408   0.8447
 C 0.0056 0.6086 0.2346   0.810725
 C 0.169 0.6189 0.3132   -0.599229
 C 0.1909 0.6985 0.3752   0.785116
 C 0.3746 0.8361 0.2151   0.774084
 C 0.4309 0.9246 0.2663   -0.589226
 C 0.5432 0.9165 0.3592   0.8447
 O 0.8862 0.0844 0.5123   -0.425193
 O 0.8632 0.8359 0.717   -0.710153
 O 0.0222 0.9594 0.6872   -0.639714
 O 0.0517 0.7442 0.8746   -0.594696
 O 0.3507 0.7984 0.9279   -0.540363
 O 0.4953 0.7307 0.7216   -0.628485
 O 0.2089 0.6662 0.6659   -0.528781
 O 0.6852 0.6393 0.8791   -0.696579
 O 0.4911 0.5302 0.9127   -0.732585
 O 0.1138 0.5844 0.9877   -0.425193
 O 0.1368 0.3359 0.783   -0.710153
 O 0.9778 0.4594 0.8128   -0.639714
 O 0.9483 0.2442 0.6254   -0.594696
 O 0.6493 0.2984 0.5721   -0.540363
 O 0.5047 0.2307 0.7784   -0.628485
 O 0.7911 0.1662 0.8341   -0.528781
 O 0.3148 0.1393 0.6209   -0.696579
 O 0.5089 0.0302 0.5873   -0.732585
 O 0.1138 0.9156 0.4877   -0.425193
 O 0.1368 0.1641 0.283   -0.710153
 O 0.9778 0.0406 0.3128   -0.639714
 O 0.9483 0.2558 0.1254   -0.594696
 O 0.6493 0.2016 0.0721   -0.540363
 O 0.5047 0.2693 0.2784   -0.628485
 O 0.7911 0.3338 0.3341   -0.528781
 O 0.3148 0.3607 0.1209   -0.696579
 O 0.5089 0.4698 0.0873   -0.732585
 O 0.8862 0.4156 0.0123   -0.425193
 O 0.8632 0.6641 0.217   -0.710153
 O 0.0222 0.5406 0.1872   -0.639714
 O 0.0517 0.7558 0.3746   -0.594696
 O 0.3507 0.7016 0.4279   -0.540363
 O 0.4953 0.7693 0.2216   -0.628485
 O 0.2089 0.8338 0.1659   -0.528781
 O 0.6852 0.8607 0.3791   -0.696579
 O 0.4911 0.9698 0.4127   -0.732585
