{'_ref': 'TBD', '_srcid': 'CAKYAQ_clean', 'submitters': [{'name': 'Dalar Nazarian Jeff Camp and David Sholl', 'email': 'dalar@gatech.edu jcamp6@gatech.edu'}], '_method': 'VASP DFT with PBE;DDEC'}
data_SrNiH6(C2O3)3
_symmetry_space_group_name_H-M   'P 1'
_cell_length_a   6.77449984
_cell_length_b   14.22000000
_cell_length_c   15.62900000
_cell_angle_alpha   90.00000000
_cell_angle_beta   101.09999973
_cell_angle_gamma   90.00000000
_symmetry_Int_Tables_number   1
_chemical_formula_structural   SrNiH6(C2O3)3
_chemical_formula_sum   'Sr4 Ni4 H24 C24 O36'
_cell_volume   1477.4288553
_cell_formula_units_Z   4
loop_
 _symmetry_equiv_pos_site_id
 _symmetry_equiv_pos_as_xyz
  1  'x, y, z'
loop_
 _atom_site_label
 _atom_site_fract_x
 _atom_site_fract_y
 _atom_site_fract_z
 _atom_site_charge
 Sr 0.23083 0.58473 0.45173   1.648247
 Sr 0.76917 0.08473 0.04827   1.648247
 Sr 0.76917 0.41527 0.54827   1.648247
 Sr 0.23083 0.91527 0.95173   1.648247
 Ni 0.22202 0.73529 0.70571   0.809015
 Ni 0.77798 0.23529 0.79429   0.809015
 Ni 0.77798 0.26471 0.29429   0.809015
 Ni 0.22202 0.76471 0.20571   0.809015
 H 0.4911 0.537 0.768   0.200468
 H 0.6943 0.5416 0.735   0.174653
 H 0.7144 0.6 0.1958   0.181267
 H 0.8725 0.5639 0.1435   0.207307
 H 0.0814 0.3777 0.4456   0.472091
 H 0.2249 0.4014 0.5213   0.475472
 H 0.5089 0.037 0.732   0.200468
 H 0.3057 0.0416 0.765   0.174653
 H 0.2856 0.1 0.3042   0.181267
 H 0.1275 0.0639 0.3565   0.207307
 H 0.9186 0.8777 0.0544   0.472091
 H 0.7751 0.9014 0.9787   0.475472
 H 0.5089 0.463 0.232   0.200468
 H 0.3057 0.4584 0.265   0.174653
 H 0.2856 0.4 0.8042   0.181267
 H 0.1275 0.4361 0.8565   0.207307
 H 0.9186 0.6223 0.5544   0.472091
 H 0.7751 0.5986 0.4787   0.475472
 H 0.4911 0.963 0.268   0.200468
 H 0.6943 0.9584 0.235   0.174653
 H 0.7144 0.9 0.6958   0.181267
 H 0.8725 0.9361 0.6435   0.207307
 H 0.0814 0.1223 0.9456   0.472091
 H 0.2249 0.0986 0.0213   0.475472
 C 0.4569 0.5836 0.6437   0.851296
 C 0.5703 0.5754 0.7359   -0.581009
 C 0.6235 0.6655 0.7864   0.768742
 C 0.9965 0.6073 0.2637   0.805254
 C 0.8435 0.6145 0.1809   -0.582755
 C 0.8125 0.7012 0.1252   0.791536
 C 0.5431 0.0836 0.8563   0.851296
 C 0.4297 0.0754 0.7641   -0.581009
 C 0.3765 0.1655 0.7136   0.768742
 C 0.0035 0.1073 0.2363   0.805254
 C 0.1565 0.1145 0.3191   -0.582755
 C 0.1875 0.2012 0.3748   0.791536
 C 0.5431 0.4164 0.3563   0.851296
 C 0.4297 0.4246 0.2641   -0.581009
 C 0.3765 0.3345 0.2136   0.768741
 C 0.0035 0.3927 0.7363   0.805254
 C 0.1565 0.3855 0.8191   -0.582755
 C 0.1875 0.2988 0.8748   0.791535
 C 0.4569 0.9164 0.1437   0.851296
 C 0.5703 0.9246 0.2359   -0.581009
 C 0.6235 0.8345 0.2864   0.768741
 C 0.9965 0.8927 0.7637   0.805254
 C 0.8435 0.8855 0.6809   -0.582755
 C 0.8125 0.7988 0.6252   0.791535
 O 0.3099 0.64013 0.62355   -0.66823
 O 0.5063 0.53042 0.58789   -0.803395
 O 0.791 0.6656 0.8375   -0.590828
 O 0.5006 0.731 0.78045   -0.596582
 O 0.1354 0.66635 0.28471   -0.680193
 O 0.979 0.53826 0.31083   -0.681369
 O 0.9461 0.7606 0.12803   -0.610848
 O 0.6471 0.7065 0.0729   -0.625735
 O 0.1145 0.41616 0.48759   -0.964404
 O 0.6901 0.14013 0.87645   -0.66823
 O 0.4937 0.03042 0.91211   -0.803395
 O 0.209 0.1656 0.6625   -0.590828
 O 0.4994 0.231 0.71955   -0.596582
 O 0.8646 0.16635 0.21529   -0.680193
 O 0.021 0.03826 0.18917   -0.681369
 O 0.0539 0.2606 0.37197   -0.610848
 O 0.3529 0.2065 0.4271   -0.625735
 O 0.8855 0.91616 0.01241   -0.964404
 O 0.6901 0.35987 0.37645   -0.66823
 O 0.4937 0.46958 0.41211   -0.803395
 O 0.209 0.3344 0.1625   -0.590828
 O 0.4994 0.269 0.21955   -0.596582
 O 0.8646 0.33365 0.71529   -0.680193
 O 0.021 0.46174 0.68917   -0.681369
 O 0.0539 0.2394 0.87197   -0.610848
 O 0.3529 0.2935 0.9271   -0.625735
 O 0.8855 0.58384 0.51241   -0.964404
 O 0.3099 0.85987 0.12355   -0.66823
 O 0.5063 0.96958 0.08789   -0.803395
 O 0.791 0.8344 0.3375   -0.590828
 O 0.5006 0.769 0.28045   -0.596582
 O 0.1354 0.83365 0.78471   -0.680193
 O 0.979 0.96174 0.81083   -0.681369
 O 0.9461 0.7394 0.62803   -0.610848
 O 0.6471 0.7935 0.5729   -0.625735
 O 0.1145 0.08384 0.98759   -0.964404
