{'_ref': 'TBD', '_srcid': 'CAKYAQ_clean', 'submitters': [{'name': 'Dalar Nazarian Jeff Camp and David Sholl', 'email': 'dalar@gatech.edu jcamp6@gatech.edu'}], '_method': 'VASP DFT with PBE;DDEC'}
data_ZnSiH8C8(N2F3)2
_symmetry_space_group_name_H-M   'P 1'
_cell_length_a   7.14090000
_cell_length_b   7.14090000
_cell_length_c   7.60680000
_cell_angle_alpha   90.00000000
_cell_angle_beta   90.00000000
_cell_angle_gamma   90.00000000
_symmetry_Int_Tables_number   1
_chemical_formula_structural   ZnSiH8C8(N2F3)2
_chemical_formula_sum   'Zn1 Si1 H8 C8 N4 F6'
_cell_volume   387.889390035
_cell_formula_units_Z   1
loop_
 _symmetry_equiv_pos_site_id
 _symmetry_equiv_pos_as_xyz
  1  'x, y, z'
loop_
 _atom_site_label
 _atom_site_fract_x
 _atom_site_fract_y
 _atom_site_fract_z
 _atom_site_charge
 Zn 0.5 0.5 0.5   0.751029
 Si 0.5 0.5 0.0   1.723049
 H 0.5 0.8386 0.7515   0.098068
 H 0.5 0.1614 0.7515   0.098035
 H 0.1614 0.5 0.7515   0.098064
 H 0.8386 0.5 0.7515   0.098033
 H 0.5 0.8386 0.2485   0.098059
 H 0.5 0.1614 0.2485   0.098028
 H 0.8386 0.5 0.2485   0.098056
 H 0.1614 0.5 0.2485   0.098026
 C 0.5 0.9014 0.6445   0.103947
 C 0.5 0.0986 0.6445   0.10409
 C 0.0986 0.5 0.6445   0.103989
 C 0.9014 0.5 0.6445   0.104115
 C 0.5 0.9014 0.3555   0.103962
 C 0.5 0.0986 0.3555   0.104101
 C 0.9014 0.5 0.3555   0.104001
 C 0.0986 0.5 0.3555   0.104124
 N 0.5 0.8042 0.5   -0.245457
 N 0.5 0.1958 0.5   -0.245495
 N 0.1958 0.5 0.5   -0.245486
 N 0.8042 0.5 0.5   -0.245486
 F 0.5 0.5 0.7704   -0.479776
 F 0.5 0.5 0.2296   -0.479775
 F 0.6641 0.6641 0.0   -0.537326
 F 0.3359 0.3359 0.0   -0.537325
 F 0.3359 0.6641 0.0   -0.537325
 F 0.6641 0.3359 0.0   -0.537324
