{'_ref': 'TBD', '_srcid': 'CAKYAQ_clean', 'submitters': [{'name': 'Dalar Nazarian Jeff Camp and David Sholl', 'email': 'dalar@gatech.edu jcamp6@gatech.edu'}], '_method': 'VASP DFT with PBE;DDEC'}
data_ZnH13C22(NO2)2
_symmetry_space_group_name_H-M   'P 1'
_cell_length_a   11.62680000
_cell_length_b   15.65400000
_cell_length_c   15.94670000
_cell_angle_alpha   90.00000000
_cell_angle_beta   90.00000000
_cell_angle_gamma   90.00000000
_symmetry_Int_Tables_number   1
_chemical_formula_structural   ZnH13C22(NO2)2
_chemical_formula_sum   'Zn4 H52 C88 N8 O16'
_cell_volume   2902.39391928
_cell_formula_units_Z   4
loop_
 _symmetry_equiv_pos_site_id
 _symmetry_equiv_pos_as_xyz
  1  'x, y, z'
loop_
 _atom_site_label
 _atom_site_fract_x
 _atom_site_fract_y
 _atom_site_fract_z
 _atom_site_charge
 Zn 0.14197 0.0 0.57976   0.898127
 Zn 0.14297 0.0 0.76191   0.905503
 Zn 0.64197 0.0 0.42024   0.898127
 Zn 0.64297 0.0 0.23809   0.905503
 H 0.3071 0.749 0.5688   0.106532
 H 0.5831 0.7218 0.7802   0.113288
 H 0.4548 0.8336 0.7772   0.082861
 H 0.8564 0.6395 0.793   0.117857
 H 0.9834 0.7509 0.7817   0.103018
 H 0.4255 0.6313 0.5693   0.104021
 H 0.8326 0.8211 0.5642   0.082598
 H 0.7094 0.7049 0.5728   0.127307
 H 0.3071 0.251 0.5688   0.106532
 H 0.5831 0.2782 0.7802   0.113288
 H 0.4548 0.1664 0.7772   0.082861
 H 0.8564 0.3605 0.793   0.117859
 H 0.9834 0.2491 0.7817   0.103018
 H 0.4255 0.3687 0.5693   0.104022
 H 0.8326 0.1789 0.5642   0.082598
 H 0.7094 0.2951 0.5728   0.127307
 H 0.32 0.0 0.3002   0.154402
 H 0.9743 0.0 0.4356   0.093454
 H 0.3099 0.0 0.4418   0.090823
 H 0.9779 0.0 0.2897   0.118729
 H 0.9278 0.0 0.0281   0.142054
 H 0.9621 0.0 0.8878   0.080543
 H 0.2881 0.0 0.9174   0.062066
 H 0.2727 0.0 0.0612   0.138843
 H 0.8418 0.5 0.6731   0.099768
 H 0.4491 0.5 0.6987   0.122579
 H 0.8071 0.251 0.4312   0.106533
 H 0.0831 0.2782 0.2198   0.113289
 H 0.9548 0.1664 0.2228   0.082861
 H 0.3564 0.3605 0.207   0.117858
 H 0.4834 0.2491 0.2183   0.103018
 H 0.9255 0.3687 0.4307   0.104022
 H 0.3326 0.1789 0.4358   0.082598
 H 0.2094 0.2951 0.4272   0.127309
 H 0.8071 0.749 0.4312   0.106533
 H 0.0831 0.7218 0.2198   0.113289
 H 0.9548 0.8336 0.2228   0.082861
 H 0.3564 0.6395 0.207   0.11786
 H 0.4834 0.7509 0.2183   0.103018
 H 0.9255 0.6313 0.4307   0.104022
 H 0.3326 0.8211 0.4358   0.082598
 H 0.2094 0.7049 0.4272   0.127309
 H 0.82 0.0 0.6998   0.154402
 H 0.4743 0.0 0.5644   0.093453
 H 0.8099 0.0 0.5582   0.090821
 H 0.4779 0.0 0.7103   0.118728
 H 0.4278 0.0 0.9719   0.142053
 H 0.4621 0.0 0.1122   0.080542
 H 0.7881 0.0 0.0826   0.062066
 H 0.7727 0.0 0.9388   0.138842
 H 0.3418 0.5 0.3269   0.099769
 H 0.9491 0.5 0.3013   0.122579
 C 0.9164 0.805 0.6729   -0.146113
 C 0.9914 0.8786 0.6759   0.65116
 C 0.3732 0.8018 0.6744   -0.112028
 C 0.2929 0.8812 0.6673   0.661478
 C 0.5153 0.6559 0.6771   0.043311
 C 0.7756 0.6621 0.6823   0.079407
 C 0.7084 0.5795 0.6803   0.006242
 C 0.5899 0.5779 0.6851   0.016191
 C 0.3613 0.7418 0.611   -0.049105
 C 0.5265 0.7242 0.7391   -0.147866
 C 0.4511 0.7923 0.7354   -0.041674
 C 0.8539 0.6759 0.7469   -0.161276
 C 0.9265 0.7436 0.7413   -0.045546
 C 0.432 0.6711 0.6123   -0.135875
 C 0.837 0.7855 0.6107   -0.011522
 C 0.7637 0.7153 0.6143   -0.159259
 C 0.9164 0.195 0.6729   -0.146113
 C 0.9914 0.1214 0.6759   0.65116
 C 0.3732 0.1982 0.6744   -0.112028
 C 0.2929 0.1188 0.6673   0.661478
 C 0.5153 0.3441 0.6771   0.043311
 C 0.7756 0.3379 0.6823   0.079407
 C 0.7084 0.4205 0.6803   0.006242
 C 0.5899 0.4221 0.6851   0.016191
 C 0.3613 0.2582 0.611   -0.049105
 C 0.5265 0.2758 0.7391   -0.147866
 C 0.4511 0.2077 0.7354   -0.041674
 C 0.8539 0.3241 0.7469   -0.161277
 C 0.9265 0.2564 0.7413   -0.045546
 C 0.432 0.3289 0.6123   -0.135875
 C 0.837 0.2145 0.6107   -0.011522
 C 0.7637 0.2847 0.6143   -0.159259
 C 0.0987 0.0 0.0595   0.254523
 C 0.2486 0.0 0.3265   -0.187291
 C 0.0447 0.0 0.4078   0.18686
 C 0.2418 0.0 0.4112   0.179093
 C 0.1484 0.0 0.2789   0.223514
 C 0.0465 0.0 0.3198   -0.230916
 C 0.0025 0.0 0.0073   -0.23606
 C 0.0256 0.0 0.9232   0.19188
 C 0.2145 0.0 0.9403   0.183607
 C 0.2076 0.0 0.0273   -0.243704
 C 0.7621 0.5 0.6774   -0.150443
 C 0.5284 0.5 0.691   -0.169809
 C 0.4164 0.195 0.3271   -0.146113
 C 0.4914 0.1214 0.3241   0.65116
 C 0.8732 0.1982 0.3256   -0.112028
 C 0.7929 0.1188 0.3327   0.661478
 C 0.0153 0.3441 0.3229   0.043311
 C 0.2756 0.3379 0.3177   0.079407
 C 0.2084 0.4205 0.3197   0.006242
 C 0.0899 0.4221 0.3149   0.016191
 C 0.8613 0.2582 0.389   -0.049106
 C 0.0265 0.2758 0.2609   -0.147867
 C 0.9511 0.2077 0.2646   -0.041674
 C 0.3539 0.3241 0.2531   -0.161276
 C 0.4265 0.2564 0.2587   -0.045546
 C 0.932 0.3289 0.3877   -0.135875
 C 0.337 0.2145 0.3893   -0.011522
 C 0.2637 0.2847 0.3857   -0.159259
 C 0.4164 0.805 0.3271   -0.146113
 C 0.4914 0.8786 0.3241   0.65116
 C 0.8732 0.8018 0.3256   -0.112028
 C 0.7929 0.8812 0.3327   0.661477
 C 0.0153 0.6559 0.3229   0.043311
 C 0.2756 0.6621 0.3177   0.079407
 C 0.2084 0.5795 0.3197   0.006242
 C 0.0899 0.5779 0.3149   0.016191
 C 0.8613 0.7418 0.389   -0.049106
 C 0.0265 0.7242 0.2609   -0.147867
 C 0.9511 0.7923 0.2646   -0.041674
 C 0.3539 0.6759 0.2531   -0.161277
 C 0.4265 0.7436 0.2587   -0.045546
 C 0.932 0.6711 0.3877   -0.135875
 C 0.337 0.7855 0.3893   -0.011522
 C 0.2637 0.7153 0.3857   -0.159259
 C 0.5987 0.0 0.9405   0.254523
 C 0.7486 0.0 0.6735   -0.187292
 C 0.5447 0.0 0.5922   0.186859
 C 0.7418 0.0 0.5888   0.179094
 C 0.6484 0.0 0.7211   0.223513
 C 0.5465 0.0 0.6802   -0.230916
 C 0.5025 0.0 0.9927   -0.236059
 C 0.5256 0.0 0.0768   0.19188
 C 0.7145 0.0 0.0597   0.183607
 C 0.7076 0.0 0.9727   -0.243702
 C 0.2621 0.5 0.3226   -0.150443
 C 0.0284 0.5 0.309   -0.169809
 N 0.1426 0.0 0.453   -0.292884
 N 0.1662 0.0 0.1891   -0.090987
 N 0.1273 0.0 0.886   -0.268515
 N 0.0783 0.0 0.1488   -0.147415
 N 0.6426 0.0 0.547   -0.292885
 N 0.6662 0.0 0.8109   -0.090987
 N 0.6273 0.0 0.114   -0.268515
 N 0.5783 0.0 0.8512   -0.147415
 O 0.2492 0.9006 0.6037   -0.530272
 O 0.0053 0.917 0.6016   -0.612276
 O 0.2417 0.8978 0.7376   -0.635329
 O 0.0017 0.9216 0.741   -0.561305
 O 0.2492 0.0994 0.6037   -0.530272
 O 0.0053 0.083 0.6016   -0.612276
 O 0.2417 0.1022 0.7376   -0.635329
 O 0.0017 0.0784 0.741   -0.561305
 O 0.7492 0.0994 0.3963   -0.530272
 O 0.5053 0.083 0.3984   -0.612276
 O 0.7417 0.1022 0.2624   -0.635329
 O 0.5017 0.0784 0.259   -0.561305
 O 0.7492 0.9006 0.3963   -0.530272
 O 0.5053 0.917 0.3984   -0.612276
 O 0.7417 0.8978 0.2624   -0.635329
 O 0.5017 0.9216 0.259   -0.561305
