{'_ref': 'TBD', '_srcid': 'CAKYAQ_clean', 'submitters': [{'name': 'Dalar Nazarian Jeff Camp and David Sholl', 'email': 'dalar@gatech.edu jcamp6@gatech.edu'}], '_method': 'VASP DFT with PBE;DDEC'}
data_ZnH12C22Br(NO2)2
_symmetry_space_group_name_H-M   'P 1'
_cell_length_a   11.71099996
_cell_length_b   15.61810000
_cell_length_c   16.03620000
_cell_angle_alpha   90.00000000
_cell_angle_beta   90.20500005
_cell_angle_gamma   90.00000000
_symmetry_Int_Tables_number   1
_chemical_formula_structural   ZnH12C22Br(NO2)2
_chemical_formula_sum   'Zn2 H24 C44 Br2 N4 O8'
_cell_volume   2933.05943068
_cell_formula_units_Z   2
loop_
 _symmetry_equiv_pos_site_id
 _symmetry_equiv_pos_as_xyz
  1  'x, y, z'
loop_
 _atom_site_label
 _atom_site_fract_x
 _atom_site_fract_y
 _atom_site_fract_z
 _atom_site_charge
 Zn 0.49996 0.5 0.59185   0.94765
 Zn 0.50004 0.5 0.40815   0.94765
 H 0.1409 0.8278 0.376   0.109571
 H 0.2484 0.7036 0.6242   0.094951
 H 0.2478 0.7037 0.3744   0.10032
 H 0.1386 0.8274 0.625   0.114419
 H 0.8591 0.8278 0.624   0.109572
 H 0.7516 0.7036 0.3758   0.094951
 H 0.7522 0.7037 0.6256   0.10032
 H 0.8614 0.8274 0.375   0.11442
 H 0.8591 0.1722 0.624   0.109572
 H 0.7516 0.2964 0.3758   0.094951
 H 0.7522 0.2963 0.6256   0.10032
 H 0.8614 0.1726 0.375   0.11442
 H 0.1409 0.1722 0.376   0.109573
 H 0.2484 0.2964 0.6242   0.094951
 H 0.2478 0.2963 0.3744   0.10032
 H 0.1386 0.1726 0.625   0.114421
 H 0.6652 0.5 0.7232   0.091099
 H 0.3375 0.5 0.7443   0.100684
 H 0.3531 0.5 0.8884   0.135375
 H 0.6908 0.5 0.8606   0.146235
 H 0.3348 0.5 0.2768   0.091099
 H 0.6625 0.5 0.2557   0.100684
 H 0.6469 0.5 0.1116   0.135375
 H 0.3092 0.5 0.1394   0.146232
 C 0.2649 0.693 0.5007   -0.140772
 C 0.0614 0.9213 0.5006   0.002223
 C 0.1617 0.8024 0.4263   -0.149512
 C 0.2279 0.7289 0.5739   -0.016974
 C 0.228 0.7289 0.4248   -0.022707
 C 0.1258 0.8391 0.5001   0.071084
 C 0.3459 0.6183 0.5007   0.687504
 C 0.1602 0.8029 0.5746   -0.152524
 C 0.7351 0.693 0.4993   -0.140772
 C 0.9386 0.9213 0.4994   0.002223
 C 0.8383 0.8024 0.5737   -0.149513
 C 0.7721 0.7289 0.4261   -0.016974
 C 0.772 0.7289 0.5752   -0.022707
 C 0.8742 0.8391 0.4999   0.071084
 C 0.6541 0.6183 0.4993   0.687505
 C 0.8398 0.8029 0.4254   -0.152524
 C 0.7351 0.307 0.4993   -0.140772
 C 0.9386 0.0787 0.4994   0.002223
 C 0.8383 0.1976 0.5737   -0.149513
 C 0.7721 0.2711 0.4261   -0.016974
 C 0.772 0.2711 0.5752   -0.022707
 C 0.8742 0.1609 0.4999   0.071084
 C 0.6541 0.3817 0.4993   0.687505
 C 0.8398 0.1971 0.4254   -0.152524
 C 0.2649 0.307 0.5007   -0.140772
 C 0.0614 0.0787 0.5006   0.002223
 C 0.1617 0.1976 0.4263   -0.149513
 C 0.2279 0.2711 0.5739   -0.016973
 C 0.228 0.2711 0.4248   -0.022707
 C 0.1258 0.1609 0.5001   0.071085
 C 0.3459 0.3817 0.5007   0.687505
 C 0.1602 0.1971 0.5746   -0.152524
 C 0.6002 0.5 0.7563   0.179547
 C 0.4101 0.5 0.768   0.174352
 C 0.4188 0.5 0.856   -0.233251
 C 0.5247 0.5 0.8937   0.234656
 C 0.6168 0.5 0.8394   -0.230629
 C 0.3998 0.5 0.2437   0.179548
 C 0.5899 0.5 0.232   0.174351
 C 0.5812 0.5 0.144   -0.233248
 C 0.4753 0.5 0.1063   0.234647
 C 0.3832 0.5 0.1606   -0.230629
 C 0.1034 0.0 0.5033   0.057937
 C 0.8966 0.0 0.4967   0.057938
 Br 0.27925 0.0 0.50022   -0.171912
 Br 0.72075 0.0 0.49978   -0.171913
 N 0.5002 0.5 0.7169   -0.27205
 N 0.5467 0.5 0.9821   -0.125059
 N 0.4998 0.5 0.2831   -0.27205
 N 0.4533 0.5 0.0179   -0.124981
 O 0.3823 0.5913 0.43   -0.616173
 O 0.3805 0.5903 0.5701   -0.598747
 O 0.6177 0.5913 0.57   -0.616173
 O 0.6195 0.5903 0.4299   -0.598747
 O 0.6177 0.4087 0.57   -0.616173
 O 0.6195 0.4097 0.4299   -0.598747
 O 0.3823 0.4087 0.43   -0.616173
 O 0.3805 0.4097 0.5701   -0.598747
