{'_ref': 'TBD', '_srcid': 'CAKYAQ_clean', 'submitters': [{'name': 'Dalar Nazarian Jeff Camp and David Sholl', 'email': 'dalar@gatech.edu jcamp6@gatech.edu'}], '_method': 'VASP DFT with PBE;DDEC'}
data_ZnH13C23N3O4
_symmetry_space_group_name_H-M   'P 1'
_cell_length_a   11.58570000
_cell_length_b   15.67400000
_cell_length_c   18.11800000
_cell_angle_alpha   90.00000000
_cell_angle_beta   90.00000000
_cell_angle_gamma   90.00000000
_symmetry_Int_Tables_number   1
_chemical_formula_structural   ZnH13C23N3O4
_chemical_formula_sum   'Zn4 H52 C92 N12 O16'
_cell_volume   3290.12483529
_cell_formula_units_Z   4
loop_
 _symmetry_equiv_pos_site_id
 _symmetry_equiv_pos_as_xyz
  1  'x, y, z'
loop_
 _atom_site_label
 _atom_site_fract_x
 _atom_site_fract_y
 _atom_site_fract_z
 _atom_site_charge
 Zn 0.25074 0.50719 0.77415   0.879398
 Zn 0.25777 0.50573 0.93552   0.884581
 Zn 0.75074 0.49281 0.22585   0.879398
 Zn 0.75777 0.49427 0.06448   0.884581
 H 0.0898 0.4773 0.1824   0.115771
 H 0.4278 0.5097 0.1843   0.097426
 H 0.9527 0.0102 0.858   0.114086
 H 0.5619 0.004 0.8238   0.10506
 H 0.4175 0.7615 0.939   0.103055
 H 0.0741 0.2613 0.9505   0.07759
 H 0.54 0.8755 0.9324   0.086973
 H 0.9634 0.1407 0.9515   0.124623
 H 0.5756 0.6696 0.7599   0.077182
 H 0.9525 0.3331 0.7591   0.069493
 H 0.7041 0.7795 0.7623   0.101089
 H 0.8374 0.2144 0.7531   0.120225
 H 0.0926 0.4914 0.0584   0.0983
 H 0.425 0.5221 0.0608   0.092791
 H 0.0862 0.753 0.7647   0.098838
 H 0.4302 0.2662 0.7503   0.093601
 H 0.9212 0.6687 0.9437   0.096614
 H 0.5684 0.3314 0.9469   0.098671
 H 0.9752 0.8767 0.7619   0.119491
 H 0.5548 0.1538 0.7374   0.117254
 H 0.8109 0.7911 0.9414   0.111341
 H 0.6855 0.2115 0.9356   0.107001
 H 0.0865 0.4793 0.5222   0.092303
 H 0.4224 0.5113 0.5199   0.09009
 H 0.0886 0.4876 0.6474   0.081047
 H 0.4222 0.5192 0.6452   0.088044
 H 0.5898 0.5227 0.8176   0.115771
 H 0.9278 0.4903 0.8157   0.097426
 H 0.4527 0.9898 0.142   0.114087
 H 0.0619 0.996 0.1762   0.10506
 H 0.9175 0.2385 0.061   0.103055
 H 0.5741 0.7387 0.0495   0.07759
 H 0.04 0.1245 0.0676   0.086973
 H 0.4634 0.8593 0.0485   0.124624
 H 0.0756 0.3304 0.2401   0.077182
 H 0.4525 0.6669 0.2409   0.069493
 H 0.2041 0.2205 0.2377   0.101089
 H 0.3374 0.7856 0.2469   0.120225
 H 0.5926 0.5086 0.9416   0.0983
 H 0.925 0.4779 0.9392   0.092791
 H 0.5862 0.247 0.2353   0.098838
 H 0.9302 0.7338 0.2497   0.093601
 H 0.4212 0.3313 0.0563   0.096614
 H 0.0684 0.6686 0.0531   0.098671
 H 0.4752 0.1233 0.2381   0.119492
 H 0.0548 0.8462 0.2626   0.117255
 H 0.3109 0.2089 0.0586   0.111341
 H 0.1855 0.7885 0.0644   0.107001
 H 0.5865 0.5207 0.4778   0.092302
 H 0.9224 0.4887 0.4801   0.09009
 H 0.5886 0.5124 0.3526   0.081047
 H 0.9222 0.4808 0.3548   0.088044
 C 0.4782 0.70238 0.84665   -0.086654
 C 0.03059 0.31465 0.85554   -0.148651
 C 0.4006 0.6268 0.8483   0.566075
 C 0.09973 0.39363 0.85096   0.620061
 C 0.6268 0.85146 0.83959   0.067021
 C 0.8868 0.16453 0.85198   0.099216
 C 0.89 0.8493 0.85762   0.068296
 C 0.6235 0.16642 0.83964   0.065581
 C 0.1605 0.48764 0.15973   -0.138086
 C 0.3566 0.50625 0.16084   -0.144257
 C 0.8156 0.9259 0.855   0.002915
 C 0.6892 0.0856 0.8369   0.030059
 C 0.1059 0.6288 0.8596   0.734815
 C 0.4065 0.3832 0.8555   0.716085
 C 0.0271 0.7038 0.86007   -0.143686
 C 0.4869 0.3119 0.84747   -0.170222
 C 0.8729 0.0082 0.8528   -0.176646
 C 0.6409 0.0062 0.8327   -0.141101
 C 0.6939 0.9327 0.8399   0.025859
 C 0.8082 0.0899 0.8423   -0.017908
 C 0.4705 0.7656 0.9006   -0.055009
 C 0.02617 0.25244 0.91003   0.016446
 C 0.545 0.8351 0.895   -0.141518
 C 0.9596 0.1787 0.9121   -0.17705
 C 0.5663 0.7118 0.7955   -0.044717
 C 0.9558 0.29483 0.7983   -0.013653
 C 0.6415 0.7807 0.7945   -0.142567
 C 0.8849 0.22306 0.7938   -0.18048
 C 0.1625 0.49489 0.08348   0.158423
 C 0.3551 0.5128 0.0848   0.150946
 C 0.259 0.49491 0.2051   0.003358
 C 0.0344 0.7633 0.8029   -0.049576
 C 0.4836 0.25565 0.78754   -0.0179
 C 0.9369 0.7117 0.9098   -0.036614
 C 0.5635 0.2957 0.906   -0.035076
 C 0.25873 0.48766 0.28633   0.352907
 C 0.9679 0.8374 0.8001   -0.15856
 C 0.5539 0.1863 0.7804   -0.169901
 C 0.8708 0.785 0.9076   -0.136142
 C 0.6316 0.223 0.89884   -0.137476
 C 0.25486 0.49058 0.42146   0.329313
 C 0.25391 0.4952 0.50273   0.01055
 C 0.1569 0.48788 0.54571   -0.142855
 C 0.3522 0.50647 0.54447   -0.146185
 C 0.1577 0.49252 0.62163   0.161911
 C 0.3528 0.51102 0.6204   0.169958
 C 0.9782 0.29762 0.15335   -0.086654
 C 0.53059 0.68535 0.14446   -0.148651
 C 0.9006 0.3732 0.1517   0.566075
 C 0.59973 0.60637 0.14904   0.620061
 C 0.1268 0.14854 0.16041   0.067021
 C 0.3868 0.83547 0.14802   0.099216
 C 0.39 0.1507 0.14238   0.068296
 C 0.1235 0.83358 0.16036   0.065581
 C 0.6605 0.51236 0.84027   -0.138086
 C 0.8566 0.49375 0.83916   -0.144257
 C 0.3156 0.0741 0.145   0.002915
 C 0.1892 0.9144 0.1631   0.030059
 C 0.6059 0.3712 0.1404   0.734815
 C 0.9065 0.6168 0.1445   0.716085
 C 0.5271 0.2962 0.13993   -0.143686
 C 0.9869 0.6881 0.15253   -0.170222
 C 0.3729 0.9918 0.1472   -0.176646
 C 0.1409 0.9938 0.1673   -0.141101
 C 0.1939 0.0673 0.1601   0.025859
 C 0.3082 0.9101 0.1577   -0.017908
 C 0.9705 0.2344 0.0994   -0.055009
 C 0.52617 0.74756 0.08997   0.016446
 C 0.045 0.1649 0.105   -0.141518
 C 0.4596 0.8213 0.0879   -0.177051
 C 0.0663 0.2882 0.2045   -0.044717
 C 0.4558 0.70517 0.2017   -0.013653
 C 0.1415 0.2193 0.2055   -0.142567
 C 0.3849 0.77694 0.2062   -0.18048
 C 0.6625 0.50511 0.91652   0.158423
 C 0.8551 0.4872 0.9152   0.150946
 C 0.759 0.50509 0.7949   0.003358
 C 0.5344 0.2367 0.1971   -0.049576
 C 0.9836 0.74435 0.21246   -0.0179
 C 0.4369 0.2883 0.0902   -0.036614
 C 0.0635 0.7043 0.094   -0.035076
 C 0.75873 0.51234 0.71367   0.352907
 C 0.4679 0.1626 0.1999   -0.15856
 C 0.0539 0.8137 0.2196   -0.169901
 C 0.3708 0.215 0.0924   -0.136142
 C 0.1316 0.777 0.10116   -0.137476
 C 0.75486 0.50942 0.57854   0.329314
 C 0.75391 0.5048 0.49727   0.010549
 C 0.6569 0.51212 0.45429   -0.142854
 C 0.8522 0.49353 0.45553   -0.146184
 C 0.6577 0.50748 0.37837   0.161911
 C 0.8528 0.48898 0.3796   0.169958
 N 0.25926 0.50664 0.0431   -0.255582
 N 0.3598 0.49464 0.31812   -0.136205
 N 0.1593 0.4756 0.32108   -0.162272
 N 0.3563 0.49806 0.38899   -0.17002
 N 0.1502 0.47881 0.3923   -0.127362
 N 0.25537 0.50392 0.65879   -0.266274
 N 0.75926 0.49336 0.9569   -0.255582
 N 0.8598 0.50536 0.68188   -0.136205
 N 0.6593 0.5244 0.67892   -0.162272
 N 0.8563 0.50194 0.61101   -0.17002
 N 0.6502 0.52119 0.6077   -0.127362
 N 0.75537 0.49608 0.34121   -0.266274
 O 0.3955 0.5855 0.9184   -0.55563
 O 0.139 0.4218 0.9235   -0.610859
 O 0.146 0.60345 0.91613   -0.603897
 O 0.3821 0.41358 0.91116   -0.538627
 O 0.3947 0.5866 0.7835   -0.532582
 O 0.1149 0.4252 0.7899   -0.483455
 O 0.1461 0.6093 0.80213   -0.621652
 O 0.3556 0.4045 0.79379   -0.674827
 O 0.8955 0.4145 0.0816   -0.55563
 O 0.639 0.5782 0.0765   -0.610859
 O 0.646 0.39655 0.08387   -0.603897
 O 0.8821 0.58642 0.08884   -0.538627
 O 0.8947 0.4134 0.2165   -0.532582
 O 0.6149 0.5748 0.2101   -0.483455
 O 0.6461 0.3907 0.19787   -0.621652
 O 0.8556 0.5955 0.20621   -0.674827
