{'_ref': 'TBD', '_srcid': 'CAKYAQ_clean', 'submitters': [{'name': 'Dalar Nazarian Jeff Camp and David Sholl', 'email': 'dalar@gatech.edu jcamp6@gatech.edu'}], '_method': 'VASP DFT with PBE;DDEC'}
data_Cu3H16C24(N10Cl)2
_symmetry_space_group_name_H-M   'P 1'
_cell_length_a   12.04950000
_cell_length_b   14.88170000
_cell_length_c   15.92210000
_cell_angle_alpha   90.00000000
_cell_angle_beta   90.00000000
_cell_angle_gamma   90.00000000
_symmetry_Int_Tables_number   1
_chemical_formula_structural   Cu3H16C24(N10Cl)2
_chemical_formula_sum   'Cu6 H32 C48 N40 Cl4'
_cell_volume   2855.10390866
_cell_formula_units_Z   2
loop_
 _symmetry_equiv_pos_site_id
 _symmetry_equiv_pos_as_xyz
  1  'x, y, z'
loop_
 _atom_site_label
 _atom_site_fract_x
 _atom_site_fract_y
 _atom_site_fract_z
 _atom_site_charge
 Cu 0.35138 0.79438 0.5   0.517949
 Cu 0.64862 0.20562 0.5   0.517949
 Cu 0.14862 0.29438 0.0   0.517949
 Cu 0.85138 0.70562 0.0   0.517949
 Cu 0.5 0.0 0.5   0.52479
 Cu 0.0 0.5 0.0   0.52479
 H 0.632 0.6581 0.9178   0.098265
 H 0.737 0.9127 0.7825   0.140458
 H 0.5371 0.7065 0.7926   0.12657
 H 0.8287 0.8563 0.8942   0.068252
 H 0.368 0.3419 0.9178   0.098265
 H 0.263 0.0873 0.7825   0.140458
 H 0.4629 0.2935 0.7926   0.12657
 H 0.1713 0.1437 0.8942   0.068252
 H 0.868 0.1581 0.5822   0.098265
 H 0.763 0.4127 0.7175   0.140458
 H 0.9629 0.2065 0.7074   0.12657
 H 0.6713 0.3563 0.6058   0.068252
 H 0.132 0.8419 0.5822   0.098265
 H 0.237 0.5873 0.7175   0.140458
 H 0.0371 0.7935 0.7074   0.12657
 H 0.3287 0.6437 0.6058   0.068252
 H 0.368 0.3419 0.0822   0.098265
 H 0.263 0.0873 0.2175   0.140458
 H 0.4629 0.2935 0.2074   0.12657
 H 0.1713 0.1437 0.1058   0.068252
 H 0.632 0.6581 0.0822   0.098265
 H 0.737 0.9127 0.2175   0.140458
 H 0.5371 0.7065 0.2074   0.12657
 H 0.8287 0.8563 0.1058   0.068252
 H 0.132 0.8419 0.4178   0.098265
 H 0.237 0.5873 0.2825   0.140458
 H 0.0371 0.7935 0.2926   0.12657
 H 0.3287 0.6437 0.3942   0.068252
 H 0.868 0.1581 0.4178   0.098265
 H 0.763 0.4127 0.2825   0.140458
 H 0.9629 0.2065 0.2926   0.12657
 H 0.6713 0.3563 0.3942   0.068252
 C 0.6268 0.8027 0.7694   0.07634
 C 0.5671 0.8316 0.6932   0.326429
 C 0.6589 0.7079 0.8864   0.14187
 C 0.7166 0.8562 0.8055   -0.167624
 C 0.6006 0.7394 0.8103   -0.164979
 C 0.7691 0.8217 0.8725   0.121939
 C 0.3732 0.1973 0.7694   0.07634
 C 0.4329 0.1684 0.6932   0.326429
 C 0.3411 0.2921 0.8864   0.14187
 C 0.2834 0.1438 0.8055   -0.167623
 C 0.3994 0.2606 0.8103   -0.164979
 C 0.2309 0.1783 0.8725   0.121938
 C 0.8732 0.3027 0.7306   0.07634
 C 0.9329 0.3316 0.8068   0.326429
 C 0.8411 0.2079 0.6136   0.14187
 C 0.7834 0.3562 0.6945   -0.167624
 C 0.8994 0.2394 0.6897   -0.164979
 C 0.7309 0.3217 0.6275   0.121939
 C 0.1268 0.6973 0.7306   0.07634
 C 0.0671 0.6684 0.8068   0.326429
 C 0.1589 0.7921 0.6136   0.14187
 C 0.2166 0.6438 0.6945   -0.167623
 C 0.1006 0.7606 0.6897   -0.164979
 C 0.2691 0.6783 0.6275   0.121938
 C 0.3732 0.1973 0.2306   0.07634
 C 0.4329 0.1684 0.3068   0.326429
 C 0.3411 0.2921 0.1136   0.14187
 C 0.2834 0.1438 0.1945   -0.167624
 C 0.3994 0.2606 0.1897   -0.164979
 C 0.2309 0.1783 0.1275   0.121939
 C 0.6268 0.8027 0.2306   0.07634
 C 0.5671 0.8316 0.3068   0.326429
 C 0.6589 0.7079 0.1136   0.14187
 C 0.7166 0.8562 0.1945   -0.167623
 C 0.6006 0.7394 0.1897   -0.164979
 C 0.7691 0.8217 0.1275   0.121939
 C 0.1268 0.6973 0.2694   0.07634
 C 0.0671 0.6684 0.1932   0.326429
 C 0.1589 0.7921 0.3864   0.14187
 C 0.2166 0.6438 0.3055   -0.167624
 C 0.1006 0.7606 0.3103   -0.164979
 C 0.2691 0.6783 0.3725   0.121939
 C 0.8732 0.3027 0.2694   0.07634
 C 0.9329 0.3316 0.1932   0.326429
 C 0.8411 0.2079 0.3864   0.14187
 C 0.7834 0.3562 0.3055   -0.167623
 C 0.8994 0.2394 0.3103   -0.164979
 C 0.7309 0.3217 0.3725   0.121939
 N 0.5171 0.9052 0.5879   0.044561
 N 0.4637 0.8278 0.5886   0.012221
 N 0.4937 0.7788 0.6539   -0.356376
 N 0.5835 0.909 0.656   -0.312779
 N 0.7493 0.7511 0.9091   -0.22446
 N 0.4829 0.0948 0.5879   0.044561
 N 0.5363 0.1722 0.5886   0.012221
 N 0.5063 0.2212 0.6539   -0.356376
 N 0.4165 0.091 0.656   -0.312779
 N 0.2507 0.2489 0.9091   -0.22446
 N 0.9829 0.4052 0.9121   0.044561
 N 0.0363 0.3278 0.9114   0.012221
 N 0.0063 0.2788 0.8461   -0.356376
 N 0.9165 0.409 0.844   -0.312779
 N 0.7507 0.2511 0.5909   -0.22446
 N 0.0171 0.5948 0.9121   0.044561
 N 0.9637 0.6722 0.9114   0.012221
 N 0.9937 0.7212 0.8461   -0.356376
 N 0.0835 0.591 0.844   -0.312779
 N 0.2493 0.7489 0.5909   -0.22446
 N 0.4829 0.0948 0.4121   0.044561
 N 0.5363 0.1722 0.4114   0.012221
 N 0.5063 0.2212 0.3461   -0.356376
 N 0.4165 0.091 0.344   -0.312779
 N 0.2507 0.2489 0.0909   -0.22446
 N 0.5171 0.9052 0.4121   0.044561
 N 0.4637 0.8278 0.4114   0.012221
 N 0.4937 0.7788 0.3461   -0.356376
 N 0.5835 0.909 0.344   -0.312779
 N 0.7493 0.7511 0.0909   -0.22446
 N 0.0171 0.5948 0.0879   0.044561
 N 0.9637 0.6722 0.0886   0.012221
 N 0.9937 0.7212 0.1539   -0.356376
 N 0.0835 0.591 0.156   -0.312779
 N 0.2493 0.7489 0.4091   -0.22446
 N 0.9829 0.4052 0.0879   0.044561
 N 0.0363 0.3278 0.0886   0.012221
 N 0.0063 0.2788 0.1539   -0.356376
 N 0.9165 0.409 0.156   -0.312779
 N 0.7507 0.2511 0.4091   -0.22446
 Cl 0.28262 0.96169 0.5   -0.641716
 Cl 0.71738 0.03831 0.5   -0.641716
 Cl 0.21738 0.46169 0.0   -0.641716
 Cl 0.78262 0.53831 0.0   -0.641716
