{'_ref': 'TBD', '_srcid': 'CAKYAQ_clean', 'submitters': [{'name': 'Dalar Nazarian Jeff Camp and David Sholl', 'email': 'dalar@gatech.edu jcamp6@gatech.edu'}], '_method': 'VASP DFT with PBE;DDEC'}
data_FeH7C15O4
_symmetry_space_group_name_H-M   'P 1'
_cell_length_a   16.54129992
_cell_length_b   16.59564306
_cell_length_c   16.59570000
_cell_angle_alpha   109.53745559
_cell_angle_beta   109.40500218
_cell_angle_gamma   109.40466423
_symmetry_Int_Tables_number   1
_chemical_formula_structural   FeH7C15O4
_chemical_formula_sum   'Fe6 H42 C90 O24'
_cell_volume   3509.88551825
_cell_formula_units_Z   6
loop_
 _symmetry_equiv_pos_site_id
 _symmetry_equiv_pos_as_xyz
  1  'x, y, z'
loop_
 _atom_site_label
 _atom_site_fract_x
 _atom_site_fract_y
 _atom_site_fract_z
 _atom_site_charge
 Fe 0.47384 0.40143 0.0   1.00381
 Fe 0.47384 0.0 0.40143   1.003788
 Fe 0.07241 0.59857 0.59857   1.003782
 Fe 0.92759 0.40143 0.40143   1.003782
 Fe 0.52616 0.0 0.59857   1.003787
 Fe 0.52616 0.59857 0.0   1.00381
 H 0.2016 0.2325 0.7361   0.110113
 H 0.214 0.174 0.5363   0.103658
 H 0.2434 0.073 0.4231   0.086738
 H 0.4655 0.2639 0.4964   0.110117
 H 0.6777 0.4637 0.6377   0.10366
 H 0.8203 0.5769 0.6499   0.086728
 H 0.9691 0.5036 0.7675   0.110114
 H 0.04 0.3623 0.826   0.103656
 H 0.1704 0.3501 0.927   0.086729
 H 0.0309 0.2325 0.4964   0.110131
 H 0.96 0.174 0.6377   0.103655
 H 0.8296 0.073 0.6499   0.086748
 H 0.7984 0.2639 0.7675   0.110099
 H 0.786 0.4637 0.826   0.103661
 H 0.7566 0.5769 0.927   0.086736
 H 0.5345 0.5036 0.7361   0.110115
 H 0.3223 0.3623 0.5363   0.103668
 H 0.1797 0.3501 0.4231   0.086733
 H 0.7984 0.7675 0.2639   0.110113
 H 0.786 0.826 0.4637   0.10367
 H 0.7566 0.927 0.5769   0.086691
 H 0.5345 0.7361 0.5036   0.110117
 H 0.3223 0.5363 0.3623   0.103671
 H 0.1797 0.4231 0.3501   0.086681
 H 0.0309 0.4964 0.2325   0.110114
 H 0.96 0.6377 0.174   0.103667
 H 0.8296 0.6499 0.073   0.086682
 H 0.9691 0.7675 0.5036   0.110132
 H 0.04 0.826 0.3623   0.103666
 H 0.1704 0.927 0.3501   0.086701
 H 0.2016 0.7361 0.2325   0.1101
 H 0.214 0.5363 0.174   0.103672
 H 0.2434 0.4231 0.073   0.086689
 H 0.4655 0.4964 0.2639   0.110116
 H 0.6777 0.6377 0.4637   0.103679
 H 0.8203 0.6499 0.5769   0.086686
 H 0.2454 0.4908 0.7454   0.108597
 H 0.5 0.2546 0.7454   0.108579
 H 0.7546 0.2546 0.5092   0.108583
 H 0.7546 0.5092 0.2546   0.108597
 H 0.5 0.7454 0.2546   0.108579
 H 0.2454 0.7454 0.4908   0.108583
 C 0.3283 0.4234 0.8542   0.695751
 C 0.2401 0.3692 0.7542   -0.158859
 C 0.1854 0.2672 0.7038   -0.061167
 C 0.0881 0.0536 0.5001   0.022854
 C 0.1725 0.1042 0.4978   -0.130781
 C 0.1908 0.0417 0.4328   -0.052893
 C 0.4741 0.1458 0.5692   0.695741
 C 0.4859 0.2458 0.615   -0.15885
 C 0.4816 0.2962 0.5634   -0.061199
 C 0.588 0.4999 0.5535   0.02282
 C 0.6747 0.5022 0.6064   -0.130756
 C 0.758 0.5672 0.6089   -0.052931
 C 0.9049 0.4308 0.5766   0.695734
 C 0.8709 0.385 0.6308   -0.158866
 C 0.9182 0.4366 0.7328   -0.06116
 C 0.0345 0.4465 0.9464   0.022841
 C 0.0683 0.3936 0.8958   -0.130775
 C 0.1491 0.3911 0.9583   -0.052921
 C 0.0951 0.4234 0.5692   0.695735
 C 0.1291 0.3692 0.615   -0.158829
 C 0.0818 0.2672 0.5634   -0.061194
 C 0.9655 0.0536 0.5535   0.022833
 C 0.9317 0.1042 0.6064   -0.130746
 C 0.8509 0.0417 0.6089   -0.052974
 C 0.6717 0.1458 0.5766   0.695776
 C 0.7599 0.2458 0.6308   -0.158877
 C 0.8146 0.2962 0.7328   -0.061159
 C 0.9119 0.4999 0.9464   0.02282
 C 0.8275 0.5022 0.8958   -0.130766
 C 0.8092 0.5672 0.9583   -0.052927
 C 0.5259 0.4308 0.8542   0.695718
 C 0.5141 0.385 0.7542   -0.158867
 C 0.5184 0.4366 0.7038   -0.061169
 C 0.412 0.4465 0.5001   0.022843
 C 0.3253 0.3936 0.4978   -0.130786
 C 0.242 0.3911 0.4328   -0.052913
 C 0.6717 0.5766 0.1458   0.695749
 C 0.7599 0.6308 0.2458   -0.158861
 C 0.8146 0.7328 0.2962   -0.061166
 C 0.9119 0.9464 0.4999   0.022879
 C 0.8275 0.8958 0.5022   -0.130875
 C 0.8092 0.9583 0.5672   -0.052406
 C 0.5259 0.8542 0.4308   0.695739
 C 0.5141 0.7542 0.385   -0.158852
 C 0.5184 0.7038 0.4366   -0.061199
 C 0.412 0.5001 0.4465   0.022846
 C 0.3253 0.4978 0.3936   -0.13085
 C 0.242 0.4328 0.3911   -0.052442
 C 0.0951 0.5692 0.4234   0.695732
 C 0.1291 0.615 0.3692   -0.158868
 C 0.0818 0.5634 0.2672   -0.06116
 C 0.9655 0.5535 0.0536   0.022867
 C 0.9317 0.6064 0.1042   -0.130869
 C 0.8509 0.6089 0.0417   -0.052432
 C 0.9049 0.5766 0.4308   0.695733
 C 0.8709 0.6308 0.385   -0.158831
 C 0.9182 0.7328 0.4366   -0.061194
 C 0.0345 0.9464 0.4465   0.022857
 C 0.0683 0.8958 0.3936   -0.13084
 C 0.1491 0.9583 0.3911   -0.052487
 C 0.3283 0.8542 0.4234   0.695774
 C 0.2401 0.7542 0.3692   -0.158879
 C 0.1854 0.7038 0.2672   -0.061159
 C 0.0881 0.5001 0.0536   0.022845
 C 0.1725 0.4978 0.1042   -0.13086
 C 0.1908 0.4328 0.0417   -0.052438
 C 0.4741 0.5692 0.1458   0.695717
 C 0.4859 0.615 0.2458   -0.158869
 C 0.4816 0.5634 0.2962   -0.061169
 C 0.588 0.5535 0.4999   0.022869
 C 0.6747 0.6064 0.5022   -0.13088
 C 0.758 0.6089 0.5672   -0.052424
 C 0.2104 0.4208 0.7104   0.007296
 C 0.1069 0.2138 0.6069   0.039448
 C 0.0515 0.103 0.5515   -0.039002
 C 0.5 0.2896 0.7104   0.007305
 C 0.5 0.3931 0.6069   0.039451
 C 0.5 0.4485 0.5515   -0.038964
 C 0.7896 0.2896 0.5792   0.007299
 C 0.8931 0.3931 0.7862   0.039431
 C 0.9485 0.4485 0.897   -0.038977
 C 0.7896 0.5792 0.2896   0.007297
 C 0.8931 0.7862 0.3931   0.039455
 C 0.9485 0.897 0.4485   -0.039006
 C 0.5 0.7104 0.2896   0.007306
 C 0.5 0.6069 0.3931   0.039459
 C 0.5 0.5515 0.4485   -0.038968
 C 0.2104 0.7104 0.4208   0.0073
 C 0.1069 0.6069 0.2138   0.039439
 C 0.0515 0.5515 0.103   -0.038981
 O 0.34515 0.37438 0.89347   -0.591071
 O 0.379 0.5164 0.8932   -0.584566
 O 0.45168 0.10653 0.48091   -0.591055
 O 0.4858 0.1068 0.6232   -0.584564
 O 0.97077 0.51909 0.62562   -0.591045
 O 0.8626 0.3768 0.4836   -0.584558
 O 0.02923 0.37438 0.48091   -0.591051
 O 0.1374 0.5164 0.6232   -0.58456
 O 0.65485 0.10653 0.62562   -0.591065
 O 0.621 0.1068 0.4836   -0.584582
 O 0.54832 0.51909 0.89347   -0.591061
 O 0.5142 0.3768 0.8932   -0.584559
 O 0.65485 0.62562 0.10653   -0.591071
 O 0.621 0.4836 0.1068   -0.584566
 O 0.54832 0.89347 0.51909   -0.591055
 O 0.5142 0.8932 0.3768   -0.584564
 O 0.02923 0.48091 0.37438   -0.591045
 O 0.1374 0.6232 0.5164   -0.584558
 O 0.97077 0.62562 0.51909   -0.591051
 O 0.8626 0.4836 0.3768   -0.58456
 O 0.34515 0.89347 0.37438   -0.591066
 O 0.379 0.8932 0.5164   -0.584582
 O 0.45168 0.48091 0.10653   -0.591061
 O 0.4858 0.6232 0.1068   -0.584559
