{'_ref': 'TBD', '_srcid': 'CAKYAQ_clean', 'submitters': [{'name': 'Dalar Nazarian Jeff Camp and David Sholl', 'email': 'dalar@gatech.edu jcamp6@gatech.edu'}], '_method': 'VASP DFT with PBE;DDEC'}
data_NdCuH7C15(NO5)2
_symmetry_space_group_name_H-M   'P 1'
_cell_length_a   8.82299999
_cell_length_b   9.39599960
_cell_length_c   14.54600000
_cell_angle_alpha   81.85000104
_cell_angle_beta   72.79800223
_cell_angle_gamma   65.36800116
_symmetry_Int_Tables_number   1
_chemical_formula_structural   NdCuH7C15(NO5)2
_chemical_formula_sum   'Nd2 Cu2 H14 C30 N4 O20'
_cell_volume   1046.87547868
_cell_formula_units_Z   2
loop_
 _symmetry_equiv_pos_site_id
 _symmetry_equiv_pos_as_xyz
  1  'x, y, z'
loop_
 _atom_site_label
 _atom_site_fract_x
 _atom_site_fract_y
 _atom_site_fract_z
 _atom_site_charge
 Nd 0.07647 0.18795 0.63437   2.21933
 Nd 0.92353 0.81205 0.36563   2.219329
 Cu 0.42703 0.38274 0.93446   0.776887
 Cu 0.57297 0.61726 0.06554   0.776912
 H 0.7238 0.2971 0.1474   0.100711
 H 0.9788 0.0777 0.1113   0.125605
 H 0.5118 0.8969 0.9282   0.085325
 H 0.0419 0.5391 0.7742   0.141187
 H 0.6577 0.9645 0.7822   0.141306
 H 0.921 0.7826 0.7025   0.112402
 H 0.1844 0.0775 0.9699   0.096552
 H 0.2762 0.7029 0.8526   0.100708
 H 0.0212 0.9223 0.8887   0.125605
 H 0.4882 0.1031 0.0718   0.085324
 H 0.9581 0.4609 0.2258   0.141184
 H 0.3423 0.0355 0.2178   0.141306
 H 0.079 0.2174 0.2975   0.112402
 H 0.8156 0.9225 0.0301   0.096551
 C 0.9598 0.4685 0.4717   0.57397
 C 0.8982 0.4247 0.949   0.165967
 C 0.8406 0.5767 0.8934   0.171711
 C 0.6916 0.3837 0.7839   0.517049
 C 0.754 0.2204 0.8333   0.542938
 C 0.8079 0.2962 0.0908   0.162824
 C 0.9596 0.1643 0.0696   -0.150091
 C 0.6194 0.8248 0.8966   0.164233
 C 0.9339 0.6118 0.8047   -0.138458
 C 0.705 0.8655 0.8094   -0.139115
 C 0.862 0.7579 0.7627   0.044699
 C 0.0534 0.294 0.9228   -0.174396
 C 0.1987 0.2763 0.8311   0.768967
 C 0.0812 0.1652 0.9855   0.028168
 C 0.908 0.0212 0.5333   0.597724
 C 0.0402 0.5315 0.5283   0.573955
 C 0.1018 0.5753 0.051   0.165967
 C 0.1594 0.4233 0.1066   0.171709
 C 0.3084 0.6163 0.2161   0.517049
 C 0.246 0.7796 0.1667   0.542938
 C 0.1921 0.7038 0.9092   0.162822
 C 0.0404 0.8357 0.9304   -0.150091
 C 0.3806 0.1752 0.1034   0.164232
 C 0.0661 0.3882 0.1953   -0.138458
 C 0.295 0.1345 0.1906   -0.139114
 C 0.138 0.2421 0.2373   0.044698
 C 0.9466 0.706 0.0772   -0.174397
 C 0.8013 0.7237 0.1689   0.768968
 C 0.9188 0.8348 0.0145   0.028168
 C 0.092 0.9788 0.4667   0.597713
 N 0.7787 0.4221 0.0322   -0.335651
 N 0.6863 0.6837 0.9378   -0.353839
 N 0.2213 0.5779 0.9678   -0.335648
 N 0.3137 0.3163 0.0622   -0.353834
 O 0.9612 0.334 0.4958   -0.635428
 O 0.6498 0.2015 0.9112   -0.523862
 O 0.5436 0.4815 0.8258   -0.504145
 O 0.7881 0.4071 0.7073   -0.581712
 O 0.1787 0.241 0.7576   -0.784977
 O 0.8988 0.1238 0.795   -0.622692
 O 0.3296 0.2902 0.8366   -0.583617
 O 0.8987 0.5563 0.4071   -0.655398
 O 0.8732 0.0884 0.6105   -0.643069
 O 0.8064 0.9866 0.5053   -0.711101
 O 0.0388 0.666 0.5042   -0.635426
 O 0.3502 0.7985 0.0888   -0.523864
 O 0.4564 0.5185 0.1742   -0.504147
 O 0.2119 0.5929 0.2927   -0.581712
 O 0.8213 0.759 0.2424   -0.784977
 O 0.1012 0.8762 0.205   -0.622692
 O 0.6704 0.7098 0.1634   -0.58362
 O 0.1013 0.4437 0.5929   -0.655396
 O 0.1268 0.9116 0.3895   -0.643068
 O 0.1936 0.0134 0.4947   -0.7111
