{'_ref': 'TBD', '_srcid': 'CAKYAQ_clean', 'submitters': [{'name': 'Dalar Nazarian Jeff Camp and David Sholl', 'email': 'dalar@gatech.edu jcamp6@gatech.edu'}], '_method': 'VASP DFT with PBE;DDEC'}
data_Zn2H14C22O7
_symmetry_space_group_name_H-M   'P 1'
_cell_length_a   10.13650000
_cell_length_b   11.41340000
_cell_length_c   29.27940000
_cell_angle_alpha   90.00000000
_cell_angle_beta   90.00000000
_cell_angle_gamma   90.00000000
_symmetry_Int_Tables_number   1
_chemical_formula_structural   Zn2H14C22O7
_chemical_formula_sum   'Zn8 H56 C88 O28'
_cell_volume   3387.39026889
_cell_formula_units_Z   4
loop_
 _symmetry_equiv_pos_site_id
 _symmetry_equiv_pos_as_xyz
  1  'x, y, z'
loop_
 _atom_site_label
 _atom_site_fract_x
 _atom_site_fract_y
 _atom_site_fract_z
 _atom_site_charge
 Zn 0.34139 0.31538 0.00698   1.067209
 Zn 0.03469 0.43019 0.00623   1.104459
 Zn 0.15861 0.68462 0.50698   1.067209
 Zn 0.46531 0.56981 0.50623   1.104459
 Zn 0.65861 0.81538 0.49302   1.067208
 Zn 0.96531 0.93019 0.49377   1.104459
 Zn 0.84139 0.18462 0.99302   1.067208
 Zn 0.53469 0.06981 0.99377   1.104459
 H 0.2492 0.0187 0.9779   0.086374
 H 0.1339 0.8717 0.02   0.110238
 H 0.0902 0.7735 0.0888   0.098411
 H 0.1645 0.8525 0.1578   0.093607
 H 0.2741 0.0326 0.1588   0.100389
 H 0.3144 0.1318 0.0898   0.101295
 H 0.0353 0.4876 0.8663   0.089772
 H 0.05 0.5172 0.7877   0.109059
 H 0.4469 0.4752 0.7937   0.109102
 H 0.432 0.4409 0.8723   0.097446
 H 0.1212 0.6466 0.7284   0.110566
 H 0.1351 0.6763 0.6499   0.108251
 H 0.417 0.4251 0.6418   0.102856
 H 0.3976 0.3919 0.7203   0.112316
 H 0.2508 0.9813 0.4779   0.086374
 H 0.3661 0.1283 0.52   0.110238
 H 0.4098 0.2265 0.5888   0.098411
 H 0.3355 0.1475 0.6578   0.093608
 H 0.2259 0.9674 0.6588   0.100389
 H 0.1856 0.8682 0.5898   0.101295
 H 0.4647 0.5124 0.3663   0.089772
 H 0.45 0.4828 0.2877   0.109059
 H 0.0531 0.5248 0.2937   0.109102
 H 0.068 0.5591 0.3723   0.097446
 H 0.3788 0.3534 0.2284   0.110566
 H 0.3649 0.3237 0.1499   0.10825
 H 0.083 0.5749 0.1418   0.102856
 H 0.1024 0.6081 0.2203   0.112316
 H 0.7508 0.5187 0.5221   0.086373
 H 0.8661 0.3717 0.48   0.110238
 H 0.9098 0.2735 0.4112   0.098411
 H 0.8355 0.3525 0.3422   0.093608
 H 0.7259 0.5326 0.3412   0.10039
 H 0.6856 0.6318 0.4102   0.101295
 H 0.9647 0.9876 0.6337   0.089772
 H 0.95 0.0172 0.7123   0.109059
 H 0.5531 0.9752 0.7063   0.109103
 H 0.568 0.9409 0.6277   0.097446
 H 0.8788 0.1466 0.7716   0.110566
 H 0.8649 0.1763 0.8501   0.108251
 H 0.583 0.9251 0.8582   0.102856
 H 0.6024 0.8919 0.7797   0.112316
 H 0.7492 0.4813 0.0221   0.086373
 H 0.6339 0.6283 0.98   0.110238
 H 0.5902 0.7265 0.9112   0.098411
 H 0.6645 0.6475 0.8422   0.093609
 H 0.7741 0.4674 0.8412   0.10039
 H 0.8144 0.3682 0.9102   0.101294
 H 0.5353 0.0124 0.1337   0.089772
 H 0.55 0.9828 0.2123   0.109059
 H 0.9469 0.0248 0.2063   0.109103
 H 0.932 0.0591 0.1277   0.097446
 H 0.6212 0.8534 0.2716   0.110566
 H 0.6351 0.8237 0.3501   0.10825
 H 0.917 0.0749 0.3582   0.102855
 H 0.8976 0.1081 0.2797   0.112316
 C 0.1255 0.1557 0.9976   0.667578
 C 0.2472 0.0772 0.00335   0.094832
 C 0.2285 0.0125 0.0486   0.003636
 C 0.1619 0.9047 0.04813   -0.125357
 C 0.1367 0.8457 0.08905   -0.081695
 C 0.1799 0.8933 0.13006   -0.095938
 C 0.2455 0.9998 0.13071   -0.088655
 C 0.2694 0.0588 0.08944   -0.102055
 C 0.2233 0.4368 0.92684   0.73364
 C 0.2328 0.461 0.87685   -0.157924
 C 0.1186 0.4842 0.85155   -0.016973
 C 0.1277 0.5022 0.80488   -0.157531
 C 0.2491 0.4987 0.78281   0.057563
 C 0.3633 0.4767 0.80839   -0.156169
 C 0.3545 0.457 0.85519   -0.021444
 C 0.2571 0.5168 0.73248   0.058482
 C 0.1809 0.6008 0.71084   -0.149483
 C 0.1899 0.6196 0.66418   -0.029101
 C 0.2793 0.5553 0.63836   -0.151861
 C 0.3566 0.47 0.65934   -0.032866
 C 0.3452 0.4505 0.70613   -0.153111
 C 0.2909 0.577 0.5881   0.72721
 C 0.3745 0.8443 0.4976   0.667578
 C 0.2528 0.9228 0.50335   0.094831
 C 0.2715 0.9875 0.5486   0.003636
 C 0.3381 0.0953 0.54813   -0.125357
 C 0.3633 0.1543 0.58905   -0.081695
 C 0.3201 0.1067 0.63006   -0.095939
 C 0.2545 0.0002 0.63071   -0.088654
 C 0.2306 0.9412 0.58944   -0.102055
 C 0.2767 0.5632 0.42684   0.73364
 C 0.2672 0.539 0.37685   -0.157924
 C 0.3814 0.5158 0.35155   -0.016973
 C 0.3723 0.4978 0.30488   -0.157531
 C 0.2509 0.5013 0.28281   0.057563
 C 0.1367 0.5233 0.30839   -0.156169
 C 0.1455 0.543 0.35519   -0.021444
 C 0.2429 0.4832 0.23248   0.058482
 C 0.3191 0.3992 0.21084   -0.149483
 C 0.3101 0.3804 0.16418   -0.029101
 C 0.2207 0.4447 0.13836   -0.151861
 C 0.1434 0.53 0.15934   -0.032866
 C 0.1548 0.5495 0.20613   -0.153111
 C 0.2091 0.423 0.0881   0.72721
 C 0.8745 0.6557 0.5024   0.667578
 C 0.7528 0.5772 0.49665   0.094832
 C 0.7715 0.5125 0.4514   0.003636
 C 0.8381 0.4047 0.45187   -0.125357
 C 0.8633 0.3457 0.41095   -0.081695
 C 0.8201 0.3933 0.36994   -0.095939
 C 0.7545 0.4998 0.36929   -0.088655
 C 0.7306 0.5588 0.41056   -0.102055
 C 0.7767 0.9368 0.57316   0.73364
 C 0.7672 0.961 0.62315   -0.157924
 C 0.8814 0.9842 0.64845   -0.016973
 C 0.8723 0.0022 0.69512   -0.157532
 C 0.7509 0.9987 0.71719   0.057563
 C 0.6367 0.9767 0.69161   -0.156169
 C 0.6455 0.957 0.64481   -0.021443
 C 0.7429 0.0168 0.76752   0.058482
 C 0.8191 0.1008 0.78916   -0.149483
 C 0.8101 0.1196 0.83582   -0.029102
 C 0.7207 0.0553 0.86164   -0.151861
 C 0.6434 0.97 0.84066   -0.032865
 C 0.6548 0.9505 0.79387   -0.153111
 C 0.7091 0.077 0.9119   0.72721
 C 0.6255 0.3443 0.0024   0.667578
 C 0.7472 0.4228 0.99665   0.094832
 C 0.7285 0.4875 0.9514   0.003636
 C 0.6619 0.5953 0.95187   -0.125357
 C 0.6367 0.6543 0.91095   -0.081695
 C 0.6799 0.6067 0.86994   -0.095939
 C 0.7455 0.5002 0.86929   -0.088655
 C 0.7694 0.4412 0.91056   -0.102055
 C 0.7233 0.0632 0.07316   0.73364
 C 0.7328 0.039 0.12315   -0.157924
 C 0.6186 0.0158 0.14845   -0.016973
 C 0.6277 0.9978 0.19512   -0.157532
 C 0.7491 0.0013 0.21719   0.057563
 C 0.8633 0.0233 0.19161   -0.156169
 C 0.8545 0.043 0.14481   -0.021443
 C 0.7571 0.9832 0.26752   0.058482
 C 0.6809 0.8992 0.28916   -0.149483
 C 0.6899 0.8804 0.33582   -0.029102
 C 0.7793 0.9447 0.36164   -0.151861
 C 0.8566 0.03 0.34066   -0.032865
 C 0.8452 0.0495 0.29387   -0.153111
 C 0.7909 0.923 0.4119   0.72721
 O 0.1392 0.2646 0.00391   -0.641788
 O 0.0191 0.1057 0.98764   -0.565976
 O 0.3641 0.145 0.00187   -0.709544
 O 0.3201 0.3913 0.94584   -0.596616
 O 0.1173 0.4687 0.94662   -0.66107
 O 0.1939 0.6291 0.56978   -0.604944
 O 0.3937 0.5425 0.5681   -0.644187
 O 0.3608 0.7354 0.50391   -0.641788
 O 0.4809 0.8943 0.48764   -0.565976
 O 0.1359 0.855 0.50187   -0.709544
 O 0.1799 0.6087 0.44584   -0.596616
 O 0.3827 0.5313 0.44662   -0.66107
 O 0.3061 0.3709 0.06978   -0.604944
 O 0.1063 0.4575 0.0681   -0.644187
 O 0.8608 0.7646 0.49609   -0.641788
 O 0.9809 0.6057 0.51236   -0.565977
 O 0.6359 0.645 0.49813   -0.709544
 O 0.6799 0.8913 0.55416   -0.596616
 O 0.8827 0.9687 0.55338   -0.66107
 O 0.8061 0.1291 0.93022   -0.604944
 O 0.6063 0.0425 0.9319   -0.644187
 O 0.6392 0.2354 0.99609   -0.641788
 O 0.5191 0.3943 0.01236   -0.565977
 O 0.8641 0.355 0.99813   -0.709544
 O 0.8201 0.1087 0.05416   -0.596616
 O 0.6173 0.0313 0.05338   -0.66107
 O 0.6939 0.8709 0.43022   -0.604944
 O 0.8937 0.9575 0.4319   -0.644187
