{'_ref': 'TBD', '_srcid': 'CAKYAQ_clean', 'submitters': [{'name': 'Dalar Nazarian Jeff Camp and David Sholl', 'email': 'dalar@gatech.edu jcamp6@gatech.edu'}], '_method': 'VASP DFT with PBE;DDEC'}
data_Zn2H12C20O7
_symmetry_space_group_name_H-M   'P 1'
_cell_length_a   10.23980000
_cell_length_b   15.48920000
_cell_length_c   23.71280000
_cell_angle_alpha   90.00000000
_cell_angle_beta   90.00000000
_cell_angle_gamma   90.00000000
_symmetry_Int_Tables_number   1
_chemical_formula_structural   Zn2H12C20O7
_chemical_formula_sum   'Zn8 H48 C80 O28'
_cell_volume   3760.99971156
_cell_formula_units_Z   4
loop_
 _symmetry_equiv_pos_site_id
 _symmetry_equiv_pos_as_xyz
  1  'x, y, z'
loop_
 _atom_site_label
 _atom_site_fract_x
 _atom_site_fract_y
 _atom_site_fract_z
 _atom_site_charge
 Zn 0.61442 0.30886 0.0121   1.077683
 Zn 0.43127 0.12032 0.99215   1.111446
 Zn 0.88558 0.69114 0.5121   1.077683
 Zn 0.06873 0.87968 0.49215   1.111446
 Zn 0.38558 0.80886 0.4879   1.077683
 Zn 0.56873 0.62032 0.50785   1.111446
 Zn 0.11442 0.19114 0.9879   1.077683
 Zn 0.93127 0.37968 0.00785   1.111446
 H 0.0506 0.1024 0.8267   0.100904
 H 0.0231 0.0517 0.7359   0.102785
 H 0.4339 0.0438 0.8206   0.102042
 H 0.1164 0.9936 0.6479   0.103171
 H 0.4981 0.9339 0.6415   0.103374
 H 0.5282 0.9859 0.7302   0.105539
 H 0.7057 0.0878 0.9722   0.086866
 H 0.5699 0.2555 0.8882   0.094725
 H 0.555 0.2575 0.7899   0.102938
 H 0.6789 0.1554 0.7383   0.089049
 H 0.7826 0.0476 0.7813   0.097287
 H 0.798 0.0472 0.881   0.101916
 H 0.4494 0.8976 0.3267   0.100904
 H 0.4769 0.9483 0.2359   0.102785
 H 0.0661 0.9562 0.3206   0.102042
 H 0.3836 0.0064 0.1479   0.103171
 H 0.0019 0.0661 0.1415   0.103374
 H 0.9718 0.0141 0.2302   0.105539
 H 0.7943 0.9122 0.4722   0.086866
 H 0.9301 0.7445 0.3882   0.094725
 H 0.945 0.7425 0.2899   0.102938
 H 0.8211 0.8446 0.2383   0.08905
 H 0.7174 0.9524 0.2813   0.097287
 H 0.702 0.9528 0.381   0.101916
 H 0.9494 0.6024 0.6733   0.100904
 H 0.9769 0.5517 0.7641   0.102785
 H 0.5661 0.5438 0.6794   0.102042
 H 0.8836 0.4936 0.8521   0.103171
 H 0.5019 0.4339 0.8585   0.103374
 H 0.4718 0.4859 0.7698   0.105539
 H 0.2943 0.5878 0.5278   0.086866
 H 0.4301 0.7555 0.6118   0.094725
 H 0.445 0.7575 0.7101   0.102938
 H 0.3211 0.6554 0.7617   0.089049
 H 0.2174 0.5476 0.7187   0.097288
 H 0.202 0.5472 0.619   0.101916
 H 0.5506 0.3976 0.1733   0.100904
 H 0.5231 0.4483 0.2641   0.102785
 H 0.9339 0.4562 0.1794   0.102042
 H 0.6164 0.5064 0.3521   0.103172
 H 0.9981 0.5661 0.3585   0.103374
 H 0.0282 0.5141 0.2698   0.105539
 H 0.2057 0.4122 0.0278   0.086866
 H 0.0699 0.2445 0.1118   0.094725
 H 0.055 0.2425 0.2101   0.102938
 H 0.1789 0.3446 0.2617   0.08905
 H 0.2826 0.4524 0.2187   0.097288
 H 0.298 0.4528 0.119   0.101916
 C 0.2589 0.1048 0.89313   0.729278
 C 0.2454 0.0749 0.8325   -0.1305
 C 0.123 0.0794 0.8067   -0.047659
 C 0.1075 0.0504 0.7525   -0.140057
 C 0.2112 0.0194 0.7214   0.046741
 C 0.3383 0.0165 0.7465   0.050102
 C 0.3507 0.0452 0.8029   -0.084748
 C 0.1993 0.9897 0.6658   -0.066378
 C 0.301 0.9553 0.63602   -0.153763
 C 0.4252 0.9555 0.6618   -0.041621
 C 0.4429 0.9856 0.7145   -0.140936
 C 0.2774 0.9185 0.57757   0.728283
 C 0.824 0.1968 0.97701   0.684813
 C 0.6997 0.1493 0.95969   0.087079
 C 0.69 0.1525 0.894   0.012799
 C 0.6159 0.2136 0.8666   -0.102471
 C 0.6069 0.2156 0.8087   -0.090034
 C 0.678 0.1526 0.7783   -0.081818
 C 0.7416 0.0917 0.8028   -0.080499
 C 0.7496 0.0914 0.8627   -0.125274
 C 0.2411 0.8952 0.39313   0.729277
 C 0.2546 0.9251 0.3325   -0.1305
 C 0.377 0.9206 0.3067   -0.047659
 C 0.3925 0.9496 0.2525   -0.140057
 C 0.2888 0.9806 0.2214   0.046741
 C 0.1617 0.9835 0.2465   0.050102
 C 0.1493 0.9548 0.3029   -0.084748
 C 0.3007 0.0103 0.1658   -0.066378
 C 0.199 0.0447 0.13602   -0.153763
 C 0.0748 0.0445 0.1618   -0.041621
 C 0.0571 0.0144 0.2145   -0.140936
 C 0.2226 0.0815 0.07757   0.728283
 C 0.676 0.8032 0.47701   0.684813
 C 0.8003 0.8507 0.45969   0.087079
 C 0.81 0.8475 0.394   0.012799
 C 0.8841 0.7864 0.3666   -0.102471
 C 0.8931 0.7844 0.3087   -0.090034
 C 0.822 0.8474 0.2783   -0.081818
 C 0.7584 0.9083 0.3028   -0.080499
 C 0.7504 0.9086 0.3627   -0.125274
 C 0.7411 0.6048 0.60687   0.729278
 C 0.7546 0.5749 0.6675   -0.1305
 C 0.877 0.5794 0.6933   -0.047659
 C 0.8925 0.5504 0.7475   -0.140057
 C 0.7888 0.5194 0.7786   0.04674
 C 0.6617 0.5165 0.7535   0.050102
 C 0.6493 0.5452 0.6971   -0.084748
 C 0.8007 0.4897 0.8342   -0.066378
 C 0.699 0.4553 0.86398   -0.153762
 C 0.5748 0.4555 0.8382   -0.041621
 C 0.5571 0.4856 0.7855   -0.140936
 C 0.7226 0.4185 0.92243   0.728284
 C 0.176 0.6968 0.52299   0.684813
 C 0.3003 0.6493 0.54031   0.087079
 C 0.31 0.6525 0.606   0.012799
 C 0.3841 0.7136 0.6334   -0.102471
 C 0.3931 0.7156 0.6913   -0.090034
 C 0.322 0.6526 0.7217   -0.081818
 C 0.2584 0.5917 0.6972   -0.080499
 C 0.2504 0.5914 0.6373   -0.125274
 C 0.7589 0.3952 0.10687   0.729277
 C 0.7454 0.4251 0.1675   -0.1305
 C 0.623 0.4206 0.1933   -0.047659
 C 0.6075 0.4496 0.2475   -0.140057
 C 0.7112 0.4806 0.2786   0.04674
 C 0.8383 0.4835 0.2535   0.050102
 C 0.8507 0.4548 0.1971   -0.084748
 C 0.6993 0.5103 0.3342   -0.066378
 C 0.801 0.5447 0.36398   -0.153762
 C 0.9252 0.5445 0.3382   -0.041621
 C 0.9429 0.5144 0.2855   -0.140936
 C 0.7774 0.5815 0.42243   0.728283
 C 0.324 0.3032 0.02299   0.684813
 C 0.1997 0.3507 0.04031   0.087079
 C 0.19 0.3475 0.106   0.012799
 C 0.1159 0.2864 0.1334   -0.102471
 C 0.1069 0.2844 0.1913   -0.090034
 C 0.178 0.3474 0.2217   -0.081818
 C 0.2416 0.4083 0.1972   -0.080499
 C 0.2496 0.4086 0.1373   -0.125274
 O 0.3626 0.0854 0.91817   -0.645666
 O 0.1625 0.1425 0.91326   -0.59689
 O 0.1611 0.9185 0.56058   -0.649246
 O 0.3762 0.8931 0.55139   -0.603626
 O 0.5893 0.189 0.9859   -0.725539
 O 0.8115 0.26722 0.00183   -0.639313
 O 0.9288 0.1606 0.96684   -0.572781
 O 0.1374 0.9146 0.41817   -0.645666
 O 0.3375 0.8575 0.41326   -0.59689
 O 0.3389 0.0815 0.06058   -0.649246
 O 0.1238 0.1069 0.05139   -0.603626
 O 0.9107 0.811 0.4859   -0.725539
 O 0.6885 0.73278 0.50183   -0.639313
 O 0.5712 0.8394 0.46684   -0.572781
 O 0.6374 0.5854 0.58183   -0.645666
 O 0.8375 0.6425 0.58674   -0.59689
 O 0.8389 0.4185 0.93942   -0.649246
 O 0.6238 0.3931 0.94861   -0.603626
 O 0.4107 0.689 0.5141   -0.725539
 O 0.1885 0.76722 0.49817   -0.639313
 O 0.0712 0.6606 0.53316   -0.572781
 O 0.8626 0.4146 0.08183   -0.645666
 O 0.6625 0.3575 0.08674   -0.59689
 O 0.6611 0.5815 0.43942   -0.649246
 O 0.8762 0.6069 0.44861   -0.603626
 O 0.0893 0.311 0.0141   -0.725539
 O 0.3115 0.23278 0.99817   -0.639313
 O 0.4288 0.3394 0.03316   -0.572781
