{'_ref': 'TBD', '_srcid': 'CAKYAQ_clean', 'submitters': [{'name': 'Dalar Nazarian Jeff Camp and David Sholl', 'email': 'dalar@gatech.edu jcamp6@gatech.edu'}], '_method': 'VASP DFT with PBE;DDEC'}
data_CePH11C7NO5
_symmetry_space_group_name_H-M   'P 1'
_cell_length_a   5.69060039
_cell_length_b   12.80000000
_cell_length_c   21.55000000
_cell_angle_alpha   90.00000000
_cell_angle_beta   95.39200235
_cell_angle_gamma   90.00000000
_symmetry_Int_Tables_number   1
_chemical_formula_structural   CePH11C7NO5
_chemical_formula_sum   'Ce4 P4 H44 C28 N4 O20'
_cell_volume   1562.7494528
_cell_formula_units_Z   4
loop_
 _symmetry_equiv_pos_site_id
 _symmetry_equiv_pos_as_xyz
  1  'x, y, z'
loop_
 _atom_site_label
 _atom_site_fract_x
 _atom_site_fract_y
 _atom_site_fract_z
 _atom_site_charge
 Ce 0.63155 0.14376 0.969   2.279461
 Ce 0.36845 0.64376 0.531   2.279461
 Ce 0.36845 0.85624 0.031   2.279459
 Ce 0.63155 0.35624 0.469   2.279459
 P 0.9046 0.025 0.08404   1.606567
 P 0.0954 0.525 0.41596   1.606567
 P 0.0954 0.975 0.91596   1.606567
 P 0.9046 0.475 0.58404   1.606567
 H 0.7346 0.9798 0.1748   0.16051
 H 0.6673 0.0948 0.1564   0.114194
 H 0.7424 0.1149 0.2731   0.035531
 H 0.8445 0.0013 0.2788   0.064684
 H 0.1975 0.0621 0.3287   0.075767
 H 0.9904 0.1049 0.3646   0.071369
 H 0.0098 0.2676 0.3161   0.116453
 H 0.2767 0.301 0.2453   0.078273
 H 0.3732 0.1865 0.2518   0.067643
 H 0.1144 0.1991 0.161   0.07733
 H 0.9121 0.2396 0.1996   0.029424
 H 0.2654 0.4798 0.3252   0.16051
 H 0.3327 0.5948 0.3436   0.114194
 H 0.2576 0.6149 0.2269   0.035531
 H 0.1555 0.5013 0.2212   0.064686
 H 0.8025 0.5621 0.1713   0.075768
 H 0.0096 0.6049 0.1354   0.071369
 H 0.9902 0.7676 0.1839   0.116453
 H 0.7233 0.801 0.2547   0.078275
 H 0.6268 0.6865 0.2482   0.067643
 H 0.8856 0.6991 0.339   0.07733
 H 0.0879 0.7396 0.3004   0.029425
 H 0.2654 0.0202 0.8252   0.16051
 H 0.3327 0.9052 0.8436   0.114194
 H 0.2576 0.8851 0.7269   0.035531
 H 0.1555 0.9987 0.7212   0.064684
 H 0.8025 0.9379 0.6713   0.075767
 H 0.0096 0.8951 0.6354   0.071369
 H 0.9902 0.7324 0.6839   0.116453
 H 0.7233 0.699 0.7547   0.078273
 H 0.6268 0.8135 0.7482   0.067643
 H 0.8856 0.8009 0.839   0.07733
 H 0.0879 0.7604 0.8004   0.029424
 H 0.7346 0.5202 0.6748   0.16051
 H 0.6673 0.4052 0.6564   0.114194
 H 0.7424 0.3851 0.7731   0.035531
 H 0.8445 0.4987 0.7788   0.064686
 H 0.1975 0.4379 0.8287   0.075768
 H 0.9904 0.3951 0.8646   0.071369
 H 0.0098 0.2324 0.8161   0.116453
 H 0.2767 0.199 0.7453   0.078275
 H 0.3732 0.3135 0.7518   0.067643
 H 0.1144 0.3009 0.661   0.07733
 H 0.9121 0.2604 0.6996   0.029425
 C 0.7971 0.0455 0.1611   -0.402574
 C 0.885 0.0738 0.2724   0.047152
 C 0.063 0.1088 0.3257   -0.141721
 C 0.148 0.2218 0.3159   -0.166577
 C 0.233 0.2292 0.2529   -0.144097
 C 0.049 0.194 0.2008   0.035708
 C 0.323 0.2569 0.367   0.725755
 C 0.2029 0.5455 0.3389   -0.402574
 C 0.115 0.5738 0.2276   0.047152
 C 0.937 0.6088 0.1743   -0.141721
 C 0.852 0.7218 0.1841   -0.166577
 C 0.767 0.7292 0.2471   -0.144098
 C 0.951 0.694 0.2992   0.035708
 C 0.677 0.7569 0.133   0.725755
 C 0.2029 0.9545 0.8389   -0.402574
 C 0.115 0.9262 0.7276   0.047152
 C 0.937 0.8912 0.6743   -0.141721
 C 0.852 0.7782 0.6841   -0.166577
 C 0.767 0.7708 0.7471   -0.144097
 C 0.951 0.806 0.7992   0.035708
 C 0.677 0.7431 0.633   0.725755
 C 0.7971 0.4545 0.6611   -0.402574
 C 0.885 0.4262 0.7724   0.047152
 C 0.063 0.3912 0.8257   -0.141721
 C 0.148 0.2782 0.8159   -0.166577
 C 0.233 0.2708 0.7529   -0.144098
 C 0.049 0.306 0.7008   0.035708
 C 0.323 0.2431 0.867   0.725755
 N 0.974 0.0845 0.2109   -0.267155
 N 0.026 0.5845 0.2891   -0.267155
 N 0.026 0.9155 0.7891   -0.267155
 N 0.974 0.4155 0.7109   -0.267155
 O 0.6845 0.9817 0.046   -1.086804
 O 0.9584 0.1291 0.055   -0.983957
 O 0.1091 0.9522 0.0921   -0.915776
 O 0.2986 0.2359 0.4232   -0.782799
 O 0.499 0.3118 0.3549   -0.694362
 O 0.3155 0.4817 0.454   -1.086804
 O 0.0416 0.6291 0.445   -0.983957
 O 0.8909 0.4522 0.4079   -0.915776
 O 0.7014 0.7359 0.0768   -0.782799
 O 0.501 0.8118 0.1451   -0.694362
 O 0.3155 0.0183 0.954   -1.086804
 O 0.0416 0.8709 0.945   -0.983956
 O 0.8909 0.0478 0.9079   -0.915776
 O 0.7014 0.7641 0.5768   -0.782799
 O 0.501 0.6882 0.6451   -0.694362
 O 0.6845 0.5183 0.546   -1.086804
 O 0.9584 0.3709 0.555   -0.983956
 O 0.1091 0.5478 0.5921   -0.915776
 O 0.2986 0.2641 0.9232   -0.782799
 O 0.499 0.1882 0.8549   -0.694362
