{'_ref': 'TBD', '_srcid': 'CAKYAQ_clean', 'submitters': [{'name': 'Dalar Nazarian Jeff Camp and David Sholl', 'email': 'dalar@gatech.edu jcamp6@gatech.edu'}], '_method': 'VASP DFT with PBE;DDEC'}
data_SmPH11C7NO5
_symmetry_space_group_name_H-M   'P 1'
_cell_length_a   5.54620026
_cell_length_b   13.34300000
_cell_length_c   21.16400000
_cell_angle_alpha   90.00000000
_cell_angle_beta   96.51599475
_cell_angle_gamma   90.00000000
_symmetry_Int_Tables_number   1
_chemical_formula_structural   SmPH11C7NO5
_chemical_formula_sum   'Sm4 P4 H44 C28 N4 O20'
_cell_volume   1556.08113046
_cell_formula_units_Z   4
loop_
 _symmetry_equiv_pos_site_id
 _symmetry_equiv_pos_as_xyz
  1  'x, y, z'
loop_
 _atom_site_label
 _atom_site_fract_x
 _atom_site_fract_y
 _atom_site_fract_z
 _atom_site_charge
 Sm 0.62667 0.13256 0.97225   2.316145
 Sm 0.37333 0.63256 0.52775   2.316145
 Sm 0.37333 0.86744 0.02775   2.316144
 Sm 0.62667 0.36744 0.47225   2.316144
 P 0.9159 0.0233 0.08711   1.638967
 P 0.0841 0.5233 0.41289   1.638967
 P 0.0841 0.9767 0.91289   1.638967
 P 0.9159 0.4767 0.58711   1.638967
 H 0.7718 0.9721 0.1803   0.164409
 H 0.6777 0.08 0.1626   0.121579
 H 0.7646 0.093 0.2802   0.032146
 H 0.9065 0.9913 0.2855   0.066207
 H 0.028 0.0932 0.3698   0.080877
 H 0.2447 0.0681 0.3311   0.069183
 H 0.9888 0.2512 0.3257   0.104518
 H 0.21 0.3078 0.2479   0.079635
 H 0.3716 0.2111 0.2524   0.068125
 H 0.0903 0.194 0.1626   0.080482
 H 0.8742 0.2189 0.2017   0.02649
 H 0.2282 0.4721 0.3197   0.164409
 H 0.3223 0.58 0.3374   0.121579
 H 0.2354 0.593 0.2198   0.032147
 H 0.0935 0.4913 0.2145   0.066209
 H 0.972 0.5932 0.1302   0.080877
 H 0.7553 0.5681 0.1689   0.069183
 H 0.0112 0.7512 0.1743   0.104518
 H 0.79 0.8078 0.2521   0.079637
 H 0.6284 0.7111 0.2476   0.068125
 H 0.9097 0.694 0.3374   0.080482
 H 0.1258 0.7189 0.2983   0.026491
 H 0.2282 0.0279 0.8197   0.164409
 H 0.3223 0.92 0.8374   0.121579
 H 0.2354 0.907 0.7198   0.032146
 H 0.0935 0.0087 0.7145   0.066207
 H 0.972 0.9068 0.6302   0.080877
 H 0.7553 0.9319 0.6689   0.069183
 H 0.0112 0.7488 0.6743   0.104518
 H 0.79 0.6922 0.7521   0.079635
 H 0.6284 0.7889 0.7476   0.068125
 H 0.9097 0.806 0.8374   0.080482
 H 0.1258 0.7811 0.7983   0.02649
 H 0.7718 0.5279 0.6803   0.164409
 H 0.6777 0.42 0.6626   0.121579
 H 0.7646 0.407 0.7802   0.032147
 H 0.9065 0.5087 0.7855   0.066209
 H 0.028 0.4068 0.8698   0.080877
 H 0.2447 0.4319 0.8311   0.069183
 H 0.9888 0.2488 0.8257   0.104518
 H 0.21 0.1922 0.7479   0.079637
 H 0.3716 0.2889 0.7524   0.068125
 H 0.0903 0.306 0.6626   0.080482
 H 0.8742 0.2811 0.7017   0.026491
 C 0.82 0.0374 0.1661   -0.419587
 C 0.923 0.0627 0.2785   0.056933
 C 0.092 0.1043 0.3296   -0.134328
 C 0.143 0.2168 0.3228   -0.153492
 C 0.209 0.2361 0.2555   -0.153019
 C 0.03 0.1855 0.2036   0.03273
 C 0.323 0.2618 0.3738   0.712335
 C 0.18 0.5374 0.3339   -0.419587
 C 0.077 0.5627 0.2215   0.056932
 C 0.908 0.6043 0.1704   -0.134328
 C 0.857 0.7168 0.1772   -0.153491
 C 0.791 0.7361 0.2445   -0.153019
 C 0.97 0.6855 0.2964   0.03273
 C 0.677 0.7618 0.1262   0.712335
 C 0.18 0.9626 0.8339   -0.419587
 C 0.077 0.9373 0.7215   0.056933
 C 0.908 0.8957 0.6704   -0.134328
 C 0.857 0.7832 0.6772   -0.153492
 C 0.791 0.7639 0.7445   -0.153019
 C 0.97 0.8145 0.7964   0.03273
 C 0.677 0.7382 0.6262   0.712335
 C 0.82 0.4626 0.6661   -0.419587
 C 0.923 0.4373 0.7785   0.056932
 C 0.092 0.3957 0.8296   -0.134328
 C 0.143 0.2832 0.8228   -0.153491
 C 0.209 0.2639 0.7555   -0.153019
 C 0.03 0.3145 0.7036   0.03273
 C 0.323 0.2382 0.8738   0.712335
 N 0.996 0.0786 0.2148   -0.257783
 N 0.004 0.5786 0.2852   -0.257783
 N 0.004 0.9214 0.7852   -0.257783
 N 0.996 0.4214 0.7148   -0.257783
 O 0.6865 0.9829 0.0449   -1.128747
 O 0.9626 0.1239 0.0581   -0.991709
 O 0.1282 0.9539 0.0898   -0.933391
 O 0.296 0.2435 0.431   -0.785503
 O 0.498 0.3145 0.3603   -0.693207
 O 0.3135 0.4829 0.4551   -1.128747
 O 0.0374 0.6239 0.4419   -0.991709
 O 0.8718 0.4539 0.4102   -0.933391
 O 0.704 0.7435 0.069   -0.785503
 O 0.502 0.8145 0.1397   -0.693207
 O 0.3135 0.0171 0.9551   -1.128747
 O 0.0374 0.8761 0.9419   -0.991709
 O 0.8718 0.0461 0.9102   -0.933391
 O 0.704 0.7565 0.569   -0.785503
 O 0.502 0.6855 0.6397   -0.693207
 O 0.6865 0.5171 0.5449   -1.128747
 O 0.9626 0.3761 0.5581   -0.991709
 O 0.1282 0.5461 0.5898   -0.933391
 O 0.296 0.2565 0.931   -0.785503
 O 0.498 0.1855 0.8603   -0.693207
