{'_ref': 'TBD', '_srcid': 'CAKYAQ_clean', 'submitters': [{'name': 'Dalar Nazarian Jeff Camp and David Sholl', 'email': 'dalar@gatech.edu jcamp6@gatech.edu'}], '_method': 'VASP DFT with PBE;DDEC'}
data_NiH14C22(NO)4
_symmetry_space_group_name_H-M   'P 1'
_cell_length_a   12.72220000
_cell_length_b   22.31630000
_cell_length_c   22.31630000
_cell_angle_alpha   90.00000000
_cell_angle_beta   90.00000000
_cell_angle_gamma   90.00000000
_symmetry_Int_Tables_number   1
_chemical_formula_structural   NiH14C22(NO)4
_chemical_formula_sum   'Ni8 H112 C176 N32 O32'
_cell_volume   6335.87500312
_cell_formula_units_Z   8
loop_
 _symmetry_equiv_pos_site_id
 _symmetry_equiv_pos_as_xyz
  1  'x, y, z'
loop_
 _atom_site_label
 _atom_site_fract_x
 _atom_site_fract_y
 _atom_site_fract_z
 _atom_site_charge
 Ni 0.24839 0.26077 0.747136   0.723672
 Ni 0.24839 0.73923 0.252864   0.723672
 Ni 0.24839 0.752864 0.76077   0.723672
 Ni 0.24839 0.247136 0.23923   0.723672
 Ni 0.75161 0.23923 0.247136   0.723672
 Ni 0.75161 0.76077 0.752864   0.723672
 Ni 0.75161 0.747136 0.26077   0.723672
 Ni 0.75161 0.252864 0.73923   0.723672
 H 0.7462 0.9704 0.7726   0.090212
 H 0.7462 0.0296 0.2274   0.090212
 H 0.7462 0.7274 0.4704   0.090212
 H 0.7462 0.2726 0.5296   0.090212
 H 0.2538 0.5296 0.2726   0.090212
 H 0.2538 0.4704 0.7274   0.090212
 H 0.2538 0.7726 0.9704   0.090212
 H 0.2538 0.2274 0.0296   0.090212
 H 0.8402 0.0609 0.7674   0.118444
 H 0.8402 0.9391 0.2326   0.118444
 H 0.8402 0.7326 0.5609   0.118444
 H 0.8402 0.2674 0.4391   0.118444
 H 0.1598 0.4391 0.2674   0.118444
 H 0.1598 0.5609 0.7326   0.118444
 H 0.1598 0.7674 0.0609   0.118444
 H 0.1598 0.2326 0.9391   0.118444
 H 0.0194 0.8848 0.7972   0.068342
 H 0.0194 0.1152 0.2028   0.068342
 H 0.0194 0.7028 0.3848   0.068342
 H 0.0194 0.2972 0.6152   0.068342
 H 0.9806 0.6152 0.2972   0.068342
 H 0.9806 0.3848 0.7028   0.068342
 H 0.9806 0.7972 0.8848   0.068342
 H 0.9806 0.2028 0.1152   0.068342
 H 0.9401 0.1258 0.7244   0.135928
 H 0.9401 0.8742 0.2756   0.135928
 H 0.9401 0.7756 0.6258   0.135928
 H 0.9401 0.2244 0.3742   0.135928
 H 0.0599 0.3742 0.2244   0.135928
 H 0.0599 0.6258 0.7756   0.135928
 H 0.0599 0.7244 0.1258   0.135928
 H 0.0599 0.2756 0.8742   0.135928
 H 0.0426 0.211 0.7126   0.088395
 H 0.0426 0.789 0.2874   0.088395
 H 0.0426 0.7874 0.711   0.088395
 H 0.0426 0.2126 0.289   0.088395
 H 0.9574 0.289 0.2126   0.088395
 H 0.9574 0.711 0.7874   0.088395
 H 0.9574 0.7126 0.211   0.088395
 H 0.9574 0.2874 0.789   0.088395
 H 0.2714 0.1391 0.8067   0.087973
 H 0.2714 0.8609 0.1933   0.087973
 H 0.2714 0.6933 0.6391   0.087973
 H 0.2714 0.3067 0.3609   0.087973
 H 0.7286 0.3609 0.3067   0.087973
 H 0.7286 0.6391 0.6933   0.087973
 H 0.7286 0.8067 0.1391   0.087973
 H 0.7286 0.1933 0.8609   0.087973
 H 0.1753 0.0512 0.8185   0.129906
 H 0.1753 0.9488 0.1815   0.129906
 H 0.1753 0.6815 0.5512   0.129906
 H 0.1753 0.3185 0.4488   0.129906
 H 0.8247 0.4488 0.3185   0.129906
 H 0.8247 0.5512 0.6815   0.129906
 H 0.8247 0.8185 0.0512   0.129906
 H 0.8247 0.1815 0.9488   0.129906
 H 0.6957 0.1781 0.4444   0.099253
 H 0.6957 0.8219 0.5556   0.099253
 H 0.6957 0.0556 0.6781   0.099253
 H 0.6957 0.9444 0.3219   0.099253
 H 0.3043 0.3219 0.9444   0.099253
 H 0.3043 0.6781 0.0556   0.099253
 H 0.3043 0.4444 0.1781   0.099253
 H 0.3043 0.5556 0.8219   0.099253
 H 0.5975 0.1764 0.5319   0.1262
 H 0.5975 0.8236 0.4681   0.1262
 H 0.5975 0.9681 0.6764   0.1262
 H 0.5975 0.0319 0.3236   0.1262
 H 0.4025 0.3236 0.0319   0.1262
 H 0.4025 0.6764 0.9681   0.1262
 H 0.4025 0.5319 0.1764   0.1262
 H 0.4025 0.4681 0.8236   0.1262
 H 0.4814 0.2857 0.3715   0.076129
 H 0.4814 0.7143 0.6285   0.076129
 H 0.4814 0.1285 0.7857   0.076129
 H 0.4814 0.8715 0.2143   0.076129
 H 0.5186 0.2143 0.8715   0.076129
 H 0.5186 0.7857 0.1285   0.076129
 H 0.5186 0.3715 0.2857   0.076129
 H 0.5186 0.6285 0.7143   0.076129
 H 0.5476 0.2146 0.6138   0.130145
 H 0.5476 0.7854 0.3862   0.130145
 H 0.5476 0.8862 0.7146   0.130145
 H 0.5476 0.1138 0.2854   0.130145
 H 0.4524 0.2854 0.1138   0.130145
 H 0.4524 0.7146 0.8862   0.130145
 H 0.4524 0.6138 0.2146   0.130145
 H 0.4524 0.3862 0.7854   0.130145
 H 0.4534 0.2217 0.7023   0.076284
 H 0.4534 0.7783 0.2977   0.076284
 H 0.4534 0.7977 0.7217   0.076284
 H 0.4534 0.2023 0.2783   0.076284
 H 0.5466 0.2783 0.2023   0.076284
 H 0.5466 0.7217 0.7977   0.076284
 H 0.5466 0.7023 0.2217   0.076284
 H 0.5466 0.2977 0.7783   0.076284
 H 0.197 0.2608 0.6145   0.072576
 H 0.197 0.7392 0.3855   0.072576
 H 0.197 0.8855 0.7608   0.072576
 H 0.197 0.1145 0.2392   0.072576
 H 0.803 0.2392 0.1145   0.072576
 H 0.803 0.7608 0.8855   0.072576
 H 0.803 0.6145 0.2608   0.072576
 H 0.803 0.3855 0.7392   0.072576
 H 0.2804 0.2489 0.524   0.120928
 H 0.2804 0.7511 0.476   0.120928
 H 0.2804 0.976 0.7489   0.120928
 H 0.2804 0.024 0.2511   0.120928
 H 0.7196 0.2511 0.024   0.120928
 H 0.7196 0.7489 0.976   0.120928
 H 0.7196 0.524 0.2489   0.120928
 H 0.7196 0.476 0.7511   0.120928
 C 0.8215 0.85892 0.77718   0.634207
 C 0.8215 0.14108 0.22282   0.634207
 C 0.8215 0.72282 0.35892   0.634207
 C 0.8215 0.27718 0.64108   0.634207
 C 0.1785 0.64108 0.27718   0.634207
 C 0.1785 0.35892 0.72282   0.634207
 C 0.1785 0.77718 0.85892   0.634207
 C 0.1785 0.22282 0.14108   0.634207
 C 0.8761 0.91804 0.78179   -0.201418
 C 0.8761 0.08196 0.21821   -0.201418
 C 0.8761 0.71821 0.41804   -0.201418
 C 0.8761 0.28179 0.58196   -0.201418
 C 0.1239 0.58196 0.28179   -0.201418
 C 0.1239 0.41804 0.71821   -0.201418
 C 0.1239 0.78179 0.91804   -0.201418
 C 0.1239 0.21821 0.08196   -0.201418
 C 0.8207 0.97067 0.7754   0.039502
 C 0.8207 0.02933 0.2246   0.039502
 C 0.8207 0.7246 0.47067   0.039502
 C 0.8207 0.2754 0.52933   0.039502
 C 0.1793 0.52933 0.2754   0.039502
 C 0.1793 0.47067 0.7246   0.039502
 C 0.1793 0.7754 0.97067   0.039502
 C 0.1793 0.2246 0.02933   0.039502
 C 0.8762 0.02405 0.7731   -0.210113
 C 0.8762 0.97595 0.2269   -0.210113
 C 0.8762 0.7269 0.52405   -0.210113
 C 0.8762 0.2731 0.47595   -0.210113
 C 0.1238 0.47595 0.2731   -0.210113
 C 0.1238 0.52405 0.7269   -0.210113
 C 0.1238 0.7731 0.02405   -0.210113
 C 0.1238 0.2269 0.97595   -0.210113
 C 0.9838 0.02342 0.7793   0.26022
 C 0.9838 0.97658 0.2207   0.26022
 C 0.9838 0.7207 0.52342   0.26022
 C 0.9838 0.2793 0.47658   0.26022
 C 0.0162 0.47658 0.2793   0.26022
 C 0.0162 0.52342 0.7207   0.26022
 C 0.0162 0.7793 0.02342   0.26022
 C 0.0162 0.2207 0.97658   0.26022
 C 0.9821 0.92106 0.79022   0.201839
 C 0.9821 0.07894 0.20978   0.201839
 C 0.9821 0.70978 0.42106   0.201839
 C 0.9821 0.29022 0.57894   0.201839
 C 0.0179 0.57894 0.29022   0.20184
 C 0.0179 0.42106 0.70978   0.20184
 C 0.0179 0.79022 0.92106   0.20184
 C 0.0179 0.20978 0.07894   0.20184
 C 0.0466 0.07908 0.7732   0.06342
 C 0.0466 0.92092 0.2268   0.06342
 C 0.0466 0.7268 0.57908   0.06342
 C 0.0466 0.2732 0.42092   0.06342
 C 0.9534 0.42092 0.2732   0.06342
 C 0.9534 0.57908 0.7268   0.06342
 C 0.9534 0.7732 0.07908   0.06342
 C 0.9534 0.2268 0.92092   0.06342
 C 0.0084 0.12729 0.7415   -0.178235
 C 0.0084 0.87271 0.2585   -0.178235
 C 0.0084 0.7585 0.62729   -0.178235
 C 0.0084 0.2415 0.37271   -0.178235
 C 0.9916 0.37271 0.2415   -0.178235
 C 0.9916 0.62729 0.7585   -0.178235
 C 0.9916 0.7415 0.12729   -0.178235
 C 0.9916 0.2585 0.87271   -0.178235
 C 0.0701 0.17809 0.73464   0.148597
 C 0.0701 0.82191 0.26536   0.148597
 C 0.0701 0.76536 0.67809   0.148597
 C 0.0701 0.23464 0.32191   0.148597
 C 0.9299 0.32191 0.23464   0.148597
 C 0.9299 0.67809 0.76536   0.148597
 C 0.9299 0.73464 0.17809   0.148597
 C 0.9299 0.26536 0.82191   0.148597
 C 0.2036 0.13619 0.7891   0.143748
 C 0.2036 0.86381 0.2109   0.143749
 C 0.2036 0.7109 0.63619   0.143748
 C 0.2036 0.2891 0.36381   0.143749
 C 0.7964 0.36381 0.2891   0.143748
 C 0.7964 0.63619 0.7109   0.143749
 C 0.7964 0.7891 0.13619   0.143748
 C 0.7964 0.2109 0.86381   0.143748
 C 0.1459 0.08379 0.7968   -0.171094
 C 0.1459 0.91621 0.2032   -0.171094
 C 0.1459 0.7032 0.58379   -0.171094
 C 0.1459 0.2968 0.41621   -0.171094
 C 0.8541 0.41621 0.2968   -0.171094
 C 0.8541 0.58379 0.7032   -0.171094
 C 0.8541 0.7968 0.08379   -0.171094
 C 0.8541 0.2032 0.91621   -0.171094
 C 0.6627 0.23693 0.34362   0.624291
 C 0.6627 0.76307 0.65638   0.624291
 C 0.6627 0.15638 0.73693   0.624291
 C 0.6627 0.84362 0.26307   0.624291
 C 0.3373 0.26307 0.84362   0.624291
 C 0.3373 0.73693 0.15638   0.624291
 C 0.3373 0.34362 0.23693   0.624291
 C 0.3373 0.65638 0.76307   0.624291
 C 0.6 0.23263 0.40007   -0.207863
 C 0.6 0.76737 0.59993   -0.207863
 C 0.6 0.09993 0.73263   -0.207863
 C 0.6 0.90007 0.26737   -0.207863
 C 0.4 0.26737 0.90007   -0.207863
 C 0.4 0.73263 0.09993   -0.207863
 C 0.4 0.40007 0.23263   -0.207863
 C 0.4 0.59993 0.76737   -0.207863
 C 0.6323 0.2004 0.44692   0.038979
 C 0.6323 0.7996 0.55308   0.038979
 C 0.6323 0.05308 0.7004   0.038979
 C 0.6323 0.94692 0.2996   0.038979
 C 0.3677 0.2996 0.94692   0.038979
 C 0.3677 0.7004 0.05308   0.038979
 C 0.3677 0.44692 0.2004   0.038979
 C 0.3677 0.55308 0.7996   0.038979
 C 0.5742 0.1995 0.49867   -0.207567
 C 0.5742 0.8005 0.50133   -0.207567
 C 0.5742 0.00133 0.6995   -0.207567
 C 0.5742 0.99867 0.3005   -0.207567
 C 0.4258 0.3005 0.99867   -0.207567
 C 0.4258 0.6995 0.00133   -0.207567
 C 0.4258 0.49867 0.1995   -0.207567
 C 0.4258 0.50133 0.8005   -0.207567
 C 0.4849 0.2309 0.50245   0.279679
 C 0.4849 0.7691 0.49755   0.279679
 C 0.4849 0.99755 0.7309   0.279679
 C 0.4849 0.00245 0.2691   0.279679
 C 0.5151 0.2691 0.00245   0.279679
 C 0.5151 0.7309 0.99755   0.279679
 C 0.5151 0.50245 0.2309   0.279679
 C 0.5151 0.49755 0.7691   0.279679
 C 0.5059 0.2628 0.40455   0.204245
 C 0.5059 0.7372 0.59545   0.204245
 C 0.5059 0.09545 0.7628   0.204245
 C 0.5059 0.90455 0.2372   0.204245
 C 0.4941 0.2372 0.90455   0.204245
 C 0.4941 0.7628 0.09545   0.204245
 C 0.4941 0.40455 0.2628   0.204245
 C 0.4941 0.59545 0.7372   0.204245
 C 0.4246 0.23306 0.55896   0.0625
 C 0.4246 0.76694 0.44104   0.0625
 C 0.4246 0.94104 0.73306   0.0625
 C 0.4246 0.05896 0.26694   0.0625
 C 0.5754 0.26694 0.05896   0.0625
 C 0.5754 0.73306 0.94104   0.0625
 C 0.5754 0.55896 0.23306   0.0625
 C 0.5754 0.44104 0.76694   0.0625
 C 0.4748 0.224 0.6128   -0.183828
 C 0.4748 0.776 0.3872   -0.183828
 C 0.4748 0.8872 0.724   -0.183828
 C 0.4748 0.1128 0.276   -0.183828
 C 0.5252 0.276 0.1128   -0.183828
 C 0.5252 0.724 0.8872   -0.183828
 C 0.5252 0.6128 0.224   -0.183828
 C 0.5252 0.3872 0.776   -0.183828
 C 0.4182 0.22861 0.6654   0.161437
 C 0.4182 0.77139 0.3346   0.161437
 C 0.4182 0.8346 0.72861   0.161437
 C 0.4182 0.1654 0.27139   0.161437
 C 0.5818 0.27139 0.1654   0.161437
 C 0.5818 0.72861 0.8346   0.161437
 C 0.5818 0.6654 0.22861   0.161437
 C 0.5818 0.3346 0.77139   0.161437
 C 0.2694 0.2504 0.61447   0.155268
 C 0.2694 0.7496 0.38553   0.155268
 C 0.2694 0.88553 0.7504   0.155268
 C 0.2694 0.11447 0.2496   0.155268
 C 0.7306 0.2496 0.11447   0.155268
 C 0.7306 0.7504 0.88553   0.155268
 C 0.7306 0.61447 0.2504   0.155268
 C 0.7306 0.38553 0.7496   0.155268
 C 0.3189 0.2448 0.56022   -0.167798
 C 0.3189 0.7552 0.43978   -0.167798
 C 0.3189 0.93978 0.7448   -0.167798
 C 0.3189 0.06022 0.2552   -0.167798
 C 0.6811 0.2552 0.06022   -0.167798
 C 0.6811 0.7448 0.93978   -0.167798
 C 0.6811 0.56022 0.2448   -0.167798
 C 0.6811 0.43978 0.7552   -0.167798
 N 0.0373 0.97312 0.78918   -0.411464
 N 0.0373 0.02688 0.21082   -0.411464
 N 0.0373 0.71082 0.47312   -0.411464
 N 0.0373 0.28918 0.52688   -0.411464
 N 0.9627 0.52688 0.28918   -0.411464
 N 0.9627 0.47312 0.71082   -0.411464
 N 0.9627 0.78918 0.97312   -0.411464
 N 0.9627 0.21082 0.02688   -0.411464
 N 0.16625 0.1826 0.75761   -0.315522
 N 0.16625 0.8174 0.24239   -0.315522
 N 0.16625 0.74239 0.6826   -0.315522
 N 0.16625 0.25761 0.3174   -0.315522
 N 0.83375 0.3174 0.25761   -0.315522
 N 0.83375 0.6826 0.74239   -0.315522
 N 0.83375 0.75761 0.1826   -0.315522
 N 0.83375 0.24239 0.8174   -0.315522
 N 0.4474 0.2604 0.45566   -0.429436
 N 0.4474 0.7396 0.54434   -0.429436
 N 0.4474 0.04434 0.7604   -0.429436
 N 0.4474 0.95566 0.2396   -0.429436
 N 0.5526 0.2396 0.95566   -0.429436
 N 0.5526 0.7604 0.04434   -0.429436
 N 0.5526 0.45566 0.2604   -0.429436
 N 0.5526 0.54434 0.7396   -0.429436
 N 0.3162 0.2423 0.66666   -0.304991
 N 0.3162 0.7577 0.33334   -0.304991
 N 0.3162 0.83334 0.7423   -0.304991
 N 0.3162 0.16666 0.2577   -0.304991
 N 0.6838 0.2577 0.16666   -0.304991
 N 0.6838 0.7423 0.83334   -0.304991
 N 0.6838 0.66666 0.2423   -0.304991
 N 0.6838 0.33334 0.7577   -0.304991
 O 0.87537 0.81171 0.78201   -0.536257
 O 0.87537 0.18829 0.21799   -0.536257
 O 0.87537 0.71799 0.31171   -0.536257
 O 0.87537 0.28201 0.68829   -0.536257
 O 0.12463 0.68829 0.28201   -0.536257
 O 0.12463 0.31171 0.71799   -0.536257
 O 0.12463 0.78201 0.81171   -0.536257
 O 0.12463 0.21799 0.18829   -0.536257
 O 0.72517 0.85642 0.76517   -0.550248
 O 0.72517 0.14358 0.23483   -0.550248
 O 0.72517 0.73483 0.35642   -0.550248
 O 0.72517 0.26517 0.64358   -0.550248
 O 0.27483 0.64358 0.26517   -0.550248
 O 0.27483 0.35642 0.73483   -0.550248
 O 0.27483 0.76517 0.85642   -0.550248
 O 0.27483 0.23483 0.14358   -0.550248
 O 0.75538 0.21768 0.34273   -0.553751
 O 0.75538 0.78232 0.65727   -0.553751
 O 0.75538 0.15727 0.71768   -0.553751
 O 0.75538 0.84273 0.28232   -0.553751
 O 0.24462 0.28232 0.84273   -0.553751
 O 0.24462 0.71768 0.15727   -0.553751
 O 0.24462 0.34273 0.21768   -0.553751
 O 0.24462 0.65727 0.78232   -0.553751
 O 0.62287 0.26071 0.29765   -0.532735
 O 0.62287 0.73929 0.70235   -0.532735
 O 0.62287 0.20235 0.76071   -0.532735
 O 0.62287 0.79765 0.23929   -0.532735
 O 0.37713 0.23929 0.79765   -0.532735
 O 0.37713 0.76071 0.20235   -0.532735
 O 0.37713 0.29765 0.26071   -0.532735
 O 0.37713 0.70235 0.73929   -0.532735
