{'_ref': 'TBD', '_srcid': 'CAKYAQ_clean', 'submitters': [{'name': 'Dalar Nazarian Jeff Camp and David Sholl', 'email': 'dalar@gatech.edu jcamp6@gatech.edu'}], '_method': 'VASP DFT with PBE;DDEC'}
data_LaH9(C2O)6
_symmetry_space_group_name_H-M   'P 1'
_cell_length_a   8.61800030
_cell_length_b   11.02800048
_cell_length_c   11.12600000
_cell_angle_alpha   64.05999914
_cell_angle_beta   80.56999853
_cell_angle_gamma   73.21000085
_symmetry_Int_Tables_number   1
_chemical_formula_structural   LaH9(C2O)6
_chemical_formula_sum   'La2 H18 C24 O12'
_cell_volume   909.477123054
_cell_formula_units_Z   2
loop_
 _symmetry_equiv_pos_site_id
 _symmetry_equiv_pos_as_xyz
  1  'x, y, z'
loop_
 _atom_site_label
 _atom_site_fract_x
 _atom_site_fract_y
 _atom_site_fract_z
 _atom_site_charge
 La 0.75348 0.49366 0.99858   2.170067
 La 0.24652 0.50634 0.00142   2.170065
 H 0.7459 0.5524 0.4741   0.123196
 H 0.4052 0.8894 0.4839   0.12031
 H 0.7404 0.9345 0.178   0.122739
 H 0.9877 0.6004 0.3104   0.162771
 H 0.9626 0.7449 0.1808   0.153036
 H 0.3771 0.6684 0.6384   0.132031
 H 0.4821 0.5325 0.6185   0.165683
 H 0.439 0.1212 0.3301   0.133371
 H 0.5698 0.1394 0.2078   0.108931
 H 0.2541 0.4476 0.5259   0.123195
 H 0.5948 0.1106 0.5161   0.120312
 H 0.2596 0.0655 0.822   0.122739
 H 0.0123 0.3996 0.6896   0.162771
 H 0.0374 0.2551 0.8192   0.153036
 H 0.6229 0.3316 0.3616   0.132031
 H 0.5179 0.4675 0.3815   0.165684
 H 0.561 0.8788 0.6699   0.133372
 H 0.4302 0.8606 0.7922   0.108931
 C 0.7661 0.735 0.3151   0.15815
 C 0.6989 0.6497 0.4352   -0.23834
 C 0.5639 0.707 0.4974   0.152786
 C 0.4967 0.85 0.4406   -0.244347
 C 0.562 0.9364 0.3206   0.177525
 C 0.6956 0.8768 0.2598   -0.224061
 C 0.9083 0.6715 0.2437   -0.404625
 C 0.8596 0.6048 0.1673   0.828568
 C 0.489 0.6169 0.6262   -0.392432
 C 0.5817 0.5726 0.7495   0.80617
 C 0.4845 0.0899 0.2579   -0.396592
 C 0.35 0.1322 0.1631   0.803663
 C 0.2339 0.265 0.6849   0.158149
 C 0.3011 0.3503 0.5648   -0.23834
 C 0.4361 0.293 0.5026   0.152786
 C 0.5033 0.15 0.5594   -0.244347
 C 0.438 0.0636 0.6794   0.177526
 C 0.3044 0.1232 0.7402   -0.224061
 C 0.0917 0.3285 0.7563   -0.404625
 C 0.1404 0.3952 0.8327   0.828568
 C 0.511 0.3831 0.3738   -0.392433
 C 0.4183 0.4274 0.2505   0.80617
 C 0.5155 0.9101 0.7421   -0.396592
 C 0.65 0.8678 0.8369   0.803663
 O 0.7192 0.591 0.177   -0.624517
 O 0.9681 0.5622 0.0913   -0.881132
 O 0.5022 0.5484 0.8629   -0.886532
 O 0.7312 0.5579 0.7436   -0.620714
 O 0.2778 0.2598 0.1181   -0.800808
 O 0.3166 0.0458 0.1361   -0.604896
 O 0.2808 0.409 0.823   -0.624517
 O 0.0319 0.4378 0.9087   -0.881133
 O 0.4978 0.4516 0.1371   -0.886532
 O 0.2688 0.4421 0.2564   -0.620714
 O 0.7222 0.7402 0.8819   -0.800808
 O 0.6834 0.9542 0.8639   -0.604896
