{'_ref': 'TBD', '_srcid': 'CAKYAQ_clean', 'submitters': [{'name': 'Dalar Nazarian Jeff Camp and David Sholl', 'email': 'dalar@gatech.edu jcamp6@gatech.edu'}], '_method': 'VASP DFT with PBE;DDEC'}
data_CeH9(C2O)6
_symmetry_space_group_name_H-M   'P 1'
_cell_length_a   8.58199962
_cell_length_b   10.95599983
_cell_length_c   11.21700000
_cell_angle_alpha   64.16999953
_cell_angle_beta   79.97999781
_cell_angle_gamma   73.43099789
_symmetry_Int_Tables_number   1
_chemical_formula_structural   CeH9(C2O)6
_chemical_formula_sum   'Ce2 H18 C24 O12'
_cell_volume   908.368614018
_cell_formula_units_Z   2
loop_
 _symmetry_equiv_pos_site_id
 _symmetry_equiv_pos_as_xyz
  1  'x, y, z'
loop_
 _atom_site_label
 _atom_site_fract_x
 _atom_site_fract_y
 _atom_site_fract_z
 _atom_site_charge
 Ce 0.748 0.50266 0.00324   2.261113
 Ce 0.252 0.49734 0.99676   2.261109
 H 0.093 0.1091 0.5159   0.12437
 H 0.7633 0.0685 0.8274   0.125213
 H 0.7517 0.4481 0.521   0.124943
 H 0.1179 0.3282 0.3556   0.133849
 H 0.0159 0.466 0.3739   0.17581
 H 0.0582 0.8749 0.6745   0.12879
 H 0.9331 0.8567 0.8012   0.106675
 H 0.5178 0.4112 0.6819   0.17123
 H 0.5277 0.2662 0.8091   0.152111
 H 0.907 0.8909 0.4841   0.124372
 H 0.2367 0.9315 0.1726   0.125213
 H 0.2483 0.5519 0.479   0.124942
 H 0.8821 0.6718 0.6444   0.133848
 H 0.9841 0.534 0.6261   0.175811
 H 0.9418 0.1251 0.3255   0.12879
 H 0.0669 0.1433 0.1988   0.106676
 H 0.4822 0.5888 0.3181   0.171229
 H 0.4723 0.7338 0.1909   0.152111
 C 0.9337 0.2915 0.5018   0.152444
 C 0.0014 0.15 0.5586   -0.238938
 C 0.933 0.066 0.6816   0.162576
 C 0.8047 0.125 0.743   -0.219762
 C 0.7311 0.2684 0.6845   0.158665
 C 0.799 0.3508 0.5622   -0.238679
 C 0.0062 0.3807 0.3684   -0.386233
 C 0.9164 0.4254 0.246   0.778721
 C 0.0159 0.9082 0.7457   -0.393078
 C 0.158 0.8743 0.8323   0.819457
 C 0.5904 0.3361 0.7505   -0.398899
 C 0.6402 0.3979 0.8326   0.82529
 C 0.0663 0.7085 0.4982   0.152444
 C 0.9986 0.85 0.4414   -0.238939
 C 0.067 0.934 0.3184   0.162577
 C 0.1953 0.875 0.257   -0.219761
 C 0.2689 0.7316 0.3155   0.158665
 C 0.201 0.6492 0.4378   -0.238678
 C 0.9938 0.6193 0.6316   -0.386233
 C 0.0836 0.5746 0.754   0.778721
 C 0.9841 0.0918 0.2543   -0.393078
 C 0.842 0.1257 0.1677   0.819458
 C 0.4096 0.6639 0.2495   -0.398899
 C 0.3598 0.6021 0.1674   0.82529
 O 0.7541 0.4475 0.2494   -0.654533
 O 0.9919 0.4569 0.1306   -0.882579
 O 0.2216 0.7435 0.8841   -0.842483
 O 0.1934 0.9606 0.8539   -0.590143
 O 0.7826 0.4156 0.8225   -0.650093
 O 0.5288 0.4432 0.9077   -0.905838
 O 0.2459 0.5525 0.7506   -0.654533
 O 0.0081 0.5431 0.8694   -0.88258
 O 0.7784 0.2565 0.1159   -0.842483
 O 0.8066 0.0394 0.1461   -0.590142
 O 0.2174 0.5844 0.1775   -0.650093
 O 0.4712 0.5568 0.0923   -0.905838
