{'_ref': 'TBD', '_srcid': 'CAKYAQ_clean', 'submitters': [{'name': 'Dalar Nazarian Jeff Camp and David Sholl', 'email': 'dalar@gatech.edu jcamp6@gatech.edu'}], '_method': 'VASP DFT with PBE;DDEC'}
data_PrH9(C2O)6
_symmetry_space_group_name_H-M   'P 1'
_cell_length_a   8.54100012
_cell_length_b   10.90899988
_cell_length_c   11.19800000
_cell_angle_alpha   64.15300058
_cell_angle_beta   79.90199802
_cell_angle_gamma   73.71099949
_symmetry_Int_Tables_number   1
_chemical_formula_structural   PrH9(C2O)6
_chemical_formula_sum   'Pr2 H18 C24 O12'
_cell_volume   899.590831813
_cell_formula_units_Z   2
loop_
 _symmetry_equiv_pos_site_id
 _symmetry_equiv_pos_as_xyz
  1  'x, y, z'
loop_
 _atom_site_label
 _atom_site_fract_x
 _atom_site_fract_y
 _atom_site_fract_z
 _atom_site_charge
 Pr 0.75192 0.49704 0.49658   2.158087
 Pr 0.24808 0.50296 0.50342   2.15817
 H 0.7496 0.5527 0.9771   0.121986
 H 0.4068 0.8895 0.9876   0.121728
 H 0.7356 0.9336 0.6752   0.123308
 H 0.9657 0.7441 0.6844   0.150094
 H 0.9844 0.5976 0.8111   0.160851
 H 0.3785 0.67 0.1447   0.131622
 H 0.4805 0.5314 0.1267   0.167319
 H 0.5653 0.1414 0.7052   0.108142
 H 0.4341 0.1224 0.8286   0.134801
 H 0.2504 0.4473 0.0229   0.121981
 H 0.5932 0.1105 0.0124   0.121732
 H 0.2644 0.0664 0.3248   0.123309
 H 0.0343 0.2559 0.3156   0.150094
 H 0.0156 0.4024 0.1889   0.160846
 H 0.6215 0.33 0.8553   0.131625
 H 0.5195 0.4686 0.8733   0.167309
 H 0.4347 0.8586 0.2948   0.108142
 H 0.5659 0.8776 0.1714   0.134796
 C 0.7676 0.7332 0.815   0.167309
 C 0.7009 0.65 0.9371   -0.233864
 C 0.5663 0.7056 0.000799999999998   0.154305
 C 0.4976 0.8496 0.9432   -0.239281
 C 0.5613 0.9349 0.8211   0.172849
 C 0.6933 0.8757 0.759   -0.22194
 C 0.9075 0.6705 0.7447   -0.401706
 C 0.8621 0.6049 0.6632   0.829226
 C 0.4904 0.6173 0.1318   -0.391349
 C 0.5848 0.5743 0.2538   0.803692
 C 0.4798 0.0901 0.7569   -0.390841
 C 0.3458 0.1309 0.6665   0.80515
 C 0.2324 0.2668 0.185   0.167309
 C 0.2991 0.35 0.0629   -0.233862
 C 0.4337 0.2944 0.9992   0.154305
 C 0.5024 0.1504 0.0568   -0.239283
 C 0.4387 0.0651 0.1789   0.172849
 C 0.3067 0.1243 0.241   -0.221942
 C 0.0925 0.3295 0.2553   -0.401704
 C 0.1379 0.3951 0.3368   0.829223
 C 0.5096 0.3827 0.8682   -0.391346
 C 0.4152 0.4257 0.7462   0.803691
 C 0.5202 0.9099 0.2431   -0.390839
 C 0.6542 0.8691 0.3335   0.805145
 O 0.9695 0.5629 0.5884   -0.88731
 O 0.718 0.5924 0.6735   -0.634547
 O 0.7345 0.5635 0.244   -0.618615
 O 0.5033 0.5479 0.3662   -0.904091
 O 0.276 0.2594 0.6151   -0.788903
 O 0.3054 0.0385 0.6501   -0.598054
 O 0.0305 0.4371 0.4116   -0.88731
 O 0.282 0.4076 0.3265   -0.634547
 O 0.2655 0.4365 0.756   -0.618616
 O 0.4967 0.4521 0.6338   -0.904092
 O 0.724 0.7406 0.3849   -0.788898
 O 0.6946 0.9615 0.3499   -0.598057
