{'_ref': 'TBD', '_srcid': 'CAKYAQ_clean', 'submitters': [{'name': 'Dalar Nazarian Jeff Camp and David Sholl', 'email': 'dalar@gatech.edu jcamp6@gatech.edu'}], '_method': 'VASP DFT with PBE;DDEC'}
data_CeH9(C2O)6
_symmetry_space_group_name_H-M   'P 1'
_cell_length_a   11.81200028
_cell_length_b   12.44400023
_cell_length_c   12.52200000
_cell_angle_alpha   118.94900105
_cell_angle_beta   108.30000011
_cell_angle_gamma   98.38699728
_symmetry_Int_Tables_number   1
_chemical_formula_structural   CeH9(C2O)6
_chemical_formula_sum   'Ce4 H36 C48 O24'
_cell_volume   1427.51087635
_cell_formula_units_Z   4
loop_
 _symmetry_equiv_pos_site_id
 _symmetry_equiv_pos_as_xyz
  1  'x, y, z'
loop_
 _atom_site_label
 _atom_site_fract_x
 _atom_site_fract_y
 _atom_site_fract_z
 _atom_site_charge
 Ce 0.52169 0.82224 0.99015   2.317195
 Ce 0.8027 0.75667 0.23604   2.271687
 Ce 0.47831 0.17776 0.00985   2.317197
 Ce 0.1973 0.24333 0.76396   2.271688
 H 0.4072 0.5552 0.205   0.129039
 H 0.1513 0.5102 0.3443   0.12567
 H 0.3421 0.873 0.4476   0.116996
 H 0.5082 0.9084 0.3951   0.132577
 H 0.5814 0.8083 0.3832   0.136452
 H 0.31 0.345 0.2229   0.151259
 H 0.1611 0.3219 0.1771   0.143882
 H 0.153 0.7181 0.5385   0.135543
 H 0.2208 0.8584 0.5697   0.143142
 H 0.4346 0.3035 0.4824   0.109293
 H 0.1234 0.9918 0.1625   0.122991
 H 0.0879 0.3274 0.4193   0.123073
 H 0.2736 0.5218 0.5918   0.150858
 H 0.412 0.5181 0.606   0.161691
 H 0.4452 0.0798 0.3454   0.141646
 H 0.3231 0.9675 0.2056   0.164807
 H 0.9254 0.0325 0.0835   0.144473
 H 0.9121 0.1664 0.1827   0.140815
 H 0.5928 0.4448 0.795   0.129039
 H 0.8487 0.4898 0.6557   0.12567
 H 0.6579 0.127 0.5524   0.11699
 H 0.4918 0.0916 0.6049   0.13257
 H 0.4186 0.1917 0.6168   0.13645
 H 0.69 0.655 0.7771   0.151258
 H 0.8389 0.6781 0.8229   0.143881
 H 0.847 0.2819 0.4615   0.135544
 H 0.7792 0.1416 0.4303   0.143142
 H 0.5654 0.6965 0.5176   0.109292
 H 0.8766 0.0082 0.8375   0.122989
 H 0.9121 0.6726 0.5807   0.123074
 H 0.7264 0.4782 0.4082   0.150858
 H 0.588 0.4819 0.394   0.161689
 H 0.5548 0.9202 0.6546   0.141644
 H 0.6769 0.0325 0.7944   0.164807
 H 0.0746 0.9675 0.9165   0.14447
 H 0.0879 0.8336 0.8173   0.140814
 C 0.3918 0.7276 0.3288   0.17567
 C 0.3629 0.593 0.2566   -0.253745
 C 0.2706 0.5126 0.2584   0.176663
 C 0.2101 0.565 0.3381   -0.238501
 C 0.2373 0.7039 0.4115   0.158446
 C 0.3263 0.7813 0.4023   -0.240596
 C 0.5016 0.8164 0.3365   -0.383801
 C 0.4965 0.794 0.2058   0.815617
 C 0.239 0.3648 0.1777   -0.390595
 C 0.2178 0.3089 0.0335   0.790433
 C 0.1683 0.7649 0.4962   -0.362036
 C 0.0423 0.7541 0.4031   0.734821
 C 0.2698 0.3345 0.4687   0.17749
 C 0.3446 0.2643 0.4289   -0.230888
 C 0.2916 0.136 0.3111   0.164792
 C 0.1611 0.0809 0.2385   -0.229695
 C 0.0822 0.1499 0.2717   0.157908
 C 0.1399 0.2788 0.3917   -0.243645
 C 0.3311 0.4725 0.5986   -0.439568
 C 0.3588 0.476 0.7266   0.88046
 C 0.3738 0.0629 0.2649   -0.395811
 C 0.4284 0.1 0.1877   0.820849
 C 0.9386 0.0929 0.1781   -0.393183
 C 0.8481 0.0187 0.2045   0.832653
 C 0.6082 0.2724 0.6712   0.175669
 C 0.6371 0.407 0.7434   -0.253746
 C 0.7294 0.4874 0.7416   0.176663
 C 0.7899 0.435 0.6619   -0.238501
 C 0.7627 0.2961 0.5885   0.158445
 C 0.6737 0.2187 0.5977   -0.240594
 C 0.4984 0.1836 0.6635   -0.383798
 C 0.5035 0.206 0.7942   0.815616
 C 0.761 0.6352 0.8223   -0.390595
 C 0.7822 0.6911 0.9665   0.790433
 C 0.8317 0.2351 0.5038   -0.362037
 C 0.9577 0.2459 0.5969   0.734822
 C 0.7302 0.6655 0.5313   0.17749
 C 0.6554 0.7357 0.5711   -0.230888
 C 0.7084 0.864 0.6889   0.164791
 C 0.8389 0.9191 0.7615   -0.229695
 C 0.9178 0.8501 0.7283   0.157908
 C 0.8601 0.7212 0.6083   -0.243645
 C 0.6689 0.5275 0.4014   -0.439568
 C 0.6412 0.524 0.2734   0.88046
 C 0.6262 0.9371 0.7351   -0.395809
 C 0.5716 0.9 0.8123   0.820848
 C 0.0614 0.9071 0.8219   -0.393181
 C 0.1519 0.9813 0.7955   0.832652
 O 0.397 0.7676 0.1123   -0.65559
 O 0.6031 0.8137 0.1989   -0.896664
 O 0.1151 0.2935 0.9462   -0.659579
 O 0.3044 0.2769 0.9989   -0.849038
 O 0.0419 0.8356 0.3691   -0.712496
 O 0.9378 0.6648 0.3567   -0.722174
 O 0.4092 0.585 0.8416   -0.797859
 O 0.3314 0.3687 0.7192   -0.787694
 O 0.4264 0.203 0.1927   -0.696019
 O 0.4721 0.0228 0.1136   -0.866692
 O 0.7331 0.0022 0.1435   -0.780532
 O 0.8898 0.9752 0.2742   -0.722479
 O 0.603 0.2324 0.8877   -0.65559
 O 0.3969 0.1863 0.8011   -0.896664
 O 0.8849 0.7065 0.0538   -0.659579
 O 0.6956 0.7231 0.0011   -0.849038
 O 0.9581 0.1644 0.6309   -0.712496
 O 0.0622 0.3352 0.6433   -0.722174
 O 0.5908 0.415 0.1584   -0.797859
 O 0.6686 0.6313 0.2808   -0.787693
 O 0.5736 0.797 0.8073   -0.696019
 O 0.5279 0.9772 0.8864   -0.866692
 O 0.2669 0.9978 0.8565   -0.780532
 O 0.1102 0.0248 0.7258   -0.722479
