{'_ref': 'TBD', '_srcid': 'CAKYAQ_clean', 'submitters': [{'name': 'Dalar Nazarian Jeff Camp and David Sholl', 'email': 'dalar@gatech.edu jcamp6@gatech.edu'}], '_method': 'VASP DFT with PBE;DDEC'}
data_PrH9(C2O)6
_symmetry_space_group_name_H-M   'P 1'
_cell_length_a   11.78100039
_cell_length_b   12.41600018
_cell_length_c   12.50300000
_cell_angle_alpha   118.87000032
_cell_angle_beta   108.29999874
_cell_angle_gamma   98.42000162
_symmetry_Int_Tables_number   1
_chemical_formula_structural   PrH9(C2O)6
_chemical_formula_sum   'Pr4 H36 C48 O24'
_cell_volume   1419.51118014
_cell_formula_units_Z   4
loop_
 _symmetry_equiv_pos_site_id
 _symmetry_equiv_pos_as_xyz
  1  'x, y, z'
loop_
 _atom_site_label
 _atom_site_fract_x
 _atom_site_fract_y
 _atom_site_fract_z
 _atom_site_charge
 Pr 0.97782 0.67779 0.5096   2.248477
 Pr 0.69784 0.74342 0.26485   2.187922
 Pr 0.02218 0.32221 0.4904   2.248479
 Pr 0.30216 0.25658 0.73515   2.187923
 H 0.0968 0.9458 0.301   0.127611
 H 0.3504 0.9858 0.156   0.119853
 H 0.1574 0.6261 0.0495   0.114902
 H 0.9937 0.5901 0.1055   0.134158
 H 0.9188 0.6887 0.1141   0.136885
 H 0.3436 0.1799 0.3263   0.144251
 H 0.1947 0.1587 0.2799   0.149622
 H 0.2814 0.6435 0.9306   0.142214
 H 0.3513 0.7855 0.9659   0.135251
 H 0.9381 0.8049 0.9784   0.114018
 H 0.5876 0.8281 0.9185   0.120639
 H 0.6222 0.4927 0.6578   0.13047
 H 0.9514 0.5843 0.848   0.142333
 H 0.8291 0.4683 0.7102   0.164872
 H 0.7743 0.0234 0.0957   0.151162
 H 0.9133 0.0205 0.1097   0.160036
 H 0.4117 0.6684 0.6848   0.145055
 H 0.4269 0.5359 0.5859   0.14393
 H 0.9032 0.0542 0.699   0.127611
 H 0.6496 0.0142 0.844   0.119849
 H 0.8426 0.3739 0.9505   0.114901
 H 0.0063 0.4099 0.8945   0.134156
 H 0.0812 0.3113 0.8859   0.136885
 H 0.6564 0.8201 0.6737   0.14425
 H 0.8053 0.8413 0.7201   0.149622
 H 0.7186 0.3565 0.0694   0.142214
 H 0.6487 0.2145 0.0341   0.135249
 H 0.0619 0.1951 0.0216   0.114018
 H 0.4124 0.1719 0.0815   0.120635
 H 0.3778 0.5073 0.3422   0.130468
 H 0.0486 0.4157 0.152   0.142333
 H 0.1709 0.5317 0.2898   0.164871
 H 0.2257 0.9766 0.9043   0.15116
 H 0.0867 0.9795 0.8903   0.160035
 H 0.5883 0.3316 0.3152   0.145052
 H 0.5731 0.4641 0.4141   0.143928
 C 0.1081 0.7706 0.172   0.1747
 C 0.1392 0.9077 0.2469   -0.251069
 C 0.231 0.9887 0.2435   0.171603
 C 0.2907 0.9318 0.1626   -0.232869
 C 0.2643 0.7963 0.0907   0.165199
 C 0.1744 0.7182 0.0973   -0.241438
 C 0.9989 0.6819 0.1627   -0.379103
 C 0.0023 0.7058 0.2948   0.796417
 C 0.2647 0.1378 0.3252   -0.385325
 C 0.2847 0.1932 0.4683   0.778766
 C 0.3344 0.7365 0.0058   -0.363365
 C 0.4592 0.7449 0.0984   0.735316
 C 0.7921 0.6379 0.8132   0.158574
 C 0.8475 0.7656 0.9282   -0.229491
 C 0.7715 0.8377 0.9716   0.17428
 C 0.6399 0.7793 0.8913   -0.240338
 C 0.5816 0.6534 0.7737   0.161912
 C 0.6599 0.5808 0.736   -0.234033
 C 0.8781 0.5641 0.7668   -0.398743
 C 0.9282 0.598 0.6867   0.823734
 C 0.8321 0.9739 0.1016   -0.436026
 C 0.8599 0.9751 0.2298   0.876224
 C 0.439 0.5953 0.6802   -0.391518
 C 0.3485 0.5197 0.7036   0.825615
 C 0.8919 0.2294 0.828   0.1747
 C 0.8608 0.0923 0.7531   -0.251069
 C 0.769 0.0113 0.7565   0.171602
 C 0.7093 0.0682 0.8374   -0.232868
 C 0.7357 0.2037 0.9093   0.165198
 C 0.8256 0.2818 0.9027   -0.241437
 C 0.0011 0.3181 0.8373   -0.379102
 C 0.9977 0.2942 0.7052   0.796417
 C 0.7353 0.8622 0.6748   -0.385325
 C 0.7153 0.8068 0.5317   0.778766
 C 0.6656 0.2635 0.9942   -0.363364
 C 0.5408 0.2551 0.9016   0.735316
 C 0.2079 0.3621 0.1868   0.158574
 C 0.1525 0.2344 0.0718   -0.229491
 C 0.2285 0.1623 0.0284   0.174278
 C 0.3601 0.2207 0.1087   -0.240337
 C 0.4184 0.3466 0.2263   0.161911
 C 0.3401 0.4192 0.264   -0.234032
 C 0.1219 0.4359 0.2332   -0.398743
 C 0.0718 0.402 0.3133   0.823733
 C 0.1679 0.0261 0.8984   -0.436025
 C 0.1401 0.0249 0.7702   0.876223
 C 0.561 0.4047 0.3198   -0.391516
 C 0.6515 0.4803 0.2964   0.825614
 O 0.1049 0.7332 0.3907   -0.649973
 O 0.8978 0.6891 0.3048   -0.862195
 O 0.1962 0.2234 0.5029   -0.834465
 O 0.3863 0.2052 0.5541   -0.641657
 O 0.4588 0.6626 0.1306   -0.69651
 O 0.5616 0.8348 0.1442   -0.707004
 O 0.9721 0.5209 0.6114   -0.858607
 O 0.9244 0.7006 0.6912   -0.685656
 O 0.8317 0.8682 0.2196   -0.761821
 O 0.9106 0.0865 0.3445   -0.79347
 O 0.231 0.5018 0.6439   -0.767579
 O 0.3892 0.4741 0.773   -0.713736
 O 0.8951 0.2668 0.6093   -0.649973
 O 0.1022 0.3109 0.6952   -0.862195
 O 0.8038 0.7766 0.4971   -0.834465
 O 0.6137 0.7948 0.4459   -0.641657
 O 0.5412 0.3374 0.8694   -0.69651
 O 0.4384 0.1652 0.8558   -0.707004
 O 0.0279 0.4791 0.3886   -0.858607
 O 0.0756 0.2994 0.3088   -0.685656
 O 0.1683 0.1318 0.7804   -0.761821
 O 0.0894 0.9135 0.6555   -0.79347
 O 0.769 0.4982 0.3561   -0.767578
 O 0.6108 0.5259 0.227   -0.713736
