{'_ref': 'TBD', '_srcid': 'CAKYAQ_clean', 'submitters': [{'name': 'Dalar Nazarian Jeff Camp and David Sholl', 'email': 'dalar@gatech.edu jcamp6@gatech.edu'}], '_method': 'VASP DFT with PBE;DDEC'}
data_Sm2Cu7H28C42Br6(NO2)7
_symmetry_space_group_name_H-M   'P 1'
_cell_length_a   13.93200000
_cell_length_b   18.15600010
_cell_length_c   23.80100000
_cell_angle_alpha   90.00000000
_cell_angle_beta   90.00000000
_cell_angle_gamma   99.42000145
_symmetry_Int_Tables_number   1
_chemical_formula_structural   Sm2Cu7H28C42Br6(NO2)7
_chemical_formula_sum   'Sm8 Cu28 H112 C168 Br24 N28 O56'
_cell_volume   5939.2632817
_cell_formula_units_Z   4
loop_
 _symmetry_equiv_pos_site_id
 _symmetry_equiv_pos_as_xyz
  1  'x, y, z'
loop_
 _atom_site_label
 _atom_site_fract_x
 _atom_site_fract_y
 _atom_site_fract_z
 _atom_site_charge
 Sm 0.1426 0.98057 0.40658   2.248393
 Sm 0.36393 0.0149 0.60239   2.262254
 Sm 0.3574 0.01943 0.90658   2.248387
 Sm 0.13607 0.9851 0.10239   2.262248
 Sm 0.8574 0.01943 0.59342   2.248392
 Sm 0.63607 0.9851 0.39761   2.262253
 Sm 0.6426 0.98057 0.09342   2.248387
 Sm 0.86393 0.0149 0.89761   2.262248
 Cu 0.0654 0.45653 0.48823   0.209499
 Cu 0.16325 0.5542 0.57975   0.239735
 Cu 0.12407 0.44417 0.68894   0.192651
 Cu 0.1412 0.57069 0.74887   0.157651
 Cu 0.37534 0.55354 0.31197   0.198169
 Cu 0.33838 0.44043 0.42077   0.240934
 Cu 0.4305 0.54032 0.51049   0.204677
 Cu 0.4346 0.54347 0.98823   0.209499
 Cu 0.33675 0.4458 0.07975   0.239735
 Cu 0.37593 0.55583 0.18894   0.192652
 Cu 0.3588 0.42931 0.24887   0.157652
 Cu 0.12466 0.44646 0.81197   0.198171
 Cu 0.16162 0.55957 0.92077   0.240934
 Cu 0.0695 0.45968 0.01049   0.204677
 Cu 0.9346 0.54347 0.51177   0.209501
 Cu 0.83675 0.4458 0.42025   0.239735
 Cu 0.87593 0.55583 0.31106   0.192651
 Cu 0.8588 0.42931 0.25113   0.157651
 Cu 0.62466 0.44646 0.68803   0.198169
 Cu 0.66162 0.55957 0.57923   0.240934
 Cu 0.5695 0.45968 0.48951   0.20468
 Cu 0.5654 0.45653 0.01177   0.209501
 Cu 0.66325 0.5542 0.92025   0.239735
 Cu 0.62407 0.44417 0.81106   0.192652
 Cu 0.6412 0.57069 0.75113   0.157652
 Cu 0.87534 0.55354 0.18803   0.198171
 Cu 0.83838 0.44043 0.07923   0.240934
 Cu 0.9305 0.54032 0.98951   0.20468
 H 0.0987 0.322 0.5478   0.058584
 H 0.1081 0.1978 0.5327   0.124806
 H 0.0499 0.2298 0.3702   0.137472
 H 0.0429 0.3542 0.3925   0.07208
 H 0.2094 0.6983 0.6404   0.065283
 H 0.2134 0.8251 0.6266   0.132187
 H 0.1447 0.7792 0.4646   0.113262
 H 0.1466 0.6548 0.4846   0.059239
 H 0.3072 0.3951 0.6528   0.066703
 H 0.3664 0.2861 0.6348   0.123918
 H 0.1057 0.171 0.6695   0.12946
 H 0.0507 0.2809 0.6866   0.081815
 H 0.179 0.7325 0.7479   0.085215
 H 0.0946 0.8335 0.7528   0.133341
 H 0.8456 0.6881 0.7514   0.108128
 H 0.9435 0.5946 0.749   0.033729
 H 0.4502 0.7174 0.3251   0.080098
 H 0.3946 0.8233 0.3424   0.117706
 H 0.1248 0.7082 0.3599   0.128587
 H 0.1889 0.6014 0.3405   0.067885
 H 0.3592 0.3434 0.5176   0.065494
 H 0.3616 0.2189 0.5371   0.109887
 H 0.2932 0.172 0.3761   0.125783
 H 0.2971 0.2962 0.3606   0.071752
 H 0.4519 0.6398 0.6094   0.073428
 H 0.4541 0.7642 0.6319   0.125283
 H 0.397 0.8025 0.4706   0.120739
 H 0.3985 0.6785 0.4527   0.0656
 H 0.4013 0.678 0.0478   0.058584
 H 0.3919 0.8022 0.0327   0.124806
 H 0.4501 0.7702 0.8702   0.137472
 H 0.4571 0.6458 0.8925   0.07208
 H 0.2906 0.3017 0.1404   0.065283
 H 0.2866 0.1749 0.1266   0.132187
 H 0.3553 0.2208 0.9646   0.113262
 H 0.3534 0.3452 0.9846   0.059239
 H 0.1928 0.6049 0.1528   0.066703
 H 0.1336 0.7139 0.1348   0.123918
 H 0.3943 0.829 0.1695   0.12946
 H 0.4493 0.7191 0.1866   0.081816
 H 0.321 0.2675 0.2479   0.085215
 H 0.4054 0.1665 0.2528   0.133341
 H 0.6544 0.3119 0.2514   0.108128
 H 0.5565 0.4054 0.249   0.033729
 H 0.0498 0.2826 0.8251   0.0801
 H 0.1054 0.1767 0.8424   0.117706
 H 0.3752 0.2918 0.8599   0.128587
 H 0.3111 0.3986 0.8405   0.067885
 H 0.1408 0.6566 0.0176   0.065494
 H 0.1384 0.7811 0.0371   0.109887
 H 0.2068 0.828 0.8761   0.125783
 H 0.2029 0.7038 0.8606   0.071752
 H 0.0481 0.3602 0.1094   0.073428
 H 0.0459 0.2358 0.1319   0.125283
 H 0.103 0.1975 0.9706   0.120739
 H 0.1015 0.3215 0.9527   0.0656
 H 0.9013 0.678 0.4522   0.058584
 H 0.8919 0.8022 0.4673   0.124806
 H 0.9501 0.7702 0.6298   0.137472
 H 0.9571 0.6458 0.6075   0.07208
 H 0.7906 0.3017 0.3596   0.065283
 H 0.7866 0.1749 0.3734   0.132187
 H 0.8553 0.2208 0.5354   0.113262
 H 0.8534 0.3452 0.5154   0.059239
 H 0.6928 0.6049 0.3472   0.066703
 H 0.6336 0.7139 0.3652   0.123919
 H 0.8943 0.829 0.3305   0.12946
 H 0.9493 0.7191 0.3134   0.081815
 H 0.821 0.2675 0.2521   0.085215
 H 0.9054 0.1665 0.2472   0.133341
 H 0.1544 0.3119 0.2486   0.108128
 H 0.0565 0.4054 0.251   0.033729
 H 0.5498 0.2826 0.6749   0.080099
 H 0.6054 0.1767 0.6576   0.117706
 H 0.8752 0.2918 0.6401   0.128588
 H 0.8111 0.3986 0.6595   0.067885
 H 0.6408 0.6566 0.4824   0.065494
 H 0.6384 0.7811 0.4629   0.109887
 H 0.7068 0.828 0.6239   0.125783
 H 0.7029 0.7038 0.6394   0.071752
 H 0.5481 0.3602 0.3906   0.073428
 H 0.5459 0.2358 0.3681   0.125283
 H 0.603 0.1975 0.5294   0.120739
 H 0.6015 0.3215 0.5473   0.0656
 H 0.5987 0.322 0.9522   0.058584
 H 0.6081 0.1978 0.9673   0.124806
 H 0.5499 0.2298 0.1298   0.137472
 H 0.5429 0.3542 0.1075   0.07208
 H 0.7094 0.6983 0.8596   0.065283
 H 0.7134 0.8251 0.8734   0.132187
 H 0.6447 0.7792 0.0354   0.113262
 H 0.6466 0.6548 0.0154   0.059239
 H 0.8072 0.3951 0.8472   0.066703
 H 0.8664 0.2861 0.8652   0.123919
 H 0.6057 0.171 0.8305   0.12946
 H 0.5507 0.2809 0.8134   0.081817
 H 0.679 0.7325 0.7521   0.085215
 H 0.5946 0.8335 0.7472   0.133341
 H 0.3456 0.6881 0.7486   0.108128
 H 0.4435 0.5946 0.751   0.033729
 H 0.9502 0.7174 0.1749   0.080101
 H 0.8946 0.8233 0.1576   0.117706
 H 0.6248 0.7082 0.1401   0.128588
 H 0.6889 0.6014 0.1595   0.067885
 H 0.8592 0.3434 0.9824   0.065494
 H 0.8616 0.2189 0.9629   0.109887
 H 0.7932 0.172 0.1239   0.125783
 H 0.7971 0.2962 0.1394   0.071752
 H 0.9519 0.6398 0.8906   0.073428
 H 0.9541 0.7642 0.8681   0.125283
 H 0.897 0.8025 0.0294   0.120739
 H 0.8985 0.6785 0.0473   0.0656
 C 0.0885 0.3031 0.5115   0.129144
 C 0.0936 0.2278 0.5032   -0.133229
 C 0.0768 0.2002 0.4514   -0.0247
 C 0.059 0.2472 0.4068   -0.132685
 C 0.0559 0.3221 0.4209   0.124854
 C 0.0856 0.1201 0.4362   0.643567
 C 0.1956 0.7145 0.6047   0.138561
 C 0.1976 0.7915 0.5972   -0.117721
 C 0.1748 0.8155 0.5437   -0.111906
 C 0.1571 0.7644 0.5009   -0.11789
 C 0.1585 0.6892 0.5138   0.11797
 C 0.1767 0.8986 0.5333   0.843649
 C 0.2657 0.3497 0.6563   0.150395
 C 0.3019 0.2838 0.6457   -0.140894
 C 0.2446 0.2172 0.6512   -0.014648
 C 0.1479 0.2161 0.6662   -0.13413
 C 0.1153 0.2824 0.6761   0.115918
 C 0.2846 0.1467 0.6381   0.665334
 C 0.1114 0.7243 0.7492   0.091244
 C 0.0604 0.7851 0.7517   -0.122129
 C 0.9634 0.7738 0.7526   -0.016778
 C 0.9132 0.6997 0.7512   -0.166948
 C 0.9745 0.644 0.7495   0.159077
 C 0.9028 0.8374 0.7565   0.655857
 C 0.384 0.7154 0.3318   0.127154
 C 0.351 0.7786 0.342   -0.128559
 C 0.2531 0.7798 0.3522   -0.026141
 C 0.1908 0.711 0.3524   -0.137308
 C 0.23 0.6473 0.341   0.146661
 C 0.2151 0.8511 0.3656   0.664051
 C 0.3461 0.3084 0.4889   0.124581
 C 0.3465 0.2334 0.5011   -0.109158
 C 0.3239 0.1798 0.4584   -0.11134
 C 0.3066 0.2055 0.4058   -0.102976
 C 0.3089 0.28 0.3966   0.128823
 C 0.3189 0.0973 0.4711   0.829208
 C 0.4423 0.6729 0.5809   0.130014
 C 0.4423 0.7479 0.5951   -0.118281
 C 0.4243 0.7975 0.5534   -0.03079
 C 0.4087 0.7708 0.4996   -0.127125
 C 0.4107 0.696 0.4891   0.108474
 C 0.4155 0.8761 0.5697   0.644874
 C 0.4115 0.6969 0.0115   0.129144
 C 0.4064 0.7722 0.0032   -0.133229
 C 0.4232 0.7998 0.9514   -0.0247
 C 0.441 0.7528 0.9068   -0.132685
 C 0.4441 0.6779 0.9209   0.124854
 C 0.4144 0.8799 0.9362   0.643567
 C 0.3044 0.2855 0.1047   0.138561
 C 0.3024 0.2085 0.0972   -0.117721
 C 0.3252 0.1845 0.0437   -0.111906
 C 0.3429 0.2356 0.000900000000001   -0.11789
 C 0.3415 0.3108 0.0138   0.11797
 C 0.3233 0.1014 0.0333   0.843648
 C 0.2343 0.6503 0.1563   0.150395
 C 0.1981 0.7162 0.1457   -0.140894
 C 0.2554 0.7828 0.1512   -0.014648
 C 0.3521 0.7839 0.1662   -0.134131
 C 0.3847 0.7176 0.1761   0.115918
 C 0.2154 0.8533 0.1381   0.665334
 C 0.3886 0.2757 0.2492   0.091245
 C 0.4396 0.2149 0.2517   -0.122129
 C 0.5366 0.2262 0.2526   -0.016778
 C 0.5868 0.3003 0.2512   -0.166948
 C 0.5255 0.356 0.2495   0.159077
 C 0.5972 0.1626 0.2565   0.655857
 C 0.116 0.2846 0.8318   0.127154
 C 0.149 0.2214 0.842   -0.12856
 C 0.2469 0.2202 0.8522   -0.026141
 C 0.3092 0.289 0.8524   -0.137308
 C 0.27 0.3527 0.841   0.146661
 C 0.2849 0.1489 0.8656   0.664051
 C 0.1539 0.6916 0.9889   0.124581
 C 0.1535 0.7666 0.0011   -0.109158
 C 0.1761 0.8202 0.9584   -0.11134
 C 0.1934 0.7945 0.9058   -0.102976
 C 0.1911 0.72 0.8966   0.128823
 C 0.1811 0.9027 0.9711   0.829208
 C 0.0577 0.3271 0.0809   0.130014
 C 0.0577 0.2521 0.0951   -0.118281
 C 0.0757 0.2025 0.0534   -0.03079
 C 0.0913 0.2292 0.9996   -0.127125
 C 0.0893 0.304 0.9891   0.108474
 C 0.0845 0.1239 0.0697   0.644874
 C 0.9115 0.6969 0.4885   0.129144
 C 0.9064 0.7722 0.4968   -0.133229
 C 0.9232 0.7998 0.5486   -0.0247
 C 0.941 0.7528 0.5932   -0.132685
 C 0.9441 0.6779 0.5791   0.124855
 C 0.9144 0.8799 0.5638   0.643568
 C 0.8044 0.2855 0.3953   0.138561
 C 0.8024 0.2085 0.4028   -0.117721
 C 0.8252 0.1845 0.4563   -0.111906
 C 0.8429 0.2356 0.4991   -0.11789
 C 0.8415 0.3108 0.4862   0.11797
 C 0.8233 0.1014 0.4667   0.843649
 C 0.7343 0.6503 0.3437   0.150395
 C 0.6981 0.7162 0.3543   -0.140894
 C 0.7554 0.7828 0.3488   -0.014648
 C 0.8521 0.7839 0.3338   -0.13413
 C 0.8847 0.7176 0.3239   0.115918
 C 0.7154 0.8533 0.3619   0.665334
 C 0.8886 0.2757 0.2508   0.091244
 C 0.9396 0.2149 0.2483   -0.122129
 C 0.0366 0.2262 0.2474   -0.016778
 C 0.0868 0.3003 0.2488   -0.166947
 C 0.0255 0.356 0.2505   0.159077
 C 0.0972 0.1626 0.2435   0.655857
 C 0.616 0.2846 0.6682   0.127154
 C 0.649 0.2214 0.658   -0.128559
 C 0.7469 0.2202 0.6478   -0.026141
 C 0.8092 0.289 0.6476   -0.137309
 C 0.77 0.3527 0.659   0.146661
 C 0.7849 0.1489 0.6344   0.664051
 C 0.6539 0.6916 0.5111   0.124581
 C 0.6535 0.7666 0.4989   -0.109159
 C 0.6761 0.8202 0.5416   -0.11134
 C 0.6934 0.7945 0.5942   -0.102976
 C 0.6911 0.72 0.6034   0.128823
 C 0.6811 0.9027 0.5289   0.829208
 C 0.5577 0.3271 0.4191   0.130014
 C 0.5577 0.2521 0.4049   -0.11828
 C 0.5757 0.2025 0.4466   -0.03079
 C 0.5913 0.2292 0.5004   -0.127125
 C 0.5893 0.304 0.5109   0.108474
 C 0.5845 0.1239 0.4303   0.644874
 C 0.5885 0.3031 0.9885   0.129144
 C 0.5936 0.2278 0.9968   -0.133229
 C 0.5768 0.2002 0.0486   -0.0247
 C 0.559 0.2472 0.0932   -0.132685
 C 0.5559 0.3221 0.0791   0.124855
 C 0.5856 0.1201 0.0638   0.643568
 C 0.6956 0.7145 0.8953   0.138561
 C 0.6976 0.7915 0.9028   -0.117721
 C 0.6748 0.8155 0.9563   -0.111906
 C 0.6571 0.7644 0.9991   -0.11789
 C 0.6585 0.6892 0.9862   0.11797
 C 0.6767 0.8986 0.9667   0.843649
 C 0.7657 0.3497 0.8437   0.150395
 C 0.8019 0.2838 0.8543   -0.140894
 C 0.7446 0.2172 0.8488   -0.014648
 C 0.6479 0.2161 0.8338   -0.134131
 C 0.6153 0.2824 0.8239   0.115918
 C 0.7846 0.1467 0.8619   0.665334
 C 0.6114 0.7243 0.7508   0.091245
 C 0.5604 0.7851 0.7483   -0.122129
 C 0.4634 0.7738 0.7474   -0.016778
 C 0.4132 0.6997 0.7488   -0.166947
 C 0.4745 0.644 0.7505   0.159077
 C 0.4028 0.8374 0.7435   0.655857
 C 0.884 0.7154 0.1682   0.127153
 C 0.851 0.7786 0.158   -0.12856
 C 0.7531 0.7798 0.1478   -0.026141
 C 0.6908 0.711 0.1476   -0.137308
 C 0.73 0.6473 0.159   0.146661
 C 0.7151 0.8511 0.1344   0.664051
 C 0.8461 0.3084 0.0111   0.124581
 C 0.8465 0.2334 0.9989   -0.109159
 C 0.8239 0.1798 0.0416   -0.11134
 C 0.8066 0.2055 0.0942   -0.102976
 C 0.8089 0.28 0.1034   0.128823
 C 0.8189 0.0973 0.0289   0.829208
 C 0.9423 0.6729 0.9191   0.130014
 C 0.9423 0.7479 0.9049   -0.11828
 C 0.9243 0.7975 0.9466   -0.03079
 C 0.9087 0.7708 0.000399999999999   -0.127125
 C 0.9107 0.696 0.0109   0.108474
 C 0.9155 0.8761 0.9303   0.644874
 Br 0.24921 0.49463 0.50151   -0.346526
 Br 0.99983 0.47112 0.58703   -0.287448
 Br 0.25204 0.54827 0.6709   -0.251262
 Br 0.51281 0.55943 0.25049   -0.292453
 Br 0.24948 0.44726 0.32997   -0.259734
 Br 0.49824 0.5282 0.41282   -0.284588
 Br 0.25079 0.50537 0.00151   -0.346526
 Br 0.50017 0.52888 0.08703   -0.287448
 Br 0.24796 0.45173 0.1709   -0.251262
 Br 0.98719 0.44057 0.75049   -0.292453
 Br 0.25052 0.55274 0.82997   -0.259733
 Br 0.00176 0.4718 0.91282   -0.284588
 Br 0.75079 0.50537 0.49849   -0.346526
 Br 0.000169999999997 0.52888 0.41297   -0.287448
 Br 0.74796 0.45173 0.3291   -0.251261
 Br 0.48719 0.44057 0.74951   -0.292453
 Br 0.75052 0.55274 0.67003   -0.259733
 Br 0.50176 0.4718 0.58718   -0.284587
 Br 0.74921 0.49463 0.99849   -0.346526
 Br 0.49983 0.47112 0.91297   -0.287448
 Br 0.75204 0.54827 0.8291   -0.251261
 Br 0.01281 0.55943 0.24951   -0.292453
 Br 0.74948 0.44726 0.17003   -0.259733
 Br 0.99824 0.5282 0.08718   -0.284588
 N 0.0704 0.3493 0.4721   -0.22611
 N 0.1756 0.6631 0.5649   -0.244526
 N 0.173 0.3495 0.6712   -0.232459
 N 0.0613 0.6542 0.7487   -0.214646
 N 0.3265 0.6492 0.3305   -0.241052
 N 0.3277 0.3311 0.4382   -0.248903
 N 0.4294 0.647 0.5291   -0.230114
 N 0.4296 0.6507 0.9721   -0.22611
 N 0.3244 0.3369 0.0649   -0.244526
 N 0.327 0.6505 0.1712   -0.232459
 N 0.4387 0.3458 0.2487   -0.214646
 N 0.1735 0.3508 0.8305   -0.241052
 N 0.1723 0.6689 0.9382   -0.248903
 N 0.0706 0.353 0.0291   -0.230114
 N 0.9296 0.6507 0.5279   -0.226111
 N 0.8244 0.3369 0.4351   -0.244526
 N 0.827 0.6505 0.3288   -0.232458
 N 0.9387 0.3458 0.2513   -0.214646
 N 0.6735 0.3508 0.6695   -0.241052
 N 0.6723 0.6689 0.5618   -0.248903
 N 0.5706 0.353 0.4709   -0.230115
 N 0.5704 0.3493 0.0279   -0.226111
 N 0.6756 0.6631 0.9351   -0.244526
 N 0.673 0.3495 0.8288   -0.232459
 N 0.5613 0.6542 0.7513   -0.214646
 N 0.8265 0.6492 0.1695   -0.241052
 N 0.8277 0.3311 0.0618   -0.248903
 N 0.9294 0.647 0.9709   -0.230115
 O 0.0987 0.076 0.4764   -0.698761
 O 0.0851 0.0998 0.3867   -0.674273
 O 0.1394 0.9127 0.488   -0.769375
 O 0.2133 0.9435 0.5686   -0.714897
 O 0.3746 0.1472 0.6403   -0.733323
 O 0.2244 0.0886 0.6261   -0.667679
 O 0.9475 0.9041 0.7483   -0.729971
 O 0.8154 0.8216 0.7691   -0.644694
 O 0.2746 0.9079 0.3804   -0.682318
 O 0.1258 0.8512 0.363   -0.719992
 O 0.3545 0.0827 0.5187   -0.766548
 O 0.2871 0.0512 0.4349   -0.717772
 O 0.4234 0.8958 0.6191   -0.669805
 O 0.401 0.9217 0.5307   -0.696272
 O 0.4013 0.924 0.9764   -0.698761
 O 0.4149 0.9002 0.8867   -0.674273
 O 0.3606 0.0873 0.988   -0.769375
 O 0.2867 0.0565 0.0686   -0.714897
 O 0.1254 0.8528 0.1403   -0.733323
 O 0.2756 0.9114 0.1261   -0.667679
 O 0.5525 0.0959 0.2483   -0.729971
 O 0.6846 0.1784 0.2691   -0.644694
 O 0.2254 0.0921 0.8804   -0.682318
 O 0.3742 0.1488 0.863   -0.719992
 O 0.1455 0.9173 0.0187   -0.766548
 O 0.2129 0.9488 0.9349   -0.717772
 O 0.0766 0.1042 0.1191   -0.669805
 O 0.099 0.0783 0.0307   -0.696271
 O 0.9013 0.924 0.5236   -0.698761
 O 0.9149 0.9002 0.6133   -0.674274
 O 0.8606 0.0873 0.512   -0.769375
 O 0.7867 0.0565 0.4314   -0.714898
 O 0.6254 0.8528 0.3597   -0.733323
 O 0.7756 0.9114 0.3739   -0.667679
 O 0.0525 0.0959 0.2517   -0.729971
 O 0.1846 0.1784 0.2309   -0.644694
 O 0.7254 0.0921 0.6196   -0.682318
 O 0.8742 0.1488 0.637   -0.719992
 O 0.6455 0.9173 0.4813   -0.766548
 O 0.7129 0.9488 0.5651   -0.717772
 O 0.5766 0.1042 0.3809   -0.669806
 O 0.599 0.0783 0.4693   -0.696272
 O 0.5987 0.076 0.0236   -0.698761
 O 0.5851 0.0998 0.1133   -0.674274
 O 0.6394 0.9127 0.012   -0.769375
 O 0.7133 0.9435 0.9314   -0.714897
 O 0.8746 0.1472 0.8597   -0.733322
 O 0.7244 0.0886 0.8739   -0.667679
 O 0.4475 0.9041 0.7517   -0.729971
 O 0.3154 0.8216 0.7309   -0.644694
 O 0.7746 0.9079 0.1196   -0.682318
 O 0.6258 0.8512 0.137   -0.719992
 O 0.8545 0.0827 0.9813   -0.766548
 O 0.7871 0.0512 0.0651   -0.717771
 O 0.9234 0.8958 0.8809   -0.669806
 O 0.901 0.9217 0.9693   -0.696271
