{'_ref': 'TBD', '_srcid': 'CAKYAQ_clean', 'submitters': [{'name': 'Dalar Nazarian Jeff Camp and David Sholl', 'email': 'dalar@gatech.edu jcamp6@gatech.edu'}], '_method': 'VASP DFT with PBE;DDEC'}
data_Cd3(C4N3)2
_symmetry_space_group_name_H-M   'P 1'
_cell_length_a   8.72100000
_cell_length_b   11.02600000
_cell_length_c   13.54000000
_cell_angle_alpha   90.00000000
_cell_angle_beta   90.00000000
_cell_angle_gamma   90.00000000
_symmetry_Int_Tables_number   1
_chemical_formula_structural   Cd3(C4N3)2
_chemical_formula_sum   'Cd6 C16 N12'
_cell_volume   1301.97588084
_cell_formula_units_Z   2
loop_
 _symmetry_equiv_pos_site_id
 _symmetry_equiv_pos_as_xyz
  1  'x, y, z'
loop_
 _atom_site_label
 _atom_site_fract_x
 _atom_site_fract_y
 _atom_site_fract_z
 _atom_site_charge
 Cd 0.0 0.76768 0.0   0.96838
 Cd 0.5 0.23232 0.5   0.96838
 Cd 0.5 0.06947 0.10251   0.602195
 Cd 0.5 0.48663 0.86465   0.626129
 Cd 0.0 0.93053 0.60251   0.602196
 Cd 0.0 0.51337 0.36465   0.626129
 C 0.7085 0.9588 0.0656   -0.027322
 C 0.7086 0.5818 0.9127   -0.039048
 C 0.7915 0.0412 0.5656   -0.027322
 C 0.7914 0.4182 0.4127   -0.039048
 C 0.2085 0.0412 0.5656   -0.027322
 C 0.2086 0.4182 0.4127   -0.039048
 C 0.2915 0.9588 0.0656   -0.027322
 C 0.2914 0.5818 0.9127   -0.039048
 C 0.0 0.8811 0.7594   -0.022489
 C 0.0 0.6161 0.223   -0.036988
 C 0.5 0.1189 0.2594   -0.022489
 C 0.5 0.3839 0.723   -0.036988
 C 0.5 0.244 0.0179   -0.18891
 C 0.5 0.3259 0.9682   -0.120761
 C 0.0 0.756 0.5179   -0.18891
 C 0.0 0.6741 0.4682   -0.120761
 N 0.8093 0.8998 0.046   -0.286742
 N 0.8087 0.6347 0.9417   -0.275419
 N 0.6907 0.1002 0.546   -0.286742
 N 0.6913 0.3653 0.4417   -0.275419
 N 0.3093 0.1002 0.546   -0.286742
 N 0.3087 0.3653 0.4417   -0.275418
 N 0.1907 0.8998 0.046   -0.286742
 N 0.1913 0.6347 0.9417   -0.275418
 N 0.0 0.8507 0.8385   -0.286146
 N 0.0 0.6663 0.1492   -0.28435
 N 0.5 0.1493 0.3385   -0.286146
 N 0.5 0.3337 0.6492   -0.28435
