{'_ref': 'TBD', '_srcid': 'CAKYAQ_clean', 'submitters': [{'name': 'Dalar Nazarian Jeff Camp and David Sholl', 'email': 'dalar@gatech.edu jcamp6@gatech.edu'}], '_method': 'VASP DFT with PBE;DDEC'}
data_Mn3H40C66N4O15
_symmetry_space_group_name_H-M   'P 1'
_cell_length_a   11.29619963
_cell_length_b   11.29620046
_cell_length_c   25.85440000
_cell_angle_alpha   90.17490248
_cell_angle_beta   90.17490249
_cell_angle_gamma   95.42630158
_symmetry_Int_Tables_number   1
_chemical_formula_structural   Mn3H40C66N4O15
_chemical_formula_sum   'Mn6 H80 C132 N8 O30'
_cell_volume   3284.31004158
_cell_formula_units_Z   2
loop_
 _symmetry_equiv_pos_site_id
 _symmetry_equiv_pos_as_xyz
  1  'x, y, z'
loop_
 _atom_site_label
 _atom_site_fract_x
 _atom_site_fract_y
 _atom_site_fract_z
 _atom_site_charge
 Mn 0.65336 0.29608 0.99899   0.963178
 Mn 0.70392 0.34664 0.50101   0.963178
 Mn 0.34664 0.70392 0.00101   0.963178
 Mn 0.29608 0.65336 0.49899   0.963178
 Mn 0.0 0.5 0.5   1.205342
 Mn 0.5 0.0 0.0   1.205345
 H 0.2894 0.11 0.1236   0.101578
 H 0.1528 0.163 0.1846   0.12941
 H 0.2652 0.5056 0.1647   0.137703
 H 0.4055 0.4533 0.1054   0.096037
 H 0.3132 0.3824 0.2628   0.130094
 H 0.3524 0.4532 0.3457   0.097636
 H 0.0133 0.5227 0.3608   0.097262
 H 0.9741 0.4539 0.2773   0.136431
 H 0.7644 0.1924 0.3671   0.091907
 H 0.7823 0.0901 0.2905   0.126039
 H 0.1374 0.1248 0.3075   0.133208
 H 0.1172 0.225 0.385   0.082029
 H 0.6174 0.559 0.0467   0.079708
 H 0.6985 0.7543 0.0419   0.129008
 H 0.8658 0.8 0.9925   0.111221
 H 0.0286 0.7272 0.9353   0.106249
 H 0.1003 0.5787 0.8909   0.11393
 H 0.0832 0.3596 0.8665   0.107222
 H 0.9872 0.1732 0.8759   0.110418
 H 0.8212 0.1454 0.9287   0.091755
 H 0.89 0.7106 0.3764   0.101578
 H 0.837 0.8472 0.3154   0.12941
 H 0.4944 0.7348 0.3353   0.137703
 H 0.5467 0.5945 0.3946   0.096036
 H 0.6176 0.6868 0.2372   0.130093
 H 0.5468 0.6476 0.1543   0.097634
 H 0.4773 0.9867 0.1392   0.097262
 H 0.5461 0.0259 0.2227   0.13643
 H 0.8076 0.2356 0.1329   0.091907
 H 0.9099 0.2177 0.2095   0.126038
 H 0.8752 0.8626 0.1925   0.133208
 H 0.775 0.8828 0.115   0.082029
 H 0.441 0.3826 0.4533   0.079708
 H 0.2457 0.3015 0.4581   0.129008
 H 0.2 0.1342 0.5075   0.111221
 H 0.2728 0.9714 0.5647   0.106249
 H 0.4213 0.8997 0.6091   0.11393
 H 0.6404 0.9168 0.6335   0.107222
 H 0.8268 0.0128 0.6241   0.110418
 H 0.8546 0.1788 0.5713   0.091755
 H 0.7106 0.89 0.8764   0.101579
 H 0.8472 0.837 0.8154   0.12941
 H 0.7348 0.4944 0.8353   0.137703
 H 0.5945 0.5467 0.8946   0.096037
 H 0.6868 0.6176 0.7372   0.130094
 H 0.6476 0.5468 0.6543   0.097636
 H 0.9867 0.4773 0.6392   0.097262
 H 0.0259 0.5461 0.7227   0.136432
 H 0.2356 0.8076 0.6329   0.091908
 H 0.2177 0.9099 0.7095   0.126039
 H 0.8626 0.8752 0.6925   0.133209
 H 0.8828 0.775 0.615   0.082029
 H 0.3826 0.441 0.9533   0.079708
 H 0.3015 0.2457 0.9581   0.129008
 H 0.1342 0.2 0.0075   0.111222
 H 0.9714 0.2728 0.0647   0.106249
 H 0.8997 0.4213 0.1091   0.113931
 H 0.9168 0.6404 0.1335   0.107224
 H 0.0128 0.8268 0.1241   0.110418
 H 0.1788 0.8546 0.0713   0.091756
 H 0.11 0.2894 0.6236   0.101578
 H 0.163 0.1528 0.6846   0.12941
 H 0.5056 0.2652 0.6647   0.137703
 H 0.4533 0.4055 0.6054   0.096036
 H 0.3824 0.3132 0.7628   0.130093
 H 0.4532 0.3524 0.8457   0.097634
 H 0.5227 0.0133 0.8608   0.097262
 H 0.4539 0.9741 0.7773   0.136431
 H 0.1924 0.7644 0.8671   0.091908
 H 0.0901 0.7823 0.7905   0.126038
 H 0.1248 0.1374 0.8075   0.13321
 H 0.225 0.1172 0.885   0.082029
 H 0.559 0.6174 0.5467   0.079708
 H 0.7543 0.6985 0.5419   0.129008
 H 0.8 0.8658 0.4925   0.111222
 H 0.7272 0.0286 0.4353   0.106249
 H 0.5787 0.1003 0.3909   0.113931
 H 0.3596 0.0832 0.3665   0.107224
 H 0.1732 0.9872 0.3759   0.110418
 H 0.1454 0.8212 0.4287   0.091755
 C 0.44936 0.24208 0.06855   0.690678
 C 0.36159 0.27569 0.10843   -0.190328
 C 0.28559 0.18965 0.132   0.00445
 C 0.20307 0.22119 0.16839   -0.237597
 C 0.197 0.33864 0.17988   0.279095
 C 0.2709 0.42616 0.15667   -0.237448
 C 0.3544 0.3947 0.12094   0.014254
 C 0.14014 0.41234 0.26226   0.301309
 C 0.2532 0.41118 0.28234   -0.271701
 C 0.27629 0.45337 0.33202   0.019414
 C 0.18716 0.4959 0.36158   -0.208004
 C 0.07388 0.49522 0.34105   0.027851
 C 0.05023 0.45375 0.29117   -0.250701
 C 0.21684 0.54264 0.41441   0.664466
 C 0.92135 0.27975 0.43505   0.703093
 C 0.93908 0.2164 0.38453   -0.1984
 C 0.83939 0.17717 0.35551   0.015713
 C 0.84956 0.11602 0.30976   -0.244227
 C 0.96113 0.09403 0.29307   0.289126
 C 0.06236 0.13662 0.32007   -0.247528
 C 0.04982 0.19714 0.36619   0.015024
 C 0.68527 0.57673 0.02692   0.197445
 C 0.73341 0.69493 0.0242   -0.166509
 C 0.83286 0.72166 0.99493   -0.02022
 C 0.88556 0.63146 0.9685   -0.018617
 C 0.82961 0.51487 0.97322   0.141273
 C 0.876 0.42034 0.94548   0.142055
 C 0.97756 0.44324 0.9137   0.000848
 C 0.98981 0.65101 0.9374   -0.075542
 C 0.033 0.5626 0.91119   -0.10488
 C 0.0169 0.3481 0.88786   -0.040074
 C 0.96 0.2376 0.89322   -0.169691
 C 0.85993 0.22127 0.92514   0.175408
 C 0.75792 0.55064 0.43145   0.690676
 C 0.72431 0.63841 0.39157   -0.190329
 C 0.81035 0.71441 0.368   0.00445
 C 0.77881 0.79693 0.33161   -0.237597
 C 0.66136 0.803 0.32012   0.279095
 C 0.57384 0.7291 0.34333   -0.237448
 C 0.6053 0.6456 0.37906   0.014254
 C 0.58766 0.85986 0.23774   0.301309
 C 0.58882 0.7468 0.21766   -0.271701
 C 0.54663 0.72371 0.16798   0.019417
 C 0.5041 0.81284 0.13842   -0.208007
 C 0.50478 0.92612 0.15895   0.027852
 C 0.54625 0.94977 0.20883   -0.250701
 C 0.45736 0.78316 0.08559   0.664467
 C 0.72025 0.07865 0.06495   0.703093
 C 0.7836 0.06092 0.11547   -0.198399
 C 0.82283 0.16061 0.14449   0.015713
 C 0.88398 0.15044 0.19024   -0.244227
 C 0.90597 0.03887 0.20693   0.289126
 C 0.86338 0.93764 0.17993   -0.247528
 C 0.80286 0.95018 0.13381   0.015024
 C 0.42327 0.31473 0.47308   0.197445
 C 0.30507 0.26659 0.4758   -0.166509
 C 0.27834 0.16714 0.50507   -0.020219
 C 0.36854 0.11444 0.5315   -0.018617
 C 0.48513 0.17039 0.52678   0.141273
 C 0.57966 0.124 0.55452   0.142055
 C 0.55676 0.02244 0.5863   0.000848
 C 0.34899 0.01019 0.5626   -0.075542
 C 0.4374 0.967 0.58881   -0.104881
 C 0.6519 0.9831 0.61214   -0.040074
 C 0.7624 0.04 0.60678   -0.169691
 C 0.77873 0.14007 0.57486   0.175409
 C 0.55064 0.75792 0.93145   0.690678
 C 0.63841 0.72431 0.89157   -0.190328
 C 0.71441 0.81035 0.868   0.00445
 C 0.79693 0.77881 0.83161   -0.237597
 C 0.803 0.66136 0.82012   0.279095
 C 0.7291 0.57384 0.84333   -0.237448
 C 0.6456 0.6053 0.87906   0.014254
 C 0.85986 0.58766 0.73774   0.30131
 C 0.7468 0.58882 0.71766   -0.271701
 C 0.72371 0.54663 0.66798   0.019414
 C 0.81284 0.5041 0.63842   -0.208004
 C 0.92612 0.50478 0.65895   0.027852
 C 0.94977 0.54625 0.70883   -0.2507
 C 0.78316 0.45736 0.58559   0.664466
 C 0.07865 0.72025 0.56495   0.703093
 C 0.06092 0.7836 0.61547   -0.1984
 C 0.16061 0.82283 0.64449   0.015713
 C 0.15044 0.88398 0.69024   -0.244227
 C 0.03887 0.90597 0.70693   0.289126
 C 0.93764 0.86338 0.67993   -0.247528
 C 0.95018 0.80286 0.63381   0.015024
 C 0.31473 0.42327 0.97308   0.197445
 C 0.26659 0.30507 0.9758   -0.166509
 C 0.16714 0.27834 0.00507   -0.020219
 C 0.11444 0.36854 0.0315   -0.018617
 C 0.17039 0.48513 0.02678   0.141274
 C 0.124 0.57966 0.05452   0.142055
 C 0.02244 0.55676 0.0863   0.000848
 C 0.01019 0.34899 0.0626   -0.075541
 C 0.967 0.4374 0.08881   -0.10488
 C 0.9831 0.6519 0.11214   -0.040074
 C 0.04 0.7624 0.10678   -0.169689
 C 0.14007 0.77873 0.07486   0.175408
 C 0.24208 0.44936 0.56855   0.690676
 C 0.27569 0.36159 0.60843   -0.190329
 C 0.18965 0.28559 0.632   0.00445
 C 0.22119 0.20307 0.66839   -0.237597
 C 0.33864 0.197 0.67988   0.279095
 C 0.42616 0.2709 0.65667   -0.237448
 C 0.3947 0.3544 0.62094   0.014255
 C 0.41234 0.14014 0.76226   0.301309
 C 0.41118 0.2532 0.78234   -0.271702
 C 0.45337 0.27629 0.83202   0.019417
 C 0.4959 0.18716 0.86158   -0.208007
 C 0.49522 0.07388 0.84105   0.027853
 C 0.45375 0.05023 0.79117   -0.2507
 C 0.54264 0.21684 0.91441   0.664467
 C 0.27975 0.92135 0.93505   0.703093
 C 0.2164 0.93908 0.88453   -0.198399
 C 0.17717 0.83939 0.85551   0.015713
 C 0.11602 0.84956 0.80976   -0.244227
 C 0.09403 0.96113 0.79307   0.289126
 C 0.13662 0.06236 0.82007   -0.247529
 C 0.19714 0.04982 0.86619   0.015024
 C 0.57673 0.68527 0.52692   0.197445
 C 0.69493 0.73341 0.5242   -0.166509
 C 0.72166 0.83286 0.49493   -0.020219
 C 0.63146 0.88556 0.4685   -0.018617
 C 0.51487 0.82961 0.47322   0.141274
 C 0.42034 0.876 0.44548   0.142055
 C 0.44324 0.97756 0.4137   0.000848
 C 0.65101 0.98981 0.4374   -0.075541
 C 0.5626 0.033 0.41119   -0.104881
 C 0.3481 0.0169 0.38786   -0.040074
 C 0.2376 0.96 0.39322   -0.169689
 C 0.22127 0.85993 0.42514   0.175409
 N 0.73135 0.48867 0.0027   -0.355573
 N 0.81927 0.31031 0.95016   -0.335294
 N 0.51133 0.26865 0.4973   -0.355573
 N 0.68969 0.18073 0.54984   -0.335294
 N 0.26865 0.51133 0.9973   -0.355573
 N 0.18073 0.68969 0.04984   -0.335294
 N 0.48867 0.73135 0.5027   -0.355573
 N 0.31031 0.81927 0.45016   -0.335294
 O 0.52385 0.32473 0.05391   -0.59203
 O 0.13645 0.57825 0.44361   -0.650667
 O 0.32341 0.55081 0.42893   -0.563613
 O 0.81838 0.26538 0.45296   -0.61925
 O 0.44326 0.1373 0.05293   -0.630868
 O 0.00772 0.339 0.45519   -0.61206
 O 0.10778 0.36932 0.21348   -0.2752
 O 0.67527 0.47615 0.44609   -0.59203
 O 0.42175 0.86355 0.05639   -0.650668
 O 0.44919 0.67659 0.07107   -0.563613
 O 0.73462 0.18162 0.04704   -0.61925
 O 0.8627 0.55674 0.44707   -0.630866
 O 0.661 0.99228 0.04481   -0.61206
 O 0.63068 0.89222 0.28652   -0.2752
 O 0.47615 0.67527 0.94609   -0.59203
 O 0.86355 0.42175 0.55639   -0.650667
 O 0.67659 0.44919 0.57107   -0.563613
 O 0.18162 0.73462 0.54704   -0.61925
 O 0.55674 0.8627 0.94707   -0.630868
 O 0.99228 0.661 0.54481   -0.61206
 O 0.89222 0.63068 0.78652   -0.2752
 O 0.32473 0.52385 0.55391   -0.59203
 O 0.57825 0.13645 0.94361   -0.650668
 O 0.55081 0.32341 0.92893   -0.563613
 O 0.26538 0.81838 0.95296   -0.61925
 O 0.1373 0.44326 0.55293   -0.630866
 O 0.339 0.00772 0.95519   -0.61206
 O 0.36932 0.10778 0.71348   -0.2752
 O 0.97645 0.02355 0.25   -0.280362
 O 0.02355 0.97645 0.75   -0.280362
