{'_ref': 'TBD', '_srcid': 'CAKYAQ_clean', 'submitters': [{'name': 'Dalar Nazarian Jeff Camp and David Sholl', 'email': 'dalar@gatech.edu jcamp6@gatech.edu'}], '_method': 'VASP DFT with PBE;DDEC'}
data_Co3H40C66N4O15
_symmetry_space_group_name_H-M   'P 1'
_cell_length_a   11.19650037
_cell_length_b   11.19649982
_cell_length_c   25.84400000
_cell_angle_alpha   90.69020146
_cell_angle_beta   90.69020143
_cell_angle_gamma   94.93350221
_symmetry_Int_Tables_number   1
_chemical_formula_structural   Co3H40C66N4O15
_chemical_formula_sum   'Co6 H80 C132 N8 O30'
_cell_volume   3227.33002939
_cell_formula_units_Z   2
loop_
 _symmetry_equiv_pos_site_id
 _symmetry_equiv_pos_as_xyz
  1  'x, y, z'
loop_
 _atom_site_label
 _atom_site_fract_x
 _atom_site_fract_y
 _atom_site_fract_z
 _atom_site_charge
 Co 0.70743 0.35249 0.49399   0.934766
 Co 0.64751 0.29257 0.00601   0.934766
 Co 0.29257 0.64751 0.50601   0.934766
 Co 0.35249 0.70743 0.99399   0.934766
 Co 0.0 0.5 0.5   1.160154
 Co 0.5 0.0 0.0   1.160155
 H 0.5932 0.5558 0.1011   0.098742
 H 0.7253 0.4949 0.163   0.138188
 H 0.8602 0.836 0.1839   0.127574
 H 0.7268 0.8962 0.122   0.098512
 H 0.6865 0.6215 0.2606   0.131428
 H 0.646 0.5562 0.3437   0.097138
 H 0.9852 0.4754 0.3619   0.099812
 H 0.0269 0.5375 0.2786   0.137526
 H 0.1063 0.2225 0.6135   0.083889
 H 0.1278 0.126 0.6914   0.131178
 H 0.7717 0.1043 0.7093   0.127074
 H 0.7524 0.204 0.6321   0.096797
 H 0.8678 0.2044 0.4203   0.088908
 H 0.8455 0.0435 0.3638   0.117105
 H 0.6618 0.9336 0.3561   0.106751
 H 0.2216 0.1182 0.4989   0.112777
 H 0.2648 0.2918 0.5475   0.129412
 H 0.457 0.3856 0.5486   0.085245
 H 0.4431 0.9019 0.3859   0.113655
 H 0.2954 0.9628 0.4361   0.109172
 H 0.4442 0.4068 0.3989   0.098742
 H 0.5051 0.2747 0.337   0.138188
 H 0.164 0.1398 0.3161   0.127575
 H 0.1038 0.2732 0.378   0.098516
 H 0.3785 0.3135 0.2394   0.131428
 H 0.4438 0.354 0.1563   0.097138
 H 0.5246 0.0148 0.1381   0.099812
 H 0.4625 0.9731 0.2214   0.137528
 H 0.7775 0.8937 0.8865   0.083889
 H 0.874 0.8722 0.8086   0.131178
 H 0.8957 0.2283 0.7907   0.127074
 H 0.796 0.2476 0.8679   0.096797
 H 0.7956 0.1322 0.0797   0.08891
 H 0.9565 0.1545 0.1362   0.117106
 H 0.0664 0.3382 0.1439   0.106753
 H 0.8818 0.7784 0.0011   0.112778
 H 0.7082 0.7352 0.9525   0.129412
 H 0.6144 0.543 0.9514   0.085245
 H 0.0981 0.5569 0.1141   0.113656
 H 0.0372 0.7046 0.0639   0.109172
 H 0.4068 0.4442 0.8989   0.098742
 H 0.2747 0.5051 0.837   0.138188
 H 0.1398 0.164 0.8161   0.127575
 H 0.2732 0.1038 0.878   0.098512
 H 0.3135 0.3785 0.7394   0.131428
 H 0.354 0.4438 0.6563   0.097138
 H 0.0148 0.5246 0.6381   0.099812
 H 0.9731 0.4625 0.7214   0.137526
 H 0.8937 0.7775 0.3865   0.083889
 H 0.8722 0.874 0.3086   0.131182
 H 0.2283 0.8957 0.2907   0.127074
 H 0.2476 0.796 0.3679   0.096798
 H 0.1322 0.7956 0.5797   0.088908
 H 0.1545 0.9565 0.6362   0.117105
 H 0.3382 0.0664 0.6439   0.106754
 H 0.7784 0.8818 0.5011   0.112778
 H 0.7352 0.7082 0.4525   0.129412
 H 0.543 0.6144 0.4514   0.085246
 H 0.5569 0.0981 0.6141   0.113657
 H 0.7046 0.0372 0.5639   0.109172
 H 0.5558 0.5932 0.6011   0.098742
 H 0.4949 0.7253 0.663   0.138188
 H 0.836 0.8602 0.6839   0.127576
 H 0.8962 0.7268 0.622   0.098516
 H 0.6215 0.6865 0.7606   0.131428
 H 0.5562 0.646 0.8437   0.097138
 H 0.4754 0.9852 0.8619   0.099812
 H 0.5375 0.0269 0.7786   0.137528
 H 0.2225 0.1063 0.1135   0.083889
 H 0.126 0.1278 0.1914   0.131182
 H 0.1043 0.7717 0.2093   0.127074
 H 0.204 0.7524 0.1321   0.096798
 H 0.2044 0.8678 0.9203   0.08891
 H 0.0435 0.8455 0.8638   0.117107
 H 0.9336 0.6618 0.8561   0.106755
 H 0.1182 0.2216 0.9989   0.112779
 H 0.2918 0.2648 0.0475   0.129412
 H 0.3856 0.457 0.0486   0.085245
 H 0.9019 0.4431 0.8859   0.113657
 H 0.9628 0.2954 0.9361   0.109172
 C 0.6467 0.7323 0.10449   -0.183115
 C 0.647 0.6124 0.11748   0.013001
 C 0.7262 0.5754 0.15451   -0.23509
 C 0.806 0.6594 0.17847   0.270468
 C 0.807 0.7798 0.16705   -0.233567
 C 0.7267 0.8153 0.12991   0.003768
 C 0.8608 0.586 0.26145   0.296976
 C 0.7464 0.5918 0.28072   -0.271583
 C 0.7227 0.5527 0.33064   0.016479
 C 0.8112 0.5086 0.36155   -0.20194
 C 0.925 0.504 0.34159   0.027945
 C 0.9504 0.5418 0.29178   -0.250987
 C 0.7797 0.4635 0.41407   0.652721
 C 0.9089 0.2829 0.5631   0.684501
 C 0.9276 0.2208 0.61412   -0.181042
 C 0.0386 0.1982 0.63253   0.009093
 C 0.052 0.1398 0.67904   -0.246978
 C 0.951 0.1022 0.70671   0.286549
 C 0.8391 0.1271 0.68989   -0.244486
 C 0.828 0.1866 0.6436   0.008749
 C 0.793 0.1618 0.417   0.171224
 C 0.7807 0.0643 0.3832   -0.172529
 C 0.6717 0.9991 0.3786   -0.046482
 C 0.5754 0.0312 0.40803   -0.006208
 C 0.5979 0.1327 0.44091   0.147047
 C 0.5019 0.1729 0.47169   0.134794
 C 0.3883 0.1109 0.4701   -0.011935
 C 0.2986 0.1568 0.4991   -0.023562
 C 0.3245 0.2599 0.52825   -0.166218
 C 0.4408 0.3162 0.52873   0.195032
 C 0.4586 0.969 0.4072   -0.101862
 C 0.3701 0.0061 0.437   -0.079564
 C 0.5617 0.7707 0.06284   0.675927
 C 0.2677 0.3533 0.39551   -0.183115
 C 0.3876 0.353 0.38252   0.013
 C 0.4246 0.2738 0.34549   -0.235091
 C 0.3406 0.194 0.32153   0.270467
 C 0.2202 0.193 0.33295   -0.233567
 C 0.1847 0.2733 0.37009   0.003768
 C 0.414 0.1392 0.23855   0.296977
 C 0.4082 0.2536 0.21928   -0.271582
 C 0.4473 0.2773 0.16936   0.016479
 C 0.4914 0.1888 0.13845   -0.20194
 C 0.496 0.075 0.15841   0.027945
 C 0.4582 0.0496 0.20822   -0.250985
 C 0.5365 0.2203 0.08593   0.652721
 C 0.7171 0.0911 0.9369   0.684501
 C 0.7792 0.0724 0.88588   -0.181042
 C 0.8018 0.9614 0.86747   0.009093
 C 0.8602 0.948 0.82096   -0.246978
 C 0.8978 0.049 0.79329   0.286549
 C 0.8729 0.1609 0.81011   -0.244486
 C 0.8134 0.172 0.8564   0.008749
 C 0.8382 0.207 0.083   0.171223
 C 0.9357 0.2193 0.1168   -0.172528
 C 0.000900000000001 0.3283 0.1214   -0.046481
 C 0.9688 0.4246 0.09197   -0.006208
 C 0.8673 0.4021 0.05909   0.147047
 C 0.8271 0.4981 0.02831   0.134793
 C 0.8891 0.6117 0.0299   -0.011936
 C 0.8432 0.7014 0.000900000000001   -0.023562
 C 0.7401 0.6755 0.97175   -0.166218
 C 0.6838 0.5592 0.97127   0.195032
 C 0.031 0.5414 0.0928   -0.101863
 C 0.9939 0.6299 0.063   -0.079565
 C 0.2293 0.4383 0.43716   0.675927
 C 0.3533 0.2677 0.89551   -0.183115
 C 0.353 0.3876 0.88252   0.013001
 C 0.2738 0.4246 0.84549   -0.23509
 C 0.194 0.3406 0.82153   0.270468
 C 0.193 0.2202 0.83295   -0.233567
 C 0.2733 0.1847 0.87009   0.003769
 C 0.1392 0.414 0.73855   0.296976
 C 0.2536 0.4082 0.71928   -0.271583
 C 0.2773 0.4473 0.66936   0.016479
 C 0.1888 0.4914 0.63845   -0.20194
 C 0.075 0.496 0.65841   0.027944
 C 0.0496 0.4582 0.70822   -0.250988
 C 0.2203 0.5365 0.58593   0.652721
 C 0.0911 0.7171 0.4369   0.684501
 C 0.0724 0.7792 0.38588   -0.181042
 C 0.9614 0.8018 0.36747   0.009093
 C 0.948 0.8602 0.32096   -0.246981
 C 0.049 0.8978 0.29329   0.28655
 C 0.1609 0.8729 0.31011   -0.244487
 C 0.172 0.8134 0.3564   0.008749
 C 0.207 0.8382 0.583   0.171223
 C 0.2193 0.9357 0.6168   -0.172528
 C 0.3283 0.000900000000001 0.6214   -0.046483
 C 0.4246 0.9688 0.59197   -0.006207
 C 0.4021 0.8673 0.55909   0.147047
 C 0.4981 0.8271 0.52831   0.134793
 C 0.6117 0.8891 0.5299   -0.011936
 C 0.7014 0.8432 0.5009   -0.023562
 C 0.6755 0.7401 0.47175   -0.166217
 C 0.5592 0.6838 0.47127   0.195031
 C 0.5414 0.031 0.5928   -0.101863
 C 0.6299 0.9939 0.563   -0.079565
 C 0.4383 0.2293 0.93716   0.675927
 C 0.7323 0.6467 0.60449   -0.183115
 C 0.6124 0.647 0.61748   0.013
 C 0.5754 0.7262 0.65451   -0.235091
 C 0.6594 0.806 0.67847   0.270467
 C 0.7798 0.807 0.66705   -0.233567
 C 0.8153 0.7267 0.62991   0.003768
 C 0.586 0.8608 0.76145   0.296976
 C 0.5918 0.7464 0.78072   -0.271582
 C 0.5527 0.7227 0.83064   0.016479
 C 0.5086 0.8112 0.86155   -0.20194
 C 0.504 0.925 0.84159   0.027945
 C 0.5418 0.9504 0.79178   -0.250986
 C 0.4635 0.7797 0.91407   0.652721
 C 0.2829 0.9089 0.0631   0.684501
 C 0.2208 0.9276 0.11412   -0.181042
 C 0.1982 0.0386 0.13253   0.009093
 C 0.1398 0.052 0.17904   -0.246981
 C 0.1022 0.951 0.20671   0.286549
 C 0.1271 0.8391 0.18989   -0.244486
 C 0.1866 0.828 0.1436   0.008749
 C 0.1618 0.793 0.917   0.171223
 C 0.0643 0.7807 0.8832   -0.172527
 C 0.9991 0.6717 0.8786   -0.046482
 C 0.0312 0.5754 0.90803   -0.006207
 C 0.1327 0.5979 0.94091   0.147047
 C 0.1729 0.5019 0.97169   0.134793
 C 0.1109 0.3883 0.9701   -0.011936
 C 0.1568 0.2986 0.9991   -0.023562
 C 0.2599 0.3245 0.02825   -0.166218
 C 0.3162 0.4408 0.02873   0.195031
 C 0.969 0.4586 0.9072   -0.101864
 C 0.0061 0.3701 0.937   -0.079565
 C 0.7707 0.5617 0.56284   0.675927
 N 0.7045 0.1969 0.44471   -0.32666
 N 0.5294 0.2742 0.50166   -0.352347
 N 0.8031 0.2955 0.05529   -0.32666
 N 0.7258 0.4706 0.99834   -0.352347
 N 0.2955 0.8031 0.55529   -0.32666
 N 0.4706 0.7258 0.49834   -0.352347
 N 0.1969 0.7045 0.94471   -0.32666
 N 0.2742 0.5294 0.00166   -0.352347
 O 0.85919 0.43269 0.44563   -0.637867
 O 0.66959 0.44953 0.42575   -0.552964
 O 0.8021 0.2687 0.54541   -0.60645
 O 0.8948 0.625 0.21258   -0.26923
 O 0.49016 0.68844 0.04317   -0.586719
 O 0.56922 0.87986 0.05125   -0.611569
 O 0.99606 0.34114 0.54295   -0.599135
 O 0.56731 0.14081 0.05437   -0.637867
 O 0.55047 0.33041 0.07425   -0.552964
 O 0.7313 0.1979 0.95459   -0.60645
 O 0.375 0.1052 0.28742   -0.26923
 O 0.31156 0.50984 0.45683   -0.586719
 O 0.12014 0.43078 0.44875   -0.611569
 O 0.65886 0.00394 0.95705   -0.599135
 O 0.14081 0.56731 0.55437   -0.637867
 O 0.33041 0.55047 0.57425   -0.552964
 O 0.1979 0.7313 0.45459   -0.60645
 O 0.1052 0.375 0.78742   -0.26923
 O 0.50984 0.31156 0.95683   -0.586719
 O 0.43078 0.12014 0.94875   -0.611569
 O 0.00394 0.65886 0.45705   -0.599135
 O 0.43269 0.85919 0.94563   -0.637867
 O 0.44953 0.66959 0.92575   -0.552964
 O 0.2687 0.8021 0.04541   -0.60645
 O 0.625 0.8948 0.71258   -0.26923
 O 0.68844 0.49016 0.54317   -0.586719
 O 0.87986 0.56922 0.55125   -0.611569
 O 0.34114 0.99606 0.04295   -0.599135
 O 0.9675 0.0325 0.75   -0.279838
 O 0.0325 0.9675 0.25   -0.279838
