{'_ref': 'TBD', '_srcid': 'CAKYAQ_clean', 'submitters': [{'name': 'Dalar Nazarian Jeff Camp and David Sholl', 'email': 'dalar@gatech.edu jcamp6@gatech.edu'}], '_method': 'VASP DFT with PBE;DDEC'}
data_KCd3H48C72(NO2)6
_symmetry_space_group_name_H-M   'P 1'
_cell_length_a   18.00700000
_cell_length_b   18.00699961
_cell_length_c   19.28800000
_cell_angle_alpha   90.00000000
_cell_angle_beta   90.00000000
_cell_angle_gamma   120.00000071
_symmetry_Int_Tables_number   1
_chemical_formula_structural   KCd3H48C72(NO2)6
_chemical_formula_sum   'K2 Cd6 H96 C144 N12 O24'
_cell_volume   5416.27299407
_cell_formula_units_Z   2
loop_
 _symmetry_equiv_pos_site_id
 _symmetry_equiv_pos_as_xyz
  1  'x, y, z'
loop_
 _atom_site_label
 _atom_site_fract_x
 _atom_site_fract_y
 _atom_site_fract_z
 _atom_site_charge
 K 0.66667 0.33334 0.25   1.008195
 K 0.33333 0.66666 0.75   1.008195
 Cd 0.79277 0.58554 0.25   0.96009
 Cd 0.79277 0.20724 0.25   0.960073
 Cd 0.41447 0.20724 0.25   0.960073
 Cd 0.20723 0.41446 0.75   0.96009
 Cd 0.20723 0.79276 0.75   0.960073
 Cd 0.58553 0.79276 0.75   0.960073
 H 0.9289 0.5916 0.4623   0.09378
 H 0.8739 0.4044 0.5988   0.09644
 H 0.7774 0.3062 0.5216   0.09742
 H 0.7597 0.3494 0.4135   0.088487
 H 0.0598 0.5963 0.7378   0.058206
 H 0.9607 0.4952 0.6674   0.121915
 H 0.0241 0.6749 0.5263   0.125446
 H 0.1241 0.7703 0.6001   0.075226
 H 0.6627 0.0711 0.4623   0.093781
 H 0.5305 0.1261 0.5988   0.096441
 H 0.5288 0.2226 0.5216   0.09742
 H 0.5897 0.2403 0.4135   0.088488
 H 0.5365 0.9402 0.7378   0.058209
 H 0.5345 0.0393 0.6674   0.121916
 H 0.6508 0.9759 0.5263   0.125446
 H 0.6462 0.8759 0.6001   0.075225
 H 0.4084 0.3373 0.4623   0.093781
 H 0.5956 0.4695 0.5988   0.09644
 H 0.6938 0.4712 0.5216   0.09742
 H 0.6506 0.4103 0.4135   0.088489
 H 0.4037 0.4635 0.7378   0.058209
 H 0.5048 0.4655 0.6674   0.121916
 H 0.3251 0.3492 0.5263   0.125446
 H 0.2297 0.3538 0.6001   0.075225
 H 0.6627 0.5916 0.0377   0.09378
 H 0.5305 0.4044 0.9012   0.09644
 H 0.5288 0.3062 0.9784   0.09742
 H 0.5897 0.3494 0.0865   0.088487
 H 0.5365 0.5963 0.7622   0.058206
 H 0.5345 0.4952 0.8326   0.121915
 H 0.6508 0.6749 0.9737   0.125446
 H 0.6462 0.7703 0.8999   0.075226
 H 0.4084 0.0711 0.0377   0.093781
 H 0.5956 0.1261 0.9012   0.096441
 H 0.6938 0.2226 0.9784   0.09742
 H 0.6506 0.2403 0.0865   0.088488
 H 0.4037 0.9402 0.7622   0.058209
 H 0.5048 0.0393 0.8326   0.121916
 H 0.3251 0.9759 0.9737   0.125446
 H 0.2297 0.8759 0.8999   0.075225
 H 0.9289 0.3373 0.0377   0.093781
 H 0.8739 0.4695 0.9012   0.09644
 H 0.7774 0.4712 0.9784   0.09742
 H 0.7597 0.4103 0.0865   0.088489
 H 0.0598 0.4635 0.7622   0.058209
 H 0.9607 0.4655 0.8326   0.121915
 H 0.0241 0.3492 0.9737   0.125446
 H 0.1241 0.3538 0.8999   0.075225
 H 0.0711 0.4084 0.5377   0.093781
 H 0.1261 0.5956 0.4012   0.09644
 H 0.2226 0.6938 0.4784   0.09742
 H 0.2403 0.6506 0.5865   0.088487
 H 0.9402 0.4037 0.2622   0.058206
 H 0.0393 0.5048 0.3326   0.121915
 H 0.9759 0.3251 0.4737   0.125446
 H 0.8759 0.2297 0.3999   0.075226
 H 0.3373 0.9289 0.5377   0.093781
 H 0.4695 0.8739 0.4012   0.096441
 H 0.4712 0.7774 0.4784   0.09742
 H 0.4103 0.7597 0.5865   0.088488
 H 0.4635 0.0598 0.2622   0.058209
 H 0.4655 0.9607 0.3326   0.121916
 H 0.3492 0.0241 0.4737   0.125446
 H 0.3538 0.1241 0.3999   0.075225
 H 0.5916 0.6627 0.5377   0.093781
 H 0.4044 0.5305 0.4012   0.09644
 H 0.3062 0.5288 0.4784   0.09742
 H 0.3494 0.5897 0.5865   0.088489
 H 0.5963 0.5365 0.2622   0.058209
 H 0.4952 0.5345 0.3326   0.121916
 H 0.6749 0.6508 0.4737   0.125446
 H 0.7703 0.6462 0.3999   0.075225
 H 0.3373 0.4084 0.9623   0.093781
 H 0.4695 0.5956 0.0988   0.09644
 H 0.4712 0.6938 0.0216   0.09742
 H 0.4103 0.6506 0.9135   0.088487
 H 0.4635 0.4037 0.2378   0.058206
 H 0.4655 0.5048 0.1674   0.121915
 H 0.3492 0.3251 0.0263   0.125446
 H 0.3538 0.2297 0.1001   0.075226
 H 0.5916 0.9289 0.9623   0.093781
 H 0.4044 0.8739 0.0988   0.096441
 H 0.3062 0.7774 0.0216   0.09742
 H 0.3494 0.7597 0.9135   0.088488
 H 0.5963 0.0598 0.2378   0.058209
 H 0.4952 0.9607 0.1674   0.121916
 H 0.6749 0.0241 0.0263   0.125446
 H 0.7703 0.1241 0.1001   0.075225
 H 0.0711 0.6627 0.9623   0.093781
 H 0.1261 0.5305 0.0988   0.09644
 H 0.2226 0.5288 0.0216   0.09742
 H 0.2403 0.5897 0.9135   0.088489
 H 0.9402 0.5365 0.2378   0.058209
 H 0.0393 0.5345 0.1674   0.121915
 H 0.9759 0.6508 0.0263   0.125446
 H 0.8759 0.6462 0.1001   0.075225
 C 0.8406 0.4748 0.428   -0.135923
 C 0.8986 0.5339 0.4746   -0.0639
 C 0.9124 0.5089 0.5392   -0.024923
 C 0.8661 0.4228 0.5558   -0.09352
 C 0.8086 0.3639 0.5094   -0.103251
 C 0.7971 0.3897 0.4452   -0.027505
 C 0.8256 0.5054 0.3592   0.674483
 C 0.0527 0.6133 0.6939   0.188838
 C 0.9919 0.5517 0.652   -0.223238
 C 0.9768 0.5729 0.5875   0.125185
 C 0.0293 0.6563 0.5701   -0.214834
 C 0.0898 0.7141 0.6149   0.160157
 C 0.6342 0.1594 0.428   -0.135919
 C 0.6353 0.1014 0.4746   -0.0639
 C 0.5965 0.0876 0.5392   -0.024922
 C 0.5567 0.1339 0.5558   -0.093518
 C 0.5553 0.1914 0.5094   -0.10325
 C 0.5926 0.2029 0.4452   -0.027504
 C 0.6798 0.1744 0.3592   0.674466
 C 0.5606 0.9473 0.6939   0.188842
 C 0.5598 0.0081 0.652   -0.223241
 C 0.5961 0.0232 0.5875   0.12519
 C 0.627 0.9707 0.5701   -0.214835
 C 0.6243 0.9102 0.6149   0.160155
 C 0.5252 0.3658 0.428   -0.135925
 C 0.4661 0.3647 0.4746   -0.063899
 C 0.4911 0.4035 0.5392   -0.024923
 C 0.5772 0.4433 0.5558   -0.093519
 C 0.6361 0.4447 0.5094   -0.10325
 C 0.6103 0.4074 0.4452   -0.027507
 C 0.4946 0.3202 0.3592   0.674466
 C 0.3867 0.4394 0.6939   0.188847
 C 0.4483 0.4402 0.652   -0.223243
 C 0.4271 0.4039 0.5875   0.125186
 C 0.3437 0.373 0.5701   -0.214836
 C 0.2859 0.3757 0.6149   0.160161
 C 0.6342 0.4748 0.072   -0.135923
 C 0.6353 0.5339 0.0254   -0.063899
 C 0.5965 0.5089 0.9608   -0.024923
 C 0.5567 0.4228 0.9442   -0.09352
 C 0.5553 0.3639 0.9906   -0.10325
 C 0.5926 0.3897 0.0548   -0.027505
 C 0.6798 0.5054 0.1408   0.674483
 C 0.5606 0.6133 0.8061   0.188838
 C 0.5598 0.5517 0.848   -0.223238
 C 0.5961 0.5729 0.9125   0.125185
 C 0.627 0.6563 0.9299   -0.214834
 C 0.6243 0.7141 0.8851   0.160158
 C 0.5252 0.1594 0.072   -0.135919
 C 0.4661 0.1014 0.0254   -0.0639
 C 0.4911 0.0876 0.9608   -0.024922
 C 0.5772 0.1339 0.9442   -0.093518
 C 0.6361 0.1914 0.9906   -0.103251
 C 0.6103 0.2029 0.0548   -0.027505
 C 0.4946 0.1744 0.1408   0.674466
 C 0.3867 0.9473 0.8061   0.188842
 C 0.4483 0.0081 0.848   -0.223241
 C 0.4271 0.0232 0.9125   0.12519
 C 0.3437 0.9707 0.9299   -0.214835
 C 0.2859 0.9102 0.8851   0.160155
 C 0.8406 0.3658 0.072   -0.135925
 C 0.8986 0.3647 0.0254   -0.063899
 C 0.9124 0.4035 0.9608   -0.024923
 C 0.8661 0.4433 0.9442   -0.09352
 C 0.8086 0.4447 0.9906   -0.103249
 C 0.7971 0.4074 0.0548   -0.027507
 C 0.8256 0.3202 0.1408   0.674466
 C 0.0527 0.4394 0.8061   0.188847
 C 0.9919 0.4402 0.848   -0.223243
 C 0.9768 0.4039 0.9125   0.125186
 C 0.0293 0.373 0.9299   -0.214836
 C 0.0898 0.3757 0.8851   0.160161
 C 0.1594 0.5252 0.572   -0.135923
 C 0.1014 0.4661 0.5254   -0.0639
 C 0.0876 0.4911 0.4608   -0.024923
 C 0.1339 0.5772 0.4442   -0.09352
 C 0.1914 0.6361 0.4906   -0.103251
 C 0.2029 0.6103 0.5548   -0.027505
 C 0.1744 0.4946 0.6408   0.674483
 C 0.9473 0.3867 0.3061   0.188838
 C 0.0081 0.4483 0.348   -0.223238
 C 0.0232 0.4271 0.4125   0.125185
 C 0.9707 0.3437 0.4299   -0.214834
 C 0.9102 0.2859 0.3851   0.160158
 C 0.3658 0.8406 0.572   -0.135919
 C 0.3647 0.8986 0.5254   -0.063899
 C 0.4035 0.9124 0.4608   -0.024922
 C 0.4433 0.8661 0.4442   -0.093518
 C 0.4447 0.8086 0.4906   -0.10325
 C 0.4074 0.7971 0.5548   -0.027504
 C 0.3202 0.8256 0.6408   0.674466
 C 0.4394 0.0527 0.3061   0.188842
 C 0.4402 0.9919 0.348   -0.223241
 C 0.4039 0.9768 0.4125   0.12519
 C 0.373 0.0293 0.4299   -0.214835
 C 0.3757 0.0898 0.3851   0.160155
 C 0.4748 0.6342 0.572   -0.135925
 C 0.5339 0.6353 0.5254   -0.063899
 C 0.5089 0.5965 0.4608   -0.024923
 C 0.4228 0.5567 0.4442   -0.093519
 C 0.3639 0.5553 0.4906   -0.10325
 C 0.3897 0.5926 0.5548   -0.027507
 C 0.5054 0.6798 0.6408   0.674466
 C 0.6133 0.5606 0.3061   0.188847
 C 0.5517 0.5598 0.348   -0.223243
 C 0.5729 0.5961 0.4125   0.125186
 C 0.6563 0.627 0.4299   -0.214836
 C 0.7141 0.6243 0.3851   0.160161
 C 0.3658 0.5252 0.928   -0.135923
 C 0.3647 0.4661 0.9746   -0.063899
 C 0.4035 0.4911 0.0392   -0.024923
 C 0.4433 0.5772 0.0558   -0.09352
 C 0.4447 0.6361 0.0094   -0.10325
 C 0.4074 0.6103 0.9452   -0.027505
 C 0.3202 0.4946 0.8592   0.674483
 C 0.4394 0.3867 0.1939   0.188838
 C 0.4402 0.4483 0.152   -0.223238
 C 0.4039 0.4271 0.0875   0.125185
 C 0.373 0.3437 0.0701   -0.214834
 C 0.3757 0.2859 0.1149   0.160158
 C 0.4748 0.8406 0.928   -0.135919
 C 0.5339 0.8986 0.9746   -0.0639
 C 0.5089 0.9124 0.0392   -0.024922
 C 0.4228 0.8661 0.0558   -0.093518
 C 0.3639 0.8086 0.0094   -0.103251
 C 0.3897 0.7971 0.9452   -0.027505
 C 0.5054 0.8256 0.8592   0.674466
 C 0.6133 0.0527 0.1939   0.188842
 C 0.5517 0.9919 0.152   -0.223241
 C 0.5729 0.9768 0.0875   0.12519
 C 0.6563 0.0293 0.0701   -0.214835
 C 0.7141 0.0898 0.1149   0.160155
 C 0.1594 0.6342 0.928   -0.135925
 C 0.1014 0.6353 0.9746   -0.063899
 C 0.0876 0.5965 0.0392   -0.024923
 C 0.1339 0.5567 0.0558   -0.09352
 C 0.1914 0.5553 0.0094   -0.103249
 C 0.2029 0.5926 0.9452   -0.027507
 C 0.1744 0.6798 0.8592   0.674466
 C 0.9473 0.5606 0.1939   0.188847
 C 0.0081 0.5598 0.152   -0.223243
 C 0.0232 0.5961 0.0875   0.125186
 C 0.9707 0.627 0.0701   -0.214836
 C 0.9102 0.6243 0.1149   0.160161
 N 0.1016 0.6937 0.6778   -0.370754
 N 0.5921 0.8984 0.6778   -0.370734
 N 0.3063 0.4079 0.6778   -0.370765
 N 0.5921 0.6937 0.8222   -0.370754
 N 0.3063 0.8984 0.8222   -0.370734
 N 0.1016 0.4079 0.8222   -0.370765
 N 0.8984 0.3063 0.3222   -0.370754
 N 0.4079 0.1016 0.3222   -0.370734
 N 0.6937 0.5921 0.3222   -0.370765
 N 0.4079 0.3063 0.1778   -0.370754
 N 0.6937 0.1016 0.1778   -0.370734
 N 0.8984 0.5921 0.1778   -0.370765
 O 0.8668 0.584 0.34717   -0.627967
 O 0.7729 0.4527 0.31781   -0.667874
 O 0.7172 0.1332 0.34717   -0.627961
 O 0.6798 0.2271 0.31781   -0.667837
 O 0.416 0.2828 0.34717   -0.627957
 O 0.5473 0.3202 0.31781   -0.667832
 O 0.7172 0.584 0.15283   -0.627967
 O 0.6798 0.4527 0.18219   -0.667874
 O 0.416 0.1332 0.15283   -0.627961
 O 0.5473 0.2271 0.18219   -0.667837
 O 0.8668 0.2828 0.15283   -0.627957
 O 0.7729 0.3202 0.18219   -0.667832
 O 0.1332 0.416 0.65283   -0.627967
 O 0.2271 0.5473 0.68219   -0.667874
 O 0.2828 0.8668 0.65283   -0.627961
 O 0.3202 0.7729 0.68219   -0.667837
 O 0.584 0.7172 0.65283   -0.627957
 O 0.4527 0.6798 0.68219   -0.667832
 O 0.2828 0.416 0.84717   -0.627967
 O 0.3202 0.5473 0.81781   -0.667874
 O 0.584 0.8668 0.84717   -0.627961
 O 0.4527 0.7729 0.81781   -0.667837
 O 0.1332 0.7172 0.84717   -0.627957
 O 0.2271 0.6798 0.81781   -0.667832
