{'_ref': 'TBD', '_srcid': 'CAKYAQ_clean', 'submitters': [{'name': 'Dalar Nazarian Jeff Camp and David Sholl', 'email': 'dalar@gatech.edu jcamp6@gatech.edu'}], '_method': 'VASP DFT with PBE;DDEC'}
data_CdH16C24(NO2)2
_symmetry_space_group_name_H-M   'P 1'
_cell_length_a   14.49800000
_cell_length_b   14.89900000
_cell_length_c   17.47300000
_cell_angle_alpha   90.00000000
_cell_angle_beta   90.00000000
_cell_angle_gamma   90.00000000
_symmetry_Int_Tables_number   1
_chemical_formula_structural   CdH16C24(NO2)2
_chemical_formula_sum   'Cd4 H64 C96 N8 O16'
_cell_volume   3774.26763105
_cell_formula_units_Z   4
loop_
 _symmetry_equiv_pos_site_id
 _symmetry_equiv_pos_as_xyz
  1  'x, y, z'
loop_
 _atom_site_label
 _atom_site_fract_x
 _atom_site_fract_y
 _atom_site_fract_z
 _atom_site_charge
 Cd 0.25 0.5 0.15367   0.928589
 Cd 0.75 0.0 0.65367   0.928589
 Cd 0.25 0.0 0.34633   0.928589
 Cd 0.75 0.5 0.84633   0.928589
 H 0.7277 0.8638 0.7949   0.080991
 H 0.807 0.7793 0.8804   0.129923
 H 0.0403 0.8749 0.7916   0.132621
 H 0.954 0.9553 0.7077   0.084896
 H 0.892 0.67 0.9265   0.112605
 H 0.9768 0.5875 0.0136   0.106367
 H 0.1888 0.7533 0.9864   0.09989
 H 0.1059 0.8355 0.8983   0.102919
 H 0.7723 0.1362 0.7949   0.080991
 H 0.693 0.2207 0.8804   0.129923
 H 0.4597 0.1251 0.7916   0.132621
 H 0.546 0.0447 0.7077   0.084896
 H 0.608 0.33 0.9265   0.112605
 H 0.5232 0.4125 0.0136   0.106367
 H 0.3112 0.2467 0.9864   0.09989
 H 0.3941 0.1645 0.8983   0.102919
 H 0.2277 0.6362 0.2949   0.080991
 H 0.307 0.7207 0.3804   0.129923
 H 0.5403 0.6251 0.2916   0.132621
 H 0.454 0.5447 0.2077   0.084896
 H 0.392 0.83 0.4265   0.112605
 H 0.4768 0.9125 0.5136   0.106367
 H 0.6888 0.7467 0.4864   0.09989
 H 0.6059 0.6645 0.3983   0.102919
 H 0.2723 0.3638 0.2949   0.080991
 H 0.193 0.2793 0.3804   0.129923
 H 0.9597 0.3749 0.2916   0.132621
 H 0.046 0.4553 0.2077   0.084896
 H 0.108 0.17 0.4265   0.112605
 H 0.0232 0.0875 0.5136   0.106367
 H 0.8112 0.2533 0.4864   0.09989
 H 0.8941 0.3355 0.3983   0.102919
 H 0.7723 0.3638 0.7051   0.080991
 H 0.693 0.2793 0.6196   0.129923
 H 0.4597 0.3749 0.7084   0.132621
 H 0.546 0.4553 0.7923   0.084896
 H 0.608 0.17 0.5735   0.112605
 H 0.5232 0.0875 0.4864   0.106367
 H 0.3112 0.2533 0.5136   0.09989
 H 0.3941 0.3355 0.6017   0.102919
 H 0.7277 0.6362 0.7051   0.080991
 H 0.807 0.7207 0.6196   0.129923
 H 0.0403 0.6251 0.7084   0.132621
 H 0.954 0.5447 0.7923   0.084896
 H 0.892 0.83 0.5735   0.112605
 H 0.9768 0.9125 0.4864   0.106367
 H 0.1888 0.7467 0.5136   0.09989
 H 0.1059 0.6645 0.6017   0.102919
 H 0.2723 0.1362 0.2051   0.080991
 H 0.193 0.2207 0.1196   0.129923
 H 0.9597 0.1251 0.2084   0.132621
 H 0.046 0.0447 0.2923   0.084896
 H 0.108 0.33 0.0735   0.112605
 H 0.0232 0.4125 0.9864   0.106367
 H 0.8112 0.2467 0.0136   0.09989
 H 0.8941 0.1645 0.1017   0.102919
 H 0.2277 0.8638 0.2051   0.080991
 H 0.307 0.7793 0.1196   0.129923
 H 0.5403 0.8749 0.2084   0.132621
 H 0.454 0.9553 0.2923   0.084896
 H 0.392 0.67 0.0735   0.112605
 H 0.4768 0.5875 0.9864   0.106367
 H 0.6888 0.7533 0.0136   0.09989
 H 0.6059 0.8355 0.1017   0.102919
 C 0.7918 0.8666 0.7945   0.156889
 C 0.8394 0.815 0.84601   -0.196677
 C 0.9344 0.815 0.84783   0.126264
 C 0.9763 0.871 0.7937   -0.216477
 C 0.9237 0.9202 0.7438   0.177914
 C 0.9886 0.7626 0.90351   0.007626
 C 0.9518 0.6877 0.9383   -0.109546
 C 0.003 0.6379 0.99096   -0.028028
 C 0.0913 0.6623 0.00968   -0.118327
 C 0.1288 0.7363 0.9746   -0.050419
 C 0.0788 0.786 0.9218   -0.13666
 C 0.1461 0.6075 0.0652   0.652629
 C 0.7082 0.1334 0.7945   0.156889
 C 0.6606 0.185 0.84601   -0.196677
 C 0.5656 0.185 0.84783   0.126264
 C 0.5237 0.129 0.7937   -0.216477
 C 0.5763 0.0798 0.7438   0.177914
 C 0.5114 0.2374 0.90351   0.007626
 C 0.5482 0.3123 0.9383   -0.109546
 C 0.497 0.3621 0.99096   -0.028028
 C 0.4087 0.3377 0.00968   -0.118327
 C 0.3712 0.2637 0.9746   -0.050419
 C 0.4212 0.214 0.9218   -0.13666
 C 0.3539 0.3925 0.0652   0.652629
 C 0.2918 0.6334 0.2945   0.156889
 C 0.3394 0.685 0.34601   -0.196677
 C 0.4344 0.685 0.34783   0.126264
 C 0.4763 0.629 0.2937   -0.216477
 C 0.4237 0.5798 0.2438   0.177914
 C 0.4886 0.7374 0.40351   0.007626
 C 0.4518 0.8123 0.4383   -0.109546
 C 0.503 0.8621 0.49096   -0.028029
 C 0.5913 0.8377 0.50968   -0.118327
 C 0.6288 0.7637 0.4746   -0.050419
 C 0.5788 0.714 0.4218   -0.13666
 C 0.6461 0.8925 0.5652   0.652629
 C 0.2082 0.3666 0.2945   0.156889
 C 0.1606 0.315 0.34601   -0.196677
 C 0.0656 0.315 0.34783   0.126264
 C 0.0237 0.371 0.2937   -0.216477
 C 0.0763 0.4202 0.2438   0.177914
 C 0.0114 0.2626 0.40351   0.007626
 C 0.0482 0.1877 0.4383   -0.109546
 C 0.997 0.1379 0.49096   -0.028029
 C 0.9087 0.1623 0.50968   -0.118327
 C 0.8712 0.2363 0.4746   -0.050419
 C 0.9212 0.286 0.4218   -0.13666
 C 0.8539 0.1075 0.5652   0.652629
 C 0.7082 0.3666 0.7055   0.156889
 C 0.6606 0.315 0.65399   -0.196677
 C 0.5656 0.315 0.65217   0.126265
 C 0.5237 0.371 0.7063   -0.216477
 C 0.5763 0.4202 0.7562   0.177914
 C 0.5114 0.2626 0.59649   0.007626
 C 0.5482 0.1877 0.5617   -0.109546
 C 0.497 0.1379 0.50904   -0.028029
 C 0.4087 0.1623 0.49032   -0.118327
 C 0.3712 0.2363 0.5254   -0.050419
 C 0.4212 0.286 0.5782   -0.13666
 C 0.3539 0.1075 0.4348   0.652629
 C 0.7918 0.6334 0.7055   0.156889
 C 0.8394 0.685 0.65399   -0.196677
 C 0.9344 0.685 0.65217   0.126265
 C 0.9763 0.629 0.7063   -0.216477
 C 0.9237 0.5798 0.7562   0.177914
 C 0.9886 0.7374 0.59649   0.007626
 C 0.9518 0.8123 0.5617   -0.109546
 C 0.003 0.8621 0.50904   -0.028029
 C 0.0913 0.8377 0.49032   -0.118327
 C 0.1288 0.7637 0.5254   -0.050419
 C 0.0788 0.714 0.5782   -0.13666
 C 0.1461 0.8925 0.4348   0.652629
 C 0.2082 0.1334 0.2055   0.156889
 C 0.1606 0.185 0.15399   -0.196677
 C 0.0656 0.185 0.15217   0.126265
 C 0.0237 0.129 0.2063   -0.216477
 C 0.0763 0.0798 0.2562   0.177914
 C 0.0114 0.2374 0.09649   0.007626
 C 0.0482 0.3123 0.0617   -0.109546
 C 0.997 0.3621 0.00904   -0.028029
 C 0.9087 0.3377 0.99032   -0.118327
 C 0.8712 0.2637 0.0254   -0.050419
 C 0.9212 0.214 0.0782   -0.13666
 C 0.8539 0.3925 0.9348   0.652629
 C 0.2918 0.8666 0.2055   0.156889
 C 0.3394 0.815 0.15399   -0.196677
 C 0.4344 0.815 0.15217   0.126265
 C 0.4763 0.871 0.2063   -0.216477
 C 0.4237 0.9202 0.2562   0.177914
 C 0.4886 0.7626 0.09649   0.007626
 C 0.4518 0.6877 0.0617   -0.109546
 C 0.503 0.6379 0.00904   -0.028029
 C 0.5913 0.6623 0.99032   -0.118327
 C 0.6288 0.7363 0.0254   -0.050419
 C 0.5788 0.786 0.0782   -0.13666
 C 0.6461 0.6075 0.9348   0.652629
 N 0.83251 0.92067 0.74364   -0.370162
 N 0.66749 0.07933 0.74364   -0.370162
 N 0.33251 0.57933 0.24364   -0.370162
 N 0.16749 0.42067 0.24364   -0.370162
 N 0.66749 0.42067 0.75636   -0.370162
 N 0.83251 0.57933 0.75636   -0.370162
 N 0.16749 0.07933 0.25636   -0.370162
 N 0.33251 0.92067 0.25636   -0.370162
 O 0.10977 0.5417 0.09671   -0.601429
 O 0.2282 0.6275 0.07723   -0.608103
 O 0.39023 0.4583 0.09671   -0.601429
 O 0.2718 0.3725 0.07723   -0.608103
 O 0.60977 0.9583 0.59671   -0.601429
 O 0.7282 0.8725 0.57723   -0.608103
 O 0.89023 0.0417 0.59671   -0.601429
 O 0.7718 0.1275 0.57723   -0.608103
 O 0.39023 0.0417 0.40329   -0.601429
 O 0.2718 0.1275 0.42277   -0.608103
 O 0.10977 0.9583 0.40329   -0.601429
 O 0.2282 0.8725 0.42277   -0.608103
 O 0.89023 0.4583 0.90329   -0.601429
 O 0.7718 0.3725 0.92277   -0.608103
 O 0.60977 0.5417 0.90329   -0.601429
 O 0.7282 0.6275 0.92277   -0.608103
