{'_ref': 'TBD', '_srcid': 'CAKYAQ_clean', 'submitters': [{'name': 'Dalar Nazarian Jeff Camp and David Sholl', 'email': 'dalar@gatech.edu jcamp6@gatech.edu'}], '_method': 'VASP DFT with PBE;DDEC'}
data_NiH13C21N7O4
_symmetry_space_group_name_H-M   'P 1'
_cell_length_a   11.14400000
_cell_length_b   15.23915102
_cell_length_c   16.69500000
_cell_angle_alpha   114.41908431
_cell_angle_beta   90.00000000
_cell_angle_gamma   111.44652964
_symmetry_Int_Tables_number   1
_chemical_formula_structural   NiH13C21N7O4
_chemical_formula_sum   'Ni4 H52 C84 N28 O16'
_cell_volume   2364.32808096
_cell_formula_units_Z   4
loop_
 _symmetry_equiv_pos_site_id
 _symmetry_equiv_pos_as_xyz
  1  'x, y, z'
loop_
 _atom_site_label
 _atom_site_fract_x
 _atom_site_fract_y
 _atom_site_fract_z
 _atom_site_charge
 Ni 0.5 0.5 0.0   0.75104
 Ni 0.0 0.5 0.5   0.669502
 Ni 0.0 0.5 0.0   0.903396
 Ni 0.5 0.5 0.5   0.901018
 H 0.8761 0.6702 0.37   0.126967
 H 0.4721 0.4292 0.1799   0.110931
 H 0.7585 0.6956 0.1053   0.079798
 H 0.3862 0.672 0.1176   0.081533
 H 0.4151 0.842 0.1578   0.135935
 H 0.6688 0.8538 0.9891   0.136934
 H 0.6303 0.6832 0.9529   0.062093
 H 0.8168 0.1326 0.9798   0.136036
 H 0.9392 0.2676 0.9469   0.083842
 H 0.8115 0.4598 0.124   0.076527
 H 0.685 0.3306 0.161   0.115375
 H 0.5157 0.1714 0.1757   0.317955
 H 0.8896 0.7544 0.2407   0.342199
 H 0.2059 0.3298 0.13   0.125533
 H 0.0429 0.5708 0.3201   0.111644
 H 0.0629 0.3044 0.3947   0.079303
 H 0.7142 0.328 0.3824   0.080975
 H 0.5731 0.158 0.3422   0.135106
 H 0.815 0.1462 0.5109   0.135467
 H 0.9471 0.3168 0.5471   0.060516
 H 0.6842 0.8674 0.5202   0.135524
 H 0.6716 0.7324 0.5531   0.082742
 H 0.3517 0.5402 0.376   0.075988
 H 0.3544 0.6694 0.339   0.115587
 H 0.3443 0.8286 0.3243   0.316331
 H 0.1352 0.2456 0.2593   0.341469
 H 0.1239 0.3298 0.63   0.126974
 H 0.5279 0.5708 0.8201   0.11093
 H 0.2415 0.3044 0.8947   0.079795
 H 0.6138 0.328 0.8824   0.081534
 H 0.5849 0.158 0.8422   0.135934
 H 0.3312 0.1462 0.0109   0.136931
 H 0.3697 0.3168 0.0471   0.062091
 H 0.1832 0.8674 0.0202   0.13603
 H 0.0608 0.7324 0.0531   0.083837
 H 0.1885 0.5402 0.876   0.076527
 H 0.315 0.6694 0.839   0.115375
 H 0.4843 0.8286 0.8243   0.317954
 H 0.1104 0.2456 0.7593   0.342191
 H 0.7941 0.6702 0.87   0.125531
 H 0.9571 0.4292 0.6799   0.111647
 H 0.9371 0.6956 0.6053   0.079306
 H 0.2858 0.672 0.6176   0.080975
 H 0.4269 0.842 0.6578   0.135106
 H 0.185 0.8538 0.4891   0.135466
 H 0.0529 0.6832 0.4529   0.060526
 H 0.3158 0.1326 0.4798   0.135519
 H 0.3284 0.2676 0.4469   0.082745
 H 0.6483 0.4598 0.624   0.075988
 H 0.6456 0.3306 0.661   0.115587
 H 0.6557 0.1714 0.6757   0.316332
 H 0.8648 0.7544 0.7407   0.341466
 C 0.763 0.5294 0.4283   0.626533
 C 0.7121 0.541 0.35   -0.086206
 C 0.5902 0.4674 0.2923   -0.103964
 C 0.4949 0.3732 0.303   0.682118
 C 0.7958 0.6226 0.3328   -0.164112
 C 0.7549 0.6308 0.2573   0.105574
 C 0.6362 0.5572 0.1987   0.160621
 C 0.5523 0.4764 0.2172   -0.133795
 C 0.7381 0.6636 0.1434   0.257194
 C 0.4437 0.7086 0.0909   0.158358
 C 0.4604 0.8116 0.1157   -0.173191
 C 0.5454 0.8692 0.0771   0.052936
 C 0.6098 0.8186 0.0161   -0.182756
 C 0.5863 0.7152 0.9951   0.145489
 C 0.5701 0.9792 0.0984   0.339163
 C 0.6563 0.127 0.0951   0.297526
 C 0.7378 0.2168 0.0759   0.033887
 C 0.8146 0.1986 0.0101   -0.171086
 C 0.8875 0.2804 0.9905   0.156612
 C 0.8123 0.3932 0.0945   0.168685
 C 0.7366 0.3162 0.1176   -0.166174
 C 0.2336 0.4706 0.0717   0.634096
 C 0.1711 0.459 0.15   -0.090159
 C 0.1228 0.5326 0.2077   -0.108141
 C 0.1217 0.6268 0.197   0.684262
 C 0.1732 0.3774 0.1672   -0.164627
 C 0.1241 0.3692 0.2427   0.107536
 C 0.079 0.4428 0.3013   0.154542
 C 0.0759 0.5236 0.2828   -0.12906
 C 0.0745 0.3364 0.3566   0.255747
 C 0.7351 0.2914 0.4091   0.152275
 C 0.6488 0.1884 0.3843   -0.175051
 C 0.6762 0.1308 0.4229   0.049294
 C 0.7912 0.1814 0.4839   -0.184814
 C 0.8711 0.2848 0.5049   0.14297
 C 0.5909 0.0208 0.4016   0.341298
 C 0.5293 0.873 0.4049   0.29624
 C 0.521 0.7832 0.4241   0.033926
 C 0.616 0.8014 0.4899   -0.170963
 C 0.6071 0.7196 0.5095   0.157519
 C 0.4191 0.6068 0.4055   0.169512
 C 0.4204 0.6838 0.3824   -0.168566
 C 0.237 0.4706 0.5717   0.626533
 C 0.2879 0.459 0.65   -0.086205
 C 0.4098 0.5326 0.7077   -0.103964
 C 0.5051 0.6268 0.697   0.682118
 C 0.2042 0.3774 0.6672   -0.164115
 C 0.2451 0.3692 0.7427   0.105573
 C 0.3638 0.4428 0.8013   0.160621
 C 0.4477 0.5236 0.7828   -0.133797
 C 0.2619 0.3364 0.8566   0.257194
 C 0.5563 0.2914 0.9091   0.158356
 C 0.5396 0.1884 0.8843   -0.173194
 C 0.4546 0.1308 0.9229   0.052933
 C 0.3902 0.1814 0.9839   -0.182757
 C 0.4137 0.2848 0.0049   0.145485
 C 0.4299 0.0208 0.9016   0.339161
 C 0.3437 0.873 0.9049   0.297523
 C 0.2622 0.7832 0.9241   0.033885
 C 0.1854 0.8014 0.9899   -0.171086
 C 0.1125 0.7196 0.0095   0.156612
 C 0.1877 0.6068 0.9055   0.168683
 C 0.2634 0.6838 0.8824   -0.166179
 C 0.7664 0.5294 0.9283   0.634095
 C 0.8289 0.541 0.85   -0.090159
 C 0.8772 0.4674 0.7923   -0.10814
 C 0.8783 0.3732 0.803   0.684263
 C 0.8268 0.6226 0.8328   -0.164626
 C 0.8759 0.6308 0.7573   0.107535
 C 0.921 0.5572 0.6987   0.154542
 C 0.9241 0.4764 0.7172   -0.129062
 C 0.9255 0.6636 0.6434   0.255746
 C 0.2649 0.7086 0.5909   0.152275
 C 0.3512 0.8116 0.6157   -0.175049
 C 0.3238 0.8692 0.5771   0.049294
 C 0.2088 0.8186 0.5161   -0.184812
 C 0.1289 0.7152 0.4951   0.142966
 C 0.4091 0.9792 0.5984   0.341298
 C 0.4707 0.127 0.5951   0.29624
 C 0.479 0.2168 0.5759   0.033926
 C 0.384 0.1986 0.5101   -0.17096
 C 0.3929 0.2804 0.4905   0.157518
 C 0.5809 0.3932 0.5945   0.169513
 C 0.5796 0.3162 0.6176   -0.168566
 N 0.5049 0.6576 0.0309   -0.307854
 N 0.6635 0.0332 0.0619   -0.489961
 N 0.5069 0.0346 0.15   -0.336584
 N 0.563 0.131 0.1479   -0.101762
 N 0.8874 0.377 0.0312   -0.319665
 N 0.8181 0.6996 0.2215   -0.299413
 N 0.6276 0.5786 0.1254   -0.391686
 N 0.8473 0.3424 0.4691   -0.290689
 N 0.6303 0.9668 0.4381   -0.490659
 N 0.4723 0.9654 0.35   -0.340561
 N 0.432 0.869 0.3521   -0.101514
 N 0.5104 0.623 0.4688   -0.319804
 N 0.1185 0.3004 0.2785   -0.303447
 N 0.049 0.4214 0.3746   -0.374188
 N 0.4951 0.3424 0.9691   -0.307854
 N 0.3365 0.9668 0.9381   -0.489963
 N 0.4931 0.9654 0.85   -0.336585
 N 0.437 0.869 0.8521   -0.101763
 N 0.1126 0.623 0.9688   -0.319665
 N 0.1819 0.3004 0.7785   -0.299411
 N 0.3724 0.4214 0.8746   -0.391687
 N 0.1527 0.6576 0.5309   -0.290688
 N 0.3697 0.0332 0.5619   -0.490657
 N 0.5277 0.0346 0.65   -0.34056
 N 0.568 0.131 0.6479   -0.101514
 N 0.4896 0.377 0.5312   -0.319804
 N 0.8815 0.6996 0.7215   -0.303445
 N 0.951 0.5786 0.6254   -0.374188
 O 0.87645 0.5303 0.4304   -0.533521
 O 0.69188 0.52056 0.4864   -0.574095
 O 0.43643 0.38686 0.3687   -0.610411
 O 0.4742 0.2838 0.2413   -0.644885
 O 0.34615 0.4697 0.0696   -0.542736
 O 0.17132 0.47944 0.0136   -0.575082
 O 0.04957 0.61314 0.1313   -0.613438
 O 0.1904 0.7162 0.2587   -0.644061
 O 0.12355 0.4697 0.5696   -0.533521
 O 0.30812 0.47944 0.5136   -0.574095
 O 0.56357 0.61314 0.6313   -0.610411
 O 0.5258 0.7162 0.7587   -0.644885
 O 0.65385 0.5303 0.9304   -0.542736
 O 0.82868 0.52056 0.9864   -0.575083
 O 0.95043 0.38686 0.8687   -0.613438
 O 0.8096 0.2838 0.7413   -0.644061
