{'_ref': 'TBD', '_srcid': 'CAKYAQ_clean', 'submitters': [{'name': 'Dalar Nazarian Jeff Camp and David Sholl', 'email': 'dalar@gatech.edu jcamp6@gatech.edu'}], '_method': 'VASP DFT with PBE;DDEC'}
data_SrZnH8(C2O)8
_symmetry_space_group_name_H-M   'P 1'
_cell_length_a   10.40640000
_cell_length_b   14.49840004
_cell_length_c   18.53320000
_cell_angle_alpha   90.00000000
_cell_angle_beta   90.00000000
_cell_angle_gamma   100.15299839
_symmetry_Int_Tables_number   1
_chemical_formula_structural   SrZnH8(C2O)8
_chemical_formula_sum   'Sr4 Zn4 H32 C64 O32'
_cell_volume   2752.43061918
_cell_formula_units_Z   4
loop_
 _symmetry_equiv_pos_site_id
 _symmetry_equiv_pos_as_xyz
  1  'x, y, z'
loop_
 _atom_site_label
 _atom_site_fract_x
 _atom_site_fract_y
 _atom_site_fract_z
 _atom_site_charge
 Sr 0.89346 0.68249 0.3047   1.68868
 Sr 0.60654 0.81751 0.8047   1.68868
 Sr 0.10654 0.31751 0.6953   1.68868
 Sr 0.39346 0.18249 0.1953   1.68868
 Zn 0.80583 0.444 0.18125   1.044185
 Zn 0.69417 0.056 0.68125   1.044185
 Zn 0.19417 0.556 0.81875   1.044185
 Zn 0.30583 0.944 0.31875   1.044185
 H 0.5839 0.1093 0.0687   0.077159
 H 0.5846 0.0216 0.9654   0.085301
 H 0.7702 0.2466 0.8607   0.092652
 H 0.7809 0.3308 0.9667   0.101254
 H 0.2391 0.6665 0.2619   0.106409
 H 0.4599 0.6647 0.2749   0.101074
 H 0.4372 0.461 0.1294   0.095798
 H 0.2136 0.4573 0.1192   0.109542
 H 0.9161 0.3907 0.5687   0.077159
 H 0.9154 0.4784 0.4654   0.085301
 H 0.7298 0.2534 0.3607   0.092652
 H 0.7191 0.1692 0.4667   0.101254
 H 0.2609 0.8335 0.7619   0.106409
 H 0.0401 0.8353 0.7749   0.101074
 H 0.0628 0.039 0.6294   0.095798
 H 0.2864 0.0427 0.6192   0.109542
 H 0.4161 0.8907 0.9313   0.077159
 H 0.4154 0.9784 0.0346   0.085301
 H 0.2298 0.7534 0.1393   0.092652
 H 0.2191 0.6692 0.0333   0.101254
 H 0.7609 0.3335 0.7381   0.106409
 H 0.5401 0.3353 0.7251   0.101074
 H 0.5628 0.539 0.8706   0.095798
 H 0.7864 0.5427 0.8808   0.109542
 H 0.0839 0.6093 0.4313   0.077159
 H 0.0846 0.5216 0.5346   0.085301
 H 0.2702 0.7466 0.6393   0.092652
 H 0.2809 0.8308 0.5333   0.101254
 H 0.7391 0.1665 0.2381   0.106409
 H 0.9599 0.1647 0.2251   0.101074
 H 0.9372 0.961 0.3706   0.095798
 H 0.7136 0.9573 0.3808   0.109542
 C 0.6833 0.2292 0.0284   -0.144197
 C 0.6234 0.1369 0.0271   -0.078911
 C 0.6213 0.0849 0.9647   -0.047592
 C 0.6729 0.1256 0.9016   -0.1434
 C 0.7332 0.2182 0.9026   -0.041856
 C 0.7387 0.2687 0.9662   -0.048309
 C 0.6874 0.2855 0.0973   0.754027
 C 0.6623 0.0687 0.8331   0.745429
 C 0.2033 0.5611 0.1895   -0.116478
 C 0.2778 0.624 0.2357   -0.053341
 C 0.4108 0.6235 0.2428   -0.048991
 C 0.4707 0.5631 0.2032   -0.135535
 C 0.3974 0.5017 0.1568   -0.08571
 C 0.2628 0.5 0.1502   -0.073247
 C 0.0586 0.5591 0.1842   0.739527
 C 0.6148 0.5627 0.2123   0.767903
 C 0.8167 0.2708 0.5284   -0.144197
 C 0.8766 0.3631 0.5271   -0.078911
 C 0.8787 0.4151 0.4647   -0.047592
 C 0.8271 0.3744 0.4016   -0.1434
 C 0.7668 0.2818 0.4026   -0.041856
 C 0.7613 0.2313 0.4662   -0.048309
 C 0.8126 0.2145 0.5973   0.754027
 C 0.8377 0.4313 0.3331   0.74543
 C 0.2967 0.9389 0.6895   -0.116478
 C 0.2222 0.876 0.7357   -0.053341
 C 0.0892 0.8765 0.7428   -0.048991
 C 0.0293 0.9369 0.7032   -0.135535
 C 0.1026 0.9983 0.6568   -0.08571
 C 0.2372 0.0 0.6502   -0.073247
 C 0.4414 0.9409 0.6842   0.739527
 C 0.8852 0.9373 0.7123   0.767903
 C 0.3167 0.7708 0.9716   -0.144197
 C 0.3766 0.8631 0.9729   -0.078911
 C 0.3787 0.9151 0.0353   -0.047593
 C 0.3271 0.8744 0.0984   -0.1434
 C 0.2668 0.7818 0.0974   -0.041857
 C 0.2613 0.7313 0.0338   -0.048309
 C 0.3126 0.7145 0.9027   0.754027
 C 0.3377 0.9313 0.1669   0.745429
 C 0.7967 0.4389 0.8105   -0.116478
 C 0.7222 0.376 0.7643   -0.053341
 C 0.5892 0.3765 0.7572   -0.048991
 C 0.5293 0.4369 0.7968   -0.135535
 C 0.6026 0.4983 0.8432   -0.08571
 C 0.7372 0.5 0.8498   -0.073247
 C 0.9414 0.4409 0.8158   0.739527
 C 0.3852 0.4373 0.7877   0.767903
 C 0.1833 0.7292 0.4716   -0.144197
 C 0.1234 0.6369 0.4729   -0.078911
 C 0.1213 0.5849 0.5353   -0.047593
 C 0.1729 0.6256 0.5984   -0.1434
 C 0.2332 0.7182 0.5974   -0.041857
 C 0.2387 0.7687 0.5338   -0.048309
 C 0.1874 0.7855 0.4027   0.754027
 C 0.1623 0.5687 0.6669   0.74543
 C 0.7033 0.0611 0.3105   -0.116478
 C 0.7778 0.124 0.2643   -0.053341
 C 0.9108 0.1235 0.2572   -0.048991
 C 0.9707 0.0631 0.2968   -0.135535
 C 0.8974 0.0017 0.3432   -0.08571
 C 0.7628 0.0 0.3498   -0.073247
 C 0.5586 0.0591 0.3158   0.739527
 C 0.1148 0.0627 0.2877   0.767903
 O 0.6076 0.2581 0.14575   -0.779866
 O 0.7758 0.3566 0.10044   -0.581305
 O 0.7054 0.1126 0.77659   -0.609861
 O 0.6098 0.9847 0.83574   -0.746732
 O 0.9909 0.4844 0.15957   -0.6113
 O 0.013 0.6289 0.20415   -0.748315
 O 0.6647 0.5128 0.16749   -0.651159
 O 0.674 0.6101 0.2599   -0.762833
 O 0.8924 0.2419 0.64575   -0.779866
 O 0.7242 0.1434 0.60044   -0.581305
 O 0.7946 0.3874 0.27659   -0.609861
 O 0.8902 0.5153 0.33574   -0.746732
 O 0.5091 0.0156 0.65957   -0.6113
 O 0.487 0.8711 0.70415   -0.748315
 O 0.8353 0.9872 0.66749   -0.651159
 O 0.826 0.8899 0.7599   -0.762833
 O 0.3924 0.7419 0.85425   -0.779866
 O 0.2242 0.6434 0.89956   -0.581305
 O 0.2946 0.8874 0.22341   -0.609861
 O 0.3902 0.0153 0.16426   -0.746732
 O 0.0091 0.5156 0.84043   -0.6113
 O 0.987 0.3711 0.79585   -0.748315
 O 0.3353 0.4872 0.83251   -0.651159
 O 0.326 0.3899 0.7401   -0.762833
 O 0.1076 0.7581 0.35425   -0.779866
 O 0.2758 0.8566 0.39956   -0.581305
 O 0.2054 0.6126 0.72341   -0.609861
 O 0.1098 0.4847 0.66426   -0.746732
 O 0.4909 0.9844 0.34043   -0.6113
 O 0.513 0.1289 0.29585   -0.748315
 O 0.1647 0.0128 0.33251   -0.651159
 O 0.174 0.1101 0.2401   -0.762833
