{'_ref': 'TBD', '_srcid': 'CAKYAQ_clean', 'submitters': [{'name': 'Dalar Nazarian Jeff Camp and David Sholl', 'email': 'dalar@gatech.edu jcamp6@gatech.edu'}], '_method': 'VASP DFT with PBE;DDEC'}
data_ZnH4(C3N2)2
_symmetry_space_group_name_H-M   'P 1'
_cell_length_a   7.30070000
_cell_length_b   8.83120000
_cell_length_c   8.83120000
_cell_angle_alpha   90.00000000
_cell_angle_beta   90.00000000
_cell_angle_gamma   90.00000000
_symmetry_Int_Tables_number   1
_chemical_formula_structural   ZnH4(C3N2)2
_chemical_formula_sum   'Zn2 H8 C12 N8'
_cell_volume   569.382275177
_cell_formula_units_Z   2
loop_
 _symmetry_equiv_pos_site_id
 _symmetry_equiv_pos_as_xyz
  1  'x, y, z'
loop_
 _atom_site_label
 _atom_site_fract_x
 _atom_site_fract_y
 _atom_site_fract_z
 _atom_site_charge
 Zn 0.75 0.0 0.0   0.690334
 Zn 0.25 0.0 0.0   0.690338
 H 0.72554 0.382 0.0   0.098268
 H 0.72554 0.618 0.0   0.098285
 H 0.22554 0.0 0.382   0.098268
 H 0.22554 0.0 0.618   0.098285
 H 0.27446 0.618 0.0   0.098286
 H 0.27446 0.382 0.0   0.098263
 H 0.77446 0.0 0.382   0.098265
 H 0.77446 0.0 0.618   0.098283
 C 0.0 0.43928 0.0   -0.031036
 C 0.0 0.56072 0.0   -0.030196
 C 0.5 0.0 0.43928   -0.031035
 C 0.5 0.0 0.56072   -0.030197
 C 0.84929 0.34876 0.0   -0.00123
 C 0.84929 0.65124 0.0   -0.001365
 C 0.34929 0.0 0.34876   -0.00123
 C 0.34929 0.0 0.65124   -0.001365
 C 0.15071 0.65124 0.0   -0.001373
 C 0.15071 0.34876 0.0   -0.001233
 C 0.65071 0.0 0.34876   -0.001236
 C 0.65071 0.0 0.65124   -0.001371
 N 0.90686 0.2023 0.0   -0.254279
 N 0.90686 0.7977 0.0   -0.25427
 N 0.40686 0.0 0.2023   -0.25428
 N 0.40686 0.0 0.7977   -0.25427
 N 0.09314 0.7977 0.0   -0.254222
 N 0.09314 0.2023 0.0   -0.254233
 N 0.59314 0.0 0.2023   -0.254232
 N 0.59314 0.0 0.7977   -0.254222
