{'_ref': 'TBD', '_srcid': 'CAKYAQ_clean', 'submitters': [{'name': 'Dalar Nazarian Jeff Camp and David Sholl', 'email': 'dalar@gatech.edu jcamp6@gatech.edu'}], '_method': 'VASP DFT with PBE;DDEC'}
data_CdH4(C3N2)2
_symmetry_space_group_name_H-M   'P 1'
_cell_length_a   10.09030000
_cell_length_b   10.09029989
_cell_length_c   21.25680000
_cell_angle_alpha   90.00000000
_cell_angle_beta   90.00000000
_cell_angle_gamma   120.00000037
_symmetry_Int_Tables_number   1
_chemical_formula_structural   CdH4(C3N2)2
_chemical_formula_sum   'Cd6 H24 C36 N24'
_cell_volume   1874.28948553
_cell_formula_units_Z   6
loop_
 _symmetry_equiv_pos_site_id
 _symmetry_equiv_pos_as_xyz
  1  'x, y, z'
loop_
 _atom_site_label
 _atom_site_fract_x
 _atom_site_fract_y
 _atom_site_fract_z
 _atom_site_charge
 Cd 0.91181 0.08818 0.75   0.777709
 Cd 0.17637 0.08818 0.41667   0.777645
 Cd 0.91181 0.82362 0.08333   0.777662
 Cd 0.08818 0.91181 0.25   0.777711
 Cd 0.82363 0.91182 0.91667   0.777645
 Cd 0.08818 0.17637 0.58333   0.777643
 H 0.21032 0.39891 0.80602   0.095153
 H 0.44173 0.5108 0.64326   0.109217
 H 0.18859 0.78968 0.47269   0.096282
 H 0.06907 0.55827 0.30993   0.109188
 H 0.60109 0.81141 0.13935   0.09538
 H 0.4892 0.93093 0.97659   0.108862
 H 0.78968 0.60109 0.30602   0.095155
 H 0.55827 0.4892 0.14326   0.10922
 H 0.81141 0.21032 0.97269   0.096282
 H 0.93093 0.44173 0.80993   0.109188
 H 0.39891 0.18859 0.63935   0.095381
 H 0.5108 0.06907 0.47659   0.108862
 H 0.81141 0.60109 0.86065   0.095382
 H 0.93093 0.4892 0.02341   0.108863
 H 0.39891 0.21032 0.19398   0.095154
 H 0.5108 0.44173 0.35674   0.109217
 H 0.78968 0.18859 0.52731   0.096283
 H 0.55827 0.06907 0.69007   0.109189
 H 0.18859 0.39891 0.36065   0.095382
 H 0.06907 0.5108 0.52341   0.108862
 H 0.60109 0.78968 0.69398   0.095155
 H 0.4892 0.55827 0.85674   0.109219
 H 0.21032 0.81141 0.02731   0.096279
 H 0.44173 0.93093 0.19007   0.109187
 C 0.36993 0.501 0.73506   -0.068038
 C 0.23701 0.39735 0.76328   0.000584
 C 0.36408 0.45879 0.67391   0.002741
 C 0.13107 0.63007 0.40173   -0.06814
 C 0.16034 0.76299 0.42995   -0.000635
 C 0.09471 0.63592 0.34058   0.00275
 C 0.499 0.86893 0.06839   -0.066223
 C 0.60265 0.83966 0.09661   -0.000149
 C 0.54121 0.90529 0.00724   0.002927
 C 0.63007 0.499 0.23506   -0.068027
 C 0.76299 0.60265 0.26328   0.000585
 C 0.63592 0.54121 0.17391   0.002741
 C 0.86893 0.36993 0.90173   -0.068142
 C 0.83966 0.23701 0.92995   -0.000634
 C 0.90529 0.36408 0.84058   0.002746
 C 0.501 0.13107 0.56839   -0.066226
 C 0.39735 0.16034 0.59661   -0.000154
 C 0.45879 0.09471 0.50724   0.002929
 C 0.86893 0.499 0.93161   -0.066222
 C 0.83966 0.60265 0.90339   -0.000155
 C 0.90529 0.54121 0.99276   0.002927
 C 0.501 0.36993 0.26494   -0.068039
 C 0.39735 0.23701 0.23672   0.000585
 C 0.45879 0.36408 0.32609   0.002741
 C 0.63007 0.13107 0.59827   -0.068139
 C 0.76299 0.16034 0.57005   -0.000636
 C 0.63592 0.09471 0.65942   0.00275
 C 0.13107 0.501 0.43161   -0.066225
 C 0.16034 0.39735 0.40339   -0.000155
 C 0.09471 0.45879 0.49276   0.002929
 C 0.499 0.63007 0.76494   -0.068029
 C 0.60265 0.76299 0.73672   0.000585
 C 0.54121 0.63592 0.82609   0.002744
 C 0.36993 0.86893 0.09827   -0.068145
 C 0.23701 0.83966 0.07005   -0.000625
 C 0.36408 0.90529 0.15942   0.002741
 N 0.14901 0.2911 0.71956   -0.29306
 N 0.22754 0.32907 0.66433   -0.235311
 N 0.14209 0.85099 0.38623   -0.293171
 N 0.10153 0.77246 0.331   -0.23588
 N 0.7089 0.85791 0.05289   -0.293314
 N 0.67093 0.89847 0.99766   -0.235679
 N 0.85099 0.7089 0.21956   -0.293061
 N 0.77246 0.67093 0.16433   -0.235312
 N 0.85791 0.14901 0.88623   -0.293179
 N 0.89847 0.22754 0.831   -0.235866
 N 0.2911 0.14209 0.55289   -0.293292
 N 0.32907 0.10153 0.49766   -0.235686
 N 0.85791 0.7089 0.94711   -0.293289
 N 0.89847 0.67093 0.00234   -0.235682
 N 0.2911 0.14901 0.28044   -0.29306
 N 0.32907 0.22754 0.33567   -0.235311
 N 0.85099 0.14209 0.61377   -0.293171
 N 0.77246 0.10153 0.669   -0.235879
 N 0.14209 0.2911 0.44711   -0.293292
 N 0.10153 0.32907 0.50234   -0.235686
 N 0.7089 0.85099 0.78044   -0.293066
 N 0.67093 0.77246 0.83567   -0.23531
 N 0.14901 0.85791 0.11377   -0.29321
 N 0.22754 0.89847 0.169   -0.235859
