{'_ref': 'TBD', '_srcid': 'CAKYAQ_clean', 'submitters': [{'name': 'Dalar Nazarian Jeff Camp and David Sholl', 'email': 'dalar@gatech.edu jcamp6@gatech.edu'}], '_method': 'VASP DFT with PBE;DDEC'}
data_CuH4(C3N2)2
_symmetry_space_group_name_H-M   'P 1'
_cell_length_a   7.13280013
_cell_length_b   8.72070054
_cell_length_c   9.69832759
_cell_angle_alpha   116.71759504
_cell_angle_beta   111.57563987
_cell_angle_gamma   89.99999522
_symmetry_Int_Tables_number   1
_chemical_formula_structural   CuH4(C3N2)2
_chemical_formula_sum   'Cu2 H8 C12 N8'
_cell_volume   491.074588943
_cell_formula_units_Z   2
loop_
 _symmetry_equiv_pos_site_id
 _symmetry_equiv_pos_as_xyz
  1  'x, y, z'
loop_
 _atom_site_label
 _atom_site_fract_x
 _atom_site_fract_y
 _atom_site_fract_z
 _atom_site_charge
 Cu 0.0 0.0 0.0   0.547746
 Cu 0.5 0.0 0.0   0.546645
 H 0.14172 0.00561 0.38397   0.109147
 H 0.35828 0.62164 0.61603   0.109436
 H 0.25775 0.99439 0.61603   0.108682
 H 0.24225 0.37836 0.38397   0.109008
 H 0.85828 0.99439 0.61603   0.109127
 H 0.64172 0.37836 0.38397   0.109416
 H 0.74225 0.00561 0.38397   0.108664
 H 0.75775 0.62164 0.61603   0.10899
 C 0.2616 0.00379 0.33172   -0.049517
 C 0.2384 0.67207 0.66828   -0.050492
 C 0.42988 0.99621 0.66828   -0.048567
 C 0.07012 0.32793 0.33172   -0.049045
 C 0.7384 0.99621 0.66828   -0.049501
 C 0.7616 0.32793 0.33172   -0.050476
 C 0.57012 0.00379 0.33172   -0.048558
 C 0.92988 0.67207 0.66828   -0.049036
 C 0.46089 0.00694 0.42178   -0.038019
 C 0.03911 0.58516 0.57822   -0.0372
 C 0.53911 0.99306 0.57822   -0.038035
 C 0.96089 0.41484 0.42178   -0.037217
 N 0.24766 0.9987 0.18598   -0.177041
 N 0.25234 0.81272 0.81402   -0.17657
 N 0.56168 0.0013 0.81402   -0.178221
 N 0.93832 0.18728 0.18598   -0.178778
 N 0.75234 0.0013 0.81402   -0.177036
 N 0.74766 0.18728 0.18598   -0.176564
 N 0.43832 0.9987 0.18598   -0.178216
 N 0.06168 0.81272 0.81402   -0.178771
