{'_ref': 'TBD', '_srcid': 'CAKYAQ_clean', 'submitters': [{'name': 'Dalar Nazarian Jeff Camp and David Sholl', 'email': 'dalar@gatech.edu jcamp6@gatech.edu'}], '_method': 'VASP DFT with PBE;DDEC'}
data_NdH8C16NO6
_symmetry_space_group_name_H-M   'P 1'
_cell_length_a   13.27959996
_cell_length_b   14.99919961
_cell_length_c   16.12130000
_cell_angle_alpha   117.72299965
_cell_angle_beta   99.12450160
_cell_angle_gamma   89.99999889
_symmetry_Int_Tables_number   1
_chemical_formula_structural   NdH8C16NO6
_chemical_formula_sum   'Nd4 H32 C64 N4 O24'
_cell_volume   2796.49982309
_cell_formula_units_Z   4
loop_
 _symmetry_equiv_pos_site_id
 _symmetry_equiv_pos_as_xyz
  1  'x, y, z'
loop_
 _atom_site_label
 _atom_site_fract_x
 _atom_site_fract_y
 _atom_site_fract_z
 _atom_site_charge
 Nd 0.95766 0.9671 0.36284   2.247037
 Nd 0.54234 0.60426 0.63716   2.247037
 Nd 0.04234 0.0329 0.63716   2.247037
 Nd 0.45766 0.39574 0.36284   2.247037
 H 0.0462 0.6359 0.1144   0.108524
 H 0.0955 0.5264 0.9716   0.107837
 H 0.1374 0.7576 0.919   0.106523
 H 0.0916 0.8673 0.0622   0.111314
 H 0.194 0.602 0.824   0.041608
 H 0.2773 0.5135 0.7134   0.11592
 H 0.0838 0.2891 0.6796   0.124986
 H 0.2061 0.2656 0.4598   0.108036
 H 0.4538 0.5215 0.8856   0.109154
 H 0.4045 0.5548 0.0284   0.108215
 H 0.3626 0.8386 0.081   0.105975
 H 0.4084 0.8051 0.9378   0.112464
 H 0.306 0.778 0.176   0.041976
 H 0.2227 0.8001 0.2866   0.116346
 H 0.4162 0.6095 0.3204   0.12509
 H 0.2939 0.8058 0.5402   0.107984
 H 0.9538 0.3641 0.8856   0.108524
 H 0.9045 0.4736 0.0284   0.107837
 H 0.8626 0.2424 0.081   0.106523
 H 0.9084 0.1327 0.9378   0.111314
 H 0.806 0.398 0.176   0.041608
 H 0.7227 0.4865 0.2866   0.11592
 H 0.9162 0.7109 0.3204   0.124986
 H 0.7939 0.7344 0.5402   0.108036
 H 0.5462 0.4785 0.1144   0.109153
 H 0.5955 0.4452 0.9716   0.108215
 H 0.6374 0.1614 0.919   0.105974
 H 0.5916 0.1949 0.0622   0.112465
 H 0.694 0.222 0.824   0.041977
 H 0.7773 0.1999 0.7134   0.116346
 H 0.5838 0.3905 0.6796   0.12509
 H 0.7061 0.1942 0.4598   0.107984
 C 0.0194 0.8318 0.1896   0.678532
 C 0.0576 0.761 0.101   -0.112201
 C 0.0629 0.6606 0.0746   -0.043294
 C 0.0929 0.5947 0.9892   -0.088175
 C 0.119 0.6326 0.9302   0.004149
 C 0.1183 0.7326 0.9578   -0.122672
 C 0.0897 0.7985 0.0432   -0.055394
 C 0.1469 0.5645 0.8376   0.178408
 C 0.3277 0.4377 0.542   0.801458
 C 0.2547 0.3955 0.5798   -0.154004
 C 0.2409 0.451 0.6744   -0.099473
 C 0.1732 0.4134 0.7104   0.207673
 C 0.1243 0.3171 0.6542   -0.096084
 C 0.1363 0.2629 0.56   -0.156703
 C 0.1998 0.3022 0.5234   0.009989
 C 0.08 0.1598 0.4972   0.77349
 C 0.4806 0.6422 0.8104   0.678676
 C 0.4424 0.66 0.899   -0.111497
 C 0.4371 0.586 0.9254   -0.043563
 C 0.4071 0.6055 0.0108   -0.089634
 C 0.381 0.7024 0.0698   0.0043
 C 0.3817 0.7748 0.0422   -0.120984
 C 0.4103 0.7553 0.9568   -0.057892
 C 0.3531 0.7269 0.1624   0.177734
 C 0.1723 0.8957 0.458   0.802855
 C 0.2453 0.8157 0.4202   -0.153822
 C 0.2591 0.7766 0.3256   -0.100081
 C 0.3268 0.703 0.2896   0.20813
 C 0.3757 0.6629 0.3458   -0.096358
 C 0.3637 0.7029 0.44   -0.156578
 C 0.3002 0.7788 0.4766   0.009358
 C 0.42 0.6626 0.5028   0.774779
 C 0.9806 0.1682 0.8104   0.678532
 C 0.9424 0.239 0.899   -0.1122
 C 0.9371 0.3394 0.9254   -0.043294
 C 0.9071 0.4053 0.0108   -0.088175
 C 0.881 0.3674 0.0698   0.004149
 C 0.8817 0.2674 0.0422   -0.122672
 C 0.9103 0.2015 0.9568   -0.055394
 C 0.8531 0.4355 0.1624   0.178408
 C 0.6723 0.5623 0.458   0.801458
 C 0.7453 0.6045 0.4202   -0.154004
 C 0.7591 0.549 0.3256   -0.099473
 C 0.8268 0.5866 0.2896   0.207673
 C 0.8757 0.6829 0.3458   -0.096084
 C 0.8637 0.7371 0.44   -0.156703
 C 0.8002 0.6978 0.4766   0.009989
 C 0.92 0.8402 0.5028   0.77349
 C 0.5194 0.3578 0.1896   0.678676
 C 0.5576 0.34 0.101   -0.111497
 C 0.5629 0.414 0.0746   -0.043563
 C 0.5929 0.3945 0.9892   -0.089634
 C 0.619 0.2976 0.9302   0.0043
 C 0.6183 0.2252 0.9578   -0.120984
 C 0.5897 0.2447 0.0432   -0.057892
 C 0.6469 0.2731 0.8376   0.177734
 C 0.8277 0.1043 0.542   0.802854
 C 0.7547 0.1843 0.5798   -0.153823
 C 0.7409 0.2234 0.6744   -0.100081
 C 0.6732 0.297 0.7104   0.20813
 C 0.6243 0.3371 0.6542   -0.096358
 C 0.6363 0.2971 0.56   -0.156578
 C 0.6998 0.2212 0.5234   0.009357
 C 0.58 0.3374 0.4972   0.774779
 N 0.1527 0.4707 0.805   -0.374131
 N 0.3473 0.6657 0.195   -0.37372
 N 0.8473 0.5293 0.195   -0.37413
 N 0.6527 0.3343 0.805   -0.37372
 O 0.9753 0.79525 0.2319   -0.716452
 O 0.0329 0.92385 0.2179   -0.696437
 O 0.3722 0.52339 0.59758   -0.688394
 O 0.3365 0.38375 0.4557   -0.796875
 O 0.0662 0.12383 0.40926   -0.650175
 O 0.0496 0.10963 0.53546   -0.874787
 O 0.5247 0.56335 0.7681   -0.71714
 O 0.4671 0.70595 0.7821   -0.695986
 O 0.1278 0.92581 0.40242   -0.689305
 O 0.1635 0.92805 0.5443   -0.797584
 O 0.4338 0.71457 0.59074   -0.650703
 O 0.4504 0.57417 0.46454   -0.875457
 O 0.0247 0.20475 0.7681   -0.716452
 O 0.9671 0.07615 0.7821   -0.696437
 O 0.6278 0.47661 0.40242   -0.688394
 O 0.6635 0.61625 0.5443   -0.796875
 O 0.9338 0.87617 0.59074   -0.650175
 O 0.9504 0.89037 0.46454   -0.874787
 O 0.4753 0.43665 0.2319   -0.71714
 O 0.5329 0.29405 0.2179   -0.695986
 O 0.8722 0.07419 0.59758   -0.689305
 O 0.8365 0.07195 0.4557   -0.797584
 O 0.5662 0.28543 0.40926   -0.650703
 O 0.5496 0.42583 0.53546   -0.875457
