{'_ref': 'TBD', '_srcid': 'CAKYAQ_clean', 'submitters': [{'name': 'Dalar Nazarian Jeff Camp and David Sholl', 'email': 'dalar@gatech.edu jcamp6@gatech.edu'}], '_method': 'VASP DFT with PBE;DDEC'}
data_NdH8C16NO6
_symmetry_space_group_name_H-M   'P 1'
_cell_length_a   12.30020008
_cell_length_b   14.52320018
_cell_length_c   15.98589297
_cell_angle_alpha   117.01624732
_cell_angle_beta   104.89010037
_cell_angle_gamma   90.00000097
_symmetry_Int_Tables_number   1
_chemical_formula_structural   NdH8C16NO6
_chemical_formula_sum   'Nd4 H32 C64 N4 O24'
_cell_volume   2435.94352336
_cell_formula_units_Z   4
loop_
 _symmetry_equiv_pos_site_id
 _symmetry_equiv_pos_as_xyz
  1  'x, y, z'
loop_
 _atom_site_label
 _atom_site_fract_x
 _atom_site_fract_y
 _atom_site_fract_z
 _atom_site_charge
 Nd 0.9296 0.46036 0.35592   2.246856
 Nd 0.5704 0.10444 0.64408   2.247383
 Nd 0.0704 0.53964 0.64408   2.246857
 Nd 0.4296 0.89556 0.35592   2.247385
 H 0.0377 0.1459 0.1096   0.112355
 H 0.0964 0.042 0.9716   0.112592
 H 0.1205 0.2893 0.9226   0.116068
 H 0.0628 0.3902 0.0608   0.110038
 H 0.0711 0.8057 0.6826   0.128283
 H 0.2683 0.0474 0.7154   0.111832
 H 0.172 0.7875 0.4562   0.108913
 H 0.112 0.12 0.796   0.059042
 H 0.4623 0.0363 0.8904   0.112185
 H 0.4036 0.0704 0.0284   0.112426
 H 0.3795 0.3667 0.0774   0.116158
 H 0.4372 0.3294 0.9392   0.110346
 H 0.4289 0.1231 0.3174   0.128277
 H 0.2317 0.332 0.2846   0.111611
 H 0.328 0.3313 0.5438   0.109157
 H 0.388 0.324 0.204   0.05932
 H 0.9623 0.8541 0.8904   0.112359
 H 0.9036 0.958 0.0284   0.112594
 H 0.8795 0.7107 0.0774   0.116069
 H 0.9372 0.6098 0.9392   0.110044
 H 0.9289 0.1943 0.3174   0.128285
 H 0.7317 0.9526 0.2846   0.111832
 H 0.828 0.2125 0.5438   0.108912
 H 0.888 0.88 0.204   0.059041
 H 0.5377 0.9637 0.1096   0.112188
 H 0.5964 0.9296 0.9716   0.112429
 H 0.6205 0.6333 0.9226   0.11616
 H 0.5628 0.6706 0.0608   0.110352
 H 0.5711 0.8769 0.6826   0.128278
 H 0.7683 0.668 0.7154   0.111611
 H 0.672 0.6687 0.4562   0.109157
 H 0.612 0.676 0.796   0.05932
 C 0.0016 0.3396 0.1844   0.670031
 C 0.0454 0.2788 0.0984   -0.115855
 C 0.0543 0.1742 0.0718   -0.043567
 C 0.0882 0.1114 0.9884   -0.092486
 C 0.1091 0.1541 0.9316   -0.002138
 C 0.1027 0.2601 0.9594   -0.142703
 C 0.0691 0.3203 0.0426   -0.037325
 C 0.1357 0.0908 0.838   0.185581
 C 0.0504 0.6716 0.4962   0.76012
 C 0.1123 0.7794 0.5592   -0.149286
 C 0.1091 0.836 0.656   -0.112509
 C 0.1632 0.9382 0.7124   0.210042
 C 0.2282 0.9807 0.6758   -0.109882
 C 0.2331 0.9231 0.5794   -0.145028
 C 0.1725 0.8243 0.5214   0.002556
 C 0.3056 0.9673 0.5394   0.794599
 C 0.4984 0.1552 0.8156   0.668813
 C 0.4546 0.1804 0.9016   -0.115789
 C 0.4457 0.1024 0.9282   -0.043222
 C 0.4118 0.123 0.0116   -0.092246
 C 0.3909 0.2225 0.0684   -0.002641
 C 0.3973 0.3007 0.0406   -0.143189
 C 0.4309 0.2777 0.9574   -0.037269
 C 0.3643 0.2528 0.162   0.185801
 C 0.4496 0.1754 0.5038   0.760637
 C 0.3877 0.2202 0.4408   -0.149307
 C 0.3909 0.18 0.344   -0.112898
 C 0.3368 0.2258 0.2876   0.210867
 C 0.2718 0.3049 0.3242   -0.109654
 C 0.2669 0.3437 0.4206   -0.145202
 C 0.3275 0.3029 0.4786   0.002366
 C 0.1944 0.4279 0.4606   0.794705
 C 0.9984 0.6604 0.8156   0.67003
 C 0.9546 0.7212 0.9016   -0.115854
 C 0.9457 0.8258 0.9282   -0.043568
 C 0.9118 0.8886 0.0116   -0.092486
 C 0.8909 0.8459 0.0684   -0.002137
 C 0.8973 0.7399 0.0406   -0.142703
 C 0.9309 0.6797 0.9574   -0.037327
 C 0.8643 0.9092 0.162   0.185581
 C 0.9496 0.3284 0.5038   0.76012
 C 0.8877 0.2206 0.4408   -0.149287
 C 0.8909 0.164 0.344   -0.112509
 C 0.8368 0.0618 0.2876   0.210042
 C 0.7718 0.0193 0.3242   -0.109882
 C 0.7669 0.0769 0.4206   -0.145028
 C 0.8275 0.1757 0.4786   0.002556
 C 0.6944 0.0327 0.4606   0.794598
 C 0.5016 0.8448 0.1844   0.668813
 C 0.5454 0.8196 0.0984   -0.115788
 C 0.5543 0.8976 0.0718   -0.043223
 C 0.5882 0.877 0.9884   -0.092246
 C 0.6091 0.7775 0.9316   -0.002641
 C 0.6027 0.6993 0.9594   -0.143189
 C 0.5691 0.7223 0.0426   -0.037272
 C 0.6357 0.7472 0.838   0.185801
 C 0.5504 0.8246 0.4962   0.760637
 C 0.6123 0.7798 0.5592   -0.149308
 C 0.6091 0.82 0.656   -0.112898
 C 0.6632 0.7742 0.7124   0.210867
 C 0.7282 0.6951 0.6758   -0.109655
 C 0.7331 0.6563 0.5794   -0.145202
 C 0.6725 0.6971 0.5214   0.002366
 C 0.8056 0.5721 0.5394   0.794704
 N 0.149 0.9947 0.808   -0.367063
 N 0.351 0.1867 0.192   -0.367744
 N 0.851 0.0053 0.192   -0.367063
 N 0.649 0.8133 0.808   -0.367744
 O 0.9966 0.4373 0.211   -0.708921
 O 0.9662 0.2956 0.226   -0.711093
 O 0.0176 0.6369 0.404   -0.653223
 O 0.0301 0.6178 0.536   -0.859609
 O 0.2977 0.9149 0.4488   -0.800708
 O 0.3671 0.053 0.5978   -0.677653
 O 0.5034 0.2263 0.789   -0.708514
 O 0.5338 0.0696 0.774   -0.710726
 O 0.4824 0.2329 0.596   -0.653408
 O 0.4699 0.0818 0.464   -0.860004
 O 0.2023 0.4661 0.5512   -0.800501
 O 0.1329 0.4552 0.4022   -0.677607
 O 0.0034 0.5627 0.789   -0.708921
 O 0.0338 0.7044 0.774   -0.711093
 O 0.9824 0.3631 0.596   -0.653223
 O 0.9699 0.3822 0.464   -0.859609
 O 0.7023 0.0851 0.5512   -0.800708
 O 0.6329 0.947 0.4022   -0.677653
 O 0.4966 0.7737 0.211   -0.708514
 O 0.4662 0.9304 0.226   -0.710726
 O 0.5176 0.7671 0.404   -0.653408
 O 0.5301 0.9182 0.536   -0.860004
 O 0.7977 0.5339 0.4488   -0.800501
 O 0.8671 0.5448 0.5978   -0.677607
