{'_ref': 'TBD', '_srcid': 'CAKYAQ_clean', 'submitters': [{'name': 'Dalar Nazarian Jeff Camp and David Sholl', 'email': 'dalar@gatech.edu jcamp6@gatech.edu'}], '_method': 'VASP DFT with PBE;DDEC'}
data_NdH8C16NO6
_symmetry_space_group_name_H-M   'P 1'
_cell_length_a   12.82730014
_cell_length_b   14.46489982
_cell_length_c   16.03300000
_cell_angle_alpha   116.81399975
_cell_angle_beta   102.16800070
_cell_angle_gamma   89.99999881
_symmetry_Int_Tables_number   1
_chemical_formula_structural   NdH8C16NO6
_chemical_formula_sum   'Nd4 H32 C64 N4 O24'
_cell_volume   2579.87666502
_cell_formula_units_Z   4
loop_
 _symmetry_equiv_pos_site_id
 _symmetry_equiv_pos_as_xyz
  1  'x, y, z'
loop_
 _atom_site_label
 _atom_site_fract_x
 _atom_site_fract_y
 _atom_site_fract_z
 _atom_site_charge
 Nd 0.44084 0.46646 0.36057   2.246627
 Nd 0.05916 0.10589 0.63944   2.24666
 Nd 0.55916 0.53354 0.63943   2.246628
 Nd 0.94084 0.89411 0.36057   2.246623
 H 0.5421 0.1399 0.1122   0.113283
 H 0.6016 0.0366 0.975   0.111619
 H 0.616 0.2838 0.9206   0.110505
 H 0.5717 0.3884 0.0662   0.112132
 H 0.647 0.131 0.806   0.054296
 H 0.5739 0.8047 0.684   0.129086
 H 0.7715 0.0405 0.7166   0.113816
 H 0.6881 0.7842 0.4628   0.105446
 H 0.9579 0.0277 0.8878   0.113391
 H 0.8984 0.0616 0.025   0.111618
 H 0.884 0.3632 0.0794   0.111244
 H 0.9283 0.3222 0.9338   0.112177
 H 0.853 0.325 0.194   0.053946
 H 0.9261 0.1207 0.316   0.129356
 H 0.7285 0.3239 0.2834   0.113944
 H 0.8119 0.3214 0.5372   0.105623
 H 0.4579 0.8601 0.8878   0.113282
 H 0.3984 0.9634 0.025   0.111618
 H 0.384 0.7162 0.0794   0.110505
 H 0.4283 0.6116 0.9338   0.112133
 H 0.353 0.869 0.194   0.054296
 H 0.4261 0.1953 0.316   0.129084
 H 0.2285 0.9595 0.2834   0.113819
 H 0.3119 0.2158 0.5372   0.105447
 H 0.0421 0.9723 0.1122   0.113391
 H 0.1016 0.9384 0.975   0.111614
 H 0.116 0.6368 0.9206   0.111242
 H 0.0717 0.6778 0.0662   0.112178
 H 0.147 0.675 0.806   0.053945
 H 0.0739 0.8793 0.684   0.129348
 H 0.2715 0.6761 0.7166   0.113945
 H 0.1881 0.6786 0.4628   0.105624
 C 0.5034 0.339 0.1876   0.679142
 C 0.547 0.2732 0.1004   -0.116852
 C 0.5582 0.1685 0.0742   -0.046221
 C 0.593 0.1061 0.9916   -0.086457
 C 0.6153 0.1504 0.9332   -0.006222
 C 0.6038 0.2553 0.9598   -0.131451
 C 0.5738 0.3172 0.0456   -0.05112
 C 0.6434 0.0885 0.8418   0.179846
 C 0.5609 0.6726 0.4986   0.780789
 C 0.6212 0.7769 0.562   -0.160912
 C 0.6133 0.8339 0.6576   -0.101025
 C 0.6658 0.9356 0.7128   0.20628
 C 0.7327 0.9752 0.6776   -0.111496
 C 0.7421 0.917 0.5832   -0.142424
 C 0.6844 0.8208 0.5268   0.005056
 C 0.8155 0.9616 0.5446   0.79859
 C 0.9966 0.1514 0.8124   0.679929
 C 0.953 0.1728 0.8996   -0.116453
 C 0.9418 0.0943 0.9258   -0.046494
 C 0.907 0.1145 0.0084   -0.086063
 C 0.8847 0.2172 0.0668   -0.006309
 C 0.8962 0.2955 0.0402   -0.132845
 C 0.9262 0.2716 0.9544   -0.051102
 C 0.8566 0.2467 0.1582   0.180952
 C 0.9391 0.174 0.5014   0.780608
 C 0.8788 0.2149 0.438   -0.160097
 C 0.8867 0.1763 0.3424   -0.100992
 C 0.8342 0.2228 0.2872   0.206702
 C 0.7673 0.2976 0.3224   -0.112921
 C 0.7579 0.3338 0.4168   -0.140808
 C 0.8156 0.294 0.4732   0.00404
 C 0.6845 0.417 0.4554   0.797032
 C 0.4966 0.661 0.8124   0.679144
 C 0.453 0.7268 0.8996   -0.116854
 C 0.4418 0.8315 0.9258   -0.046222
 C 0.407 0.8939 0.0084   -0.086459
 C 0.3847 0.8496 0.0668   -0.006217
 C 0.3962 0.7447 0.0402   -0.131451
 C 0.4262 0.6828 0.9544   -0.05112
 C 0.3566 0.9115 0.1582   0.179844
 C 0.4391 0.3274 0.5014   0.780791
 C 0.3788 0.2231 0.438   -0.160916
 C 0.3867 0.1661 0.3424   -0.101029
 C 0.3342 0.0644 0.2872   0.206279
 C 0.2673 0.0248 0.3224   -0.111496
 C 0.2579 0.083 0.4168   -0.142419
 C 0.3156 0.1792 0.4732   0.005055
 C 0.1845 0.0384 0.4554   0.798605
 C 0.0034 0.8486 0.1876   0.67994
 C 0.047 0.8272 0.1004   -0.116439
 C 0.0582 0.9057 0.0742   -0.046498
 C 0.093 0.8855 0.9916   -0.086063
 C 0.1153 0.7828 0.9332   -0.006319
 C 0.1038 0.7045 0.9598   -0.132844
 C 0.0738 0.7284 0.0456   -0.051107
 C 0.1434 0.7533 0.8418   0.180959
 C 0.0609 0.826 0.4986   0.780592
 C 0.1212 0.7851 0.562   -0.1601
 C 0.1133 0.8237 0.6576   -0.101
 C 0.1658 0.7772 0.7128   0.206708
 C 0.2327 0.7024 0.6776   -0.11292
 C 0.2421 0.6662 0.5832   -0.140804
 C 0.1844 0.706 0.5268   0.00404
 C 0.3155 0.583 0.5446   0.79703
 N 0.6478 0.9909 0.808   -0.368416
 N 0.8522 0.1829 0.192   -0.369177
 N 0.3522 0.0091 0.192   -0.368417
 N 0.1478 0.8171 0.808   -0.369187
 O 0.5012 0.4332 0.2122   -0.701897
 O 0.472 0.29538 0.23156   -0.710776
 O 0.5351 0.63994 0.41068   -0.649793
 O 0.5361 0.6177 0.5374   -0.878263
 O 0.8151 0.90592 0.45684   -0.798681
 O 0.8712 0.0471 0.6014   -0.68462
 O 0.9988 0.221 0.7878   -0.701794
 O 0.028 0.06382 0.76844   -0.711609
 O 0.9649 0.22926 0.58932   -0.650297
 O 0.9639 0.0803 0.4626   -0.87802
 O 0.6849 0.44908 0.54316   -0.798702
 O 0.6288 0.4457 0.3986   -0.683391
 O 0.4988 0.5668 0.7878   -0.701897
 O 0.528 0.70462 0.76844   -0.710779
 O 0.4649 0.36006 0.58932   -0.649794
 O 0.4639 0.3823 0.4626   -0.878263
 O 0.1849 0.09408 0.54316   -0.798717
 O 0.1288 0.9529 0.3986   -0.684624
 O 0.0012 0.779 0.2122   -0.70182
 O 0.972 0.93618 0.23156   -0.711606
 O 0.0351 0.77074 0.41068   -0.650276
 O 0.0361 0.9197 0.5374   -0.878
 O 0.3151 0.55092 0.45684   -0.798701
 O 0.3712 0.5543 0.6014   -0.683388
