{'_ref': 'TBD', '_srcid': 'CAKYAQ_clean', 'submitters': [{'name': 'Dalar Nazarian Jeff Camp and David Sholl', 'email': 'dalar@gatech.edu jcamp6@gatech.edu'}], '_method': 'VASP DFT with PBE;DDEC'}
data_NdH8C16NO6
_symmetry_space_group_name_H-M   'P 1'
_cell_length_a   13.09260029
_cell_length_b   14.44880018
_cell_length_c   16.27499271
_cell_angle_alpha   116.35223597
_cell_angle_beta   97.83295175
_cell_angle_gamma   90.00000103
_symmetry_Int_Tables_number   1
_chemical_formula_structural   NdH8C16NO6
_chemical_formula_sum   'Nd4 H32 C64 N4 O24'
_cell_volume   2726.74403098
_cell_formula_units_Z   4
loop_
 _symmetry_equiv_pos_site_id
 _symmetry_equiv_pos_as_xyz
  1  'x, y, z'
loop_
 _atom_site_label
 _atom_site_fract_x
 _atom_site_fract_y
 _atom_site_fract_z
 _atom_site_charge
 Nd 0.45587 0.39125 0.36782   2.252392
 Nd 0.04413 0.02343 0.63218   2.252321
 Nd 0.54413 0.60875 0.63218   2.252392
 Nd 0.95587 0.97657 0.36782   2.252321
 H 0.5351 0.4684 0.1138   0.106487
 H 0.5888 0.4418 0.9766   0.109479
 H 0.6397 0.1478 0.9272   0.107335
 H 0.5915 0.1801 0.0684   0.111703
 H 0.5705 0.3863 0.6858   0.12909
 H 0.7686 0.1859 0.716   0.117762
 H 0.6932 0.1836 0.4684   0.10971
 H 0.66 0.204 0.816   0.031621
 H 0.9649 0.3546 0.8862   0.107111
 H 0.9112 0.4652 0.0234   0.10814
 H 0.8603 0.2206 0.0728   0.107667
 H 0.9085 0.1117 0.9316   0.111154
 H 0.9295 0.7005 0.3142   0.129841
 H 0.7314 0.4699 0.284   0.117376
 H 0.8068 0.7152 0.5316   0.109939
 H 0.84 0.388 0.184   0.030977
 H 0.4649 0.5316 0.8862   0.106487
 H 0.4112 0.5582 0.0234   0.109479
 H 0.3603 0.8522 0.0728   0.107335
 H 0.4085 0.8199 0.9316   0.111704
 H 0.4295 0.6137 0.3142   0.12909
 H 0.2314 0.8141 0.284   0.117762
 H 0.3068 0.8164 0.5316   0.10971
 H 0.34 0.796 0.184   0.031621
 H 0.0351 0.6454 0.1138   0.107111
 H 0.0888 0.5348 0.9766   0.10814
 H 0.1397 0.7794 0.9272   0.107667
 H 0.0915 0.8883 0.0684   0.111155
 H 0.0705 0.2995 0.6858   0.129841
 H 0.2686 0.5301 0.716   0.117376
 H 0.1932 0.2848 0.4684   0.109939
 H 0.16 0.612 0.816   0.030977
 C 0.5225 0.3467 0.1932   0.679184
 C 0.5583 0.3284 0.1054   -0.108242
 C 0.5575 0.4042 0.0766   -0.044399
 C 0.5887 0.3885 0.994   -0.087277
 C 0.6204 0.29 0.9362   -0.030291
 C 0.6199 0.2131 0.965   -0.118579
 C 0.5901 0.2321 0.0494   -0.051716
 C 0.6453 0.2663 0.8438   0.249
 C 0.5672 0.3336 0.506   0.775002
 C 0.6216 0.2882 0.5674   -0.146799
 C 0.6109 0.3304 0.6606   -0.109396
 C 0.6613 0.2883 0.7164   0.214255
 C 0.7307 0.2111 0.6786   -0.109645
 C 0.7425 0.1726 0.5864   -0.150693
 C 0.6867 0.2107 0.5308   0.000812
 C 0.8191 0.0938 0.548   0.807418
 C 0.9775 0.1535 0.8068   0.678363
 C 0.9417 0.223 0.8946   -0.107777
 C 0.9425 0.3276 0.9234   -0.046392
 C 0.9113 0.3945 0.006   -0.084721
 C 0.8796 0.3538 0.0638   -0.030102
 C 0.8801 0.2481 0.035   -0.120071
 C 0.9099 0.1827 0.9506   -0.050362
 C 0.8547 0.4225 0.1562   0.250866
 C 0.9328 0.8276 0.494   0.773708
 C 0.8784 0.7208 0.4326   -0.147272
 C 0.8891 0.6698 0.3394   -0.110163
 C 0.8387 0.5719 0.2836   0.214966
 C 0.7693 0.5325 0.3214   -0.10994
 C 0.7575 0.5862 0.4136   -0.150797
 C 0.8133 0.6799 0.4692   0.00107
 C 0.6809 0.5458 0.452   0.807372
 C 0.4775 0.6533 0.8068   0.679184
 C 0.4417 0.6716 0.8946   -0.108242
 C 0.4425 0.5958 0.9234   -0.044399
 C 0.4113 0.6115 0.006   -0.087277
 C 0.3796 0.71 0.0638   -0.030291
 C 0.3801 0.7869 0.035   -0.118578
 C 0.4099 0.7679 0.9506   -0.051716
 C 0.3547 0.7337 0.1562   0.249
 C 0.4328 0.6664 0.494   0.775002
 C 0.3784 0.7118 0.4326   -0.1468
 C 0.3891 0.6696 0.3394   -0.109396
 C 0.3387 0.7117 0.2836   0.214255
 C 0.2693 0.7889 0.3214   -0.109645
 C 0.2575 0.8274 0.4136   -0.150694
 C 0.3133 0.7893 0.4692   0.000811
 C 0.1809 0.9062 0.452   0.807417
 C 0.0225 0.8465 0.1932   0.678363
 C 0.0583 0.777 0.1054   -0.107777
 C 0.0575 0.6724 0.0766   -0.046392
 C 0.0887 0.6055 0.994   -0.084721
 C 0.1204 0.6462 0.9362   -0.030102
 C 0.1199 0.7519 0.965   -0.12007
 C 0.0901 0.8173 0.0494   -0.050362
 C 0.1453 0.5775 0.8438   0.250866
 C 0.0672 0.1724 0.506   0.773708
 C 0.1216 0.2792 0.5674   -0.147272
 C 0.1109 0.3302 0.6606   -0.110163
 C 0.1613 0.4281 0.7164   0.214966
 C 0.2307 0.4675 0.6786   -0.10994
 C 0.2425 0.4138 0.5864   -0.150797
 C 0.1867 0.3201 0.5308   0.00107
 C 0.3191 0.4542 0.548   0.807372
 N 0.6423 0.32584 0.80888   -0.39368
 N 0.8577 0.51696 0.19112   -0.395111
 N 0.3577 0.67416 0.19112   -0.39368
 N 0.1423 0.48304 0.80888   -0.395111
 O 0.4734 0.42484 0.23328   -0.720709
 O 0.5396 0.28154 0.22588   -0.710858
 O 0.5428 0.42558 0.54116   -0.852308
 O 0.5473 0.27532 0.42084   -0.668307
 O 0.8299 0.06352 0.46484   -0.799305
 O 0.8684 0.06165 0.6015   -0.699152
 O 0.0266 0.19156 0.76672   -0.720313
 O 0.9604 0.05566 0.77412   -0.710605
 O 0.9572 0.88442 0.45884   -0.851596
 O 0.9527 0.85448 0.57916   -0.66747
 O 0.6701 0.59868 0.53516   -0.799129
 O 0.6316 0.46015 0.3985   -0.698944
 O 0.5266 0.57516 0.76672   -0.720709
 O 0.4604 0.71846 0.77412   -0.710858
 O 0.4572 0.57442 0.45884   -0.852308
 O 0.4527 0.72468 0.57916   -0.668307
 O 0.1701 0.93648 0.53516   -0.799305
 O 0.1316 0.93835 0.3985   -0.699152
 O 0.9734 0.80844 0.23328   -0.720313
 O 0.0396 0.94434 0.22588   -0.710605
 O 0.0428 0.11558 0.54116   -0.851596
 O 0.0473 0.14552 0.42084   -0.66747
 O 0.3299 0.40132 0.46484   -0.799129
 O 0.3684 0.53985 0.6015   -0.698944
