{'_ref': 'TBD', '_srcid': 'CAKYAQ_clean', 'submitters': [{'name': 'Dalar Nazarian Jeff Camp and David Sholl', 'email': 'dalar@gatech.edu jcamp6@gatech.edu'}], '_method': 'VASP DFT with PBE;DDEC'}
data_NdH13C21(NO3)2
_symmetry_space_group_name_H-M   'P 1'
_cell_length_a   13.68239936
_cell_length_b   15.00119989
_cell_length_c   15.64900000
_cell_angle_alpha   95.75100138
_cell_angle_beta   113.16299910
_cell_angle_gamma   90.49299855
_symmetry_Int_Tables_number   1
_chemical_formula_structural   NdH13C21(NO3)2
_chemical_formula_sum   'Nd4 H52 C84 N8 O24'
_cell_volume   2934.15989504
_cell_formula_units_Z   4
loop_
 _symmetry_equiv_pos_site_id
 _symmetry_equiv_pos_as_xyz
  1  'x, y, z'
loop_
 _atom_site_label
 _atom_site_fract_x
 _atom_site_fract_y
 _atom_site_fract_z
 _atom_site_charge
 Nd 0.50699 0.52027 0.13396   2.23257
 Nd 0.88967 0.96851 0.86894   2.21921
 Nd 0.49301 0.47973 0.86604   2.23257
 Nd 0.11033 0.03149 0.13106   2.21921
 H 0.869 0.461 0.3838   0.107714
 H 0.9804 0.4037 0.5167   0.10235
 H 0.7293 0.2966 0.5474   0.100561
 H 0.618 0.3553 0.415   0.103629
 H 0.2132 0.3924 0.7976   0.129044
 H 0.2332 0.2698 0.0215   0.093803
 H 0.9862 0.209 0.7751   0.105461
 H 0.7296 0.0633 0.5463   0.110673
 H 0.7267 0.1151 0.4118   0.096385
 H 0.0455 0.1197 0.5162   0.111581
 H 0.0463 0.064 0.6487   0.105245
 H 0.6861 0.2912 0.2074   0.116242
 H 0.7224 0.2362 0.9657   0.09966
 H 0.8832 0.1034 0.1859   0.120519
 H 0.3154 0.6641 0.1587   0.033025
 H 0.1742 0.6913 0.199   0.169818
 H 0.1156 0.5582 0.2422   0.064516
 H 0.2106 0.4319 0.2773   0.169133
 H 0.3643 0.4385 0.2443   0.054781
 H 0.6231 0.0288 0.7841   0.084933
 H 0.4463 0.9829 0.7439   0.131883
 H 0.4033 0.8325 0.7435   0.071903
 H 0.5371 0.7352 0.7908   0.134704
 H 0.7091 0.7842 0.8304   0.062646
 H 0.889 0.268 0.657   0.039941
 H 0.94 0.161 0.347   0.058593
 H 0.131 0.539 0.6162   0.107715
 H 0.0196 0.5963 0.4833   0.10235
 H 0.2707 0.7034 0.4526   0.100561
 H 0.382 0.6447 0.585   0.103629
 H 0.7868 0.6076 0.2024   0.129044
 H 0.7668 0.7302 0.9785   0.093802
 H 0.0138 0.791 0.2249   0.105461
 H 0.2704 0.9367 0.4537   0.110674
 H 0.2733 0.8849 0.5882   0.096384
 H 0.9545 0.8803 0.4838   0.111581
 H 0.9537 0.936 0.3513   0.105245
 H 0.3139 0.7088 0.7926   0.116241
 H 0.2776 0.7638 0.0343   0.09966
 H 0.1168 0.8966 0.8141   0.120519
 H 0.6846 0.3359 0.8413   0.033026
 H 0.8258 0.3087 0.801   0.169818
 H 0.8844 0.4418 0.7578   0.064516
 H 0.7894 0.5681 0.7227   0.169133
 H 0.6357 0.5615 0.7557   0.054781
 H 0.3769 0.9712 0.2159   0.084934
 H 0.5537 0.0171 0.2561   0.131883
 H 0.5967 0.1675 0.2565   0.071902
 H 0.4629 0.2648 0.2092   0.134703
 H 0.2909 0.2158 0.1696   0.062646
 H 0.111 0.732 0.343   0.039941
 H 0.06 0.839 0.653   0.058593
 C 0.6572 0.459 0.3038   0.659908
 C 0.731 0.4169 0.3864   -0.106048
 C 0.8403 0.4291 0.4171   -0.047722
 C 0.9072 0.3942 0.4968   -0.097958
 C 0.8675 0.3455 0.5478   0.000835
 C 0.7579 0.3306 0.5154   -0.125173
 C 0.6912 0.3659 0.4359   -0.038984
 C 0.9347 0.3123 0.6366   0.176226
 C 0.0883 0.3068 0.7725   0.197911
 C 0.1842 0.3529 0.8247   -0.086818
 C 0.2379 0.3397 0.9194   -0.15925
 C 0.1977 0.2777 0.9587   0.008246
 C 0.104 0.227 0.9041   -0.141437
 C 0.0492 0.2421 0.8115   -0.108827
 C 0.3341 0.397 0.982   0.766851
 C 0.0626 0.1557 0.9443   0.777117
 C 0.8892 0.0179 0.6967   0.663705
 C 0.8884 0.0573 0.6118   -0.112773
 C 0.7934 0.0737 0.54   -0.062685
 C 0.7914 0.1051 0.4593   -0.097219
 C 0.8861 0.1217 0.4493   -0.008903
 C 0.9814 0.1073 0.5214   -0.109763
 C 0.9818 0.0745 0.6013   -0.044332
 C 0.8822 0.1511 0.3612   0.203229
 C 0.7866 0.1935 0.2108   0.196405
 C 0.7175 0.2589 0.172   -0.08882
 C 0.6942 0.2771 0.081   -0.149468
 C 0.7385 0.2258 0.0273   -0.011954
 C 0.8068 0.1588 0.0656   -0.140875
 C 0.8336 0.1451 0.1588   -0.13332
 C 0.621 0.3505 0.0427   0.788886
 C 0.8426 0.0971 0.0034   0.74934
 C 0.2968 0.6196 0.1877   0.276826
 C 0.2089 0.638 0.2051   -0.255531
 C 0.18 0.5571 0.2352   0.05361
 C 0.2314 0.4805 0.2547   -0.23488
 C 0.3226 0.4882 0.2342   0.261085
 C 0.6058 0.9691 0.7859   0.233003
 C 0.4992 0.9417 0.7608   -0.208226
 C 0.4738 0.8526 0.7614   0.049683
 C 0.5528 0.7952 0.7886   -0.180972
 C 0.6559 0.825 0.8128   0.209199
 C 0.3428 0.541 0.6962   0.659908
 C 0.269 0.5831 0.6136   -0.106048
 C 0.1597 0.5709 0.5829   -0.047722
 C 0.0928 0.6058 0.5032   -0.097958
 C 0.1325 0.6545 0.4522   0.000835
 C 0.2421 0.6694 0.4846   -0.125174
 C 0.3088 0.6341 0.5641   -0.038983
 C 0.0653 0.6877 0.3634   0.176226
 C 0.9117 0.6932 0.2275   0.197911
 C 0.8158 0.6471 0.1753   -0.086818
 C 0.7621 0.6603 0.0806   -0.15925
 C 0.8023 0.7223 0.0413   0.008246
 C 0.896 0.773 0.0959   -0.141437
 C 0.9508 0.7579 0.1885   -0.108827
 C 0.6659 0.603 0.018   0.766851
 C 0.9374 0.8443 0.0557   0.777117
 C 0.1108 0.9821 0.3033   0.663705
 C 0.1116 0.9427 0.3882   -0.112773
 C 0.2066 0.9263 0.46   -0.062686
 C 0.2086 0.8949 0.5407   -0.097219
 C 0.1139 0.8783 0.5507   -0.008903
 C 0.0186 0.8927 0.4786   -0.109763
 C 0.0182 0.9255 0.3987   -0.044332
 C 0.1178 0.8489 0.6388   0.203229
 C 0.2134 0.8065 0.7892   0.196405
 C 0.2825 0.7411 0.828   -0.088821
 C 0.3058 0.7229 0.919   -0.149468
 C 0.2615 0.7742 0.9727   -0.011954
 C 0.1932 0.8412 0.9344   -0.140876
 C 0.1664 0.8549 0.8412   -0.13332
 C 0.379 0.6495 0.9573   0.788886
 C 0.1574 0.9029 0.9966   0.749341
 C 0.7032 0.3804 0.8123   0.276826
 C 0.7911 0.362 0.7949   -0.25553
 C 0.82 0.4429 0.7648   0.05361
 C 0.7686 0.5195 0.7453   -0.23488
 C 0.6774 0.5118 0.7658   0.261085
 C 0.3942 0.0309 0.2141   0.233003
 C 0.5008 0.0583 0.2392   -0.208226
 C 0.5262 0.1474 0.2386   0.049683
 C 0.4472 0.2048 0.2114   -0.180972
 C 0.3441 0.175 0.1872   0.209199
 N 0.0323 0.3322 0.6803   -0.384117
 N 0.7965 0.1728 0.3005   -0.363173
 N 0.3588 0.556 0.2022   -0.548836
 N 0.6835 0.9116 0.8123   -0.551927
 N 0.9677 0.6678 0.3197   -0.384117
 N 0.2035 0.8272 0.6995   -0.363173
 N 0.6412 0.444 0.7978   -0.548836
 N 0.3165 0.0884 0.1877   -0.551927
 O 0.5564 0.444 0.278   -0.716537
 O 0.6937 0.5065 0.261   -0.673483
 O 0.3572 0.4063 0.0692   -0.660048
 O 0.389 0.4387 0.9475   -0.846968
 O 0.9772 0.1141 0.8923   -0.687622
 O 0.1173 0.1425 0.0292   -0.773544
 O 0.5779 0.3856 0.0946   -0.714645
 O 0.6068 0.3718 0.9634   -0.754562
 O 0.9717 0.9863 0.7494   -0.676156
 O 0.8035 0.0184 0.7108   -0.714711
 O 0.7868 0.0866 0.9169   -0.640599
 O 0.9249 0.0525 0.0389   -0.843721
 O 0.4436 0.556 0.722   -0.716537
 O 0.3063 0.4935 0.739   -0.673483
 O 0.6428 0.5937 0.9308   -0.660048
 O 0.611 0.5613 0.0525   -0.846968
 O 0.0228 0.8859 0.1077   -0.687622
 O 0.8827 0.8575 0.9708   -0.773544
 O 0.4221 0.6144 0.9054   -0.714645
 O 0.3932 0.6282 0.0366   -0.754562
 O 0.0283 0.0137 0.2506   -0.676156
 O 0.1965 0.9816 0.2892   -0.714711
 O 0.2132 0.9134 0.0831   -0.640599
 O 0.0751 0.9475 0.9611   -0.843721
