{'_ref': 'TBD', '_srcid': 'CAKYAQ_clean', 'submitters': [{'name': 'Dalar Nazarian Jeff Camp and David Sholl', 'email': 'dalar@gatech.edu jcamp6@gatech.edu'}], '_method': 'VASP DFT with PBE;DDEC'}
data_CaH4C10N3O4
_symmetry_space_group_name_H-M   'P 1'
_cell_length_a   14.25430000
_cell_length_b   15.44480004
_cell_length_c   15.44480000
_cell_angle_alpha   102.44519941
_cell_angle_beta   90.00000000
_cell_angle_gamma   90.00000000
_symmetry_Int_Tables_number   1
_chemical_formula_structural   CaH4C10N3O4
_chemical_formula_sum   'Ca8 H32 C80 N24 O32'
_cell_volume   3320.35000674
_cell_formula_units_Z   8
loop_
 _symmetry_equiv_pos_site_id
 _symmetry_equiv_pos_as_xyz
  1  'x, y, z'
loop_
 _atom_site_label
 _atom_site_fract_x
 _atom_site_fract_y
 _atom_site_fract_z
 _atom_site_charge
 Ca 0.11082 0.96118 0.55958   1.525923
 Ca 0.61082 0.53882 0.94042   1.525923
 Ca 0.38918 0.94042 0.53882   1.525925
 Ca 0.88918 0.55958 0.96118   1.525925
 Ca 0.88918 0.03882 0.44042   1.525924
 Ca 0.38918 0.46118 0.05958   1.525924
 Ca 0.61082 0.05958 0.46118   1.525925
 Ca 0.11082 0.44042 0.03882   1.525925
 H 0.8906 0.7881 0.6987   0.120141
 H 0.8866 0.7039 0.7979   0.110277
 H 0.3262 0.8998 0.3074   0.105136
 H 0.3906 0.7119 0.8013   0.120141
 H 0.3866 0.7961 0.7021   0.110277
 H 0.8262 0.6002 0.1926   0.105136
 H 0.6094 0.8013 0.7119   0.120141
 H 0.6134 0.7021 0.7961   0.110277
 H 0.1738 0.1926 0.6002   0.105136
 H 0.1094 0.6987 0.7881   0.120141
 H 0.1134 0.7979 0.7039   0.110277
 H 0.6738 0.3074 0.8998   0.105136
 H 0.1094 0.2119 0.3013   0.120141
 H 0.1134 0.2961 0.2021   0.110277
 H 0.6738 0.1002 0.6926   0.105136
 H 0.6094 0.2881 0.1987   0.120141
 H 0.6134 0.2039 0.2979   0.110277
 H 0.1738 0.3998 0.8074   0.105136
 H 0.3906 0.1987 0.2881   0.120141
 H 0.3866 0.2979 0.2039   0.110277
 H 0.8262 0.8074 0.3998   0.105136
 H 0.8906 0.3013 0.2119   0.120141
 H 0.8866 0.2021 0.2961   0.110277
 H 0.3262 0.6926 0.1002   0.105136
 H 0.75 0.9393 0.5607   0.094713
 H 0.25 0.5607 0.9393   0.094713
 H 0.25 0.0607 0.4393   0.094713
 H 0.75 0.4393 0.0607   0.094713
 H 0.1302 0.7105 0.2895   0.117945
 H 0.6302 0.7895 0.2105   0.117945
 H 0.3698 0.2105 0.7895   0.117945
 H 0.8698 0.2895 0.7105   0.117945
 C 0.9269 0.89739 0.59257   0.724354
 C 0.83442 0.81039 0.68205   -0.101159
 C 0.83452 0.86865 0.62467   -0.124524
 C 0.18837 0.85606 0.4024   0.70787
 C 0.8244 0.69206 0.80942   0.198481
 C 0.2254 0.81097 0.31329   -0.095557
 C 0.2996 0.84698 0.2771   -0.131691
 C 0.4461 0.8167 0.0763   0.141487
 C 0.4269 0.60261 0.90743   0.724354
 C 0.33442 0.68961 0.81795   -0.101159
 C 0.33452 0.63135 0.87533   -0.124525
 C 0.68837 0.64394 0.0976   0.70787
 C 0.3244 0.80794 0.69058   0.198481
 C 0.7254 0.68903 0.18671   -0.095557
 C 0.7996 0.65302 0.2229   -0.131691
 C 0.9461 0.6833 0.4237   0.141486
 C 0.5731 0.90743 0.60261   0.724354
 C 0.66558 0.81795 0.68961   -0.101159
 C 0.66548 0.87533 0.63135   -0.124524
 C 0.31163 0.0976 0.64394   0.70787
 C 0.6756 0.69058 0.80794   0.198477
 C 0.2746 0.18671 0.68903   -0.095557
 C 0.2004 0.2229 0.65302   -0.131691
 C 0.0539 0.4237 0.6833   0.141486
 C 0.0731 0.59257 0.89739   0.724353
 C 0.16558 0.68205 0.81039   -0.101159
 C 0.16548 0.62467 0.86865   -0.124525
 C 0.81163 0.4024 0.85606   0.70787
 C 0.1756 0.80942 0.69206   0.198477
 C 0.7746 0.31329 0.81097   -0.095557
 C 0.7004 0.2771 0.84698   -0.131691
 C 0.5539 0.0763 0.8167   0.141486
 C 0.0731 0.10261 0.40743   0.724354
 C 0.16558 0.18961 0.31795   -0.101159
 C 0.16548 0.13135 0.37533   -0.124524
 C 0.81163 0.14394 0.5976   0.70787
 C 0.1756 0.30794 0.19058   0.19848
 C 0.7746 0.18903 0.68671   -0.095557
 C 0.7004 0.15302 0.7229   -0.131691
 C 0.5539 0.1833 0.9237   0.141481
 C 0.5731 0.39739 0.09257   0.724354
 C 0.66558 0.31039 0.18205   -0.101159
 C 0.66548 0.36865 0.12467   -0.124524
 C 0.31163 0.35606 0.9024   0.70787
 C 0.6756 0.19206 0.30942   0.19848
 C 0.2746 0.31097 0.81329   -0.095557
 C 0.2004 0.34698 0.7771   -0.131691
 C 0.0539 0.3167 0.5763   0.14148
 C 0.4269 0.09257 0.39739   0.724354
 C 0.33442 0.18205 0.31039   -0.101159
 C 0.33452 0.12467 0.36865   -0.124524
 C 0.68837 0.9024 0.35606   0.70787
 C 0.3244 0.30942 0.19206   0.198477
 C 0.7254 0.81329 0.31097   -0.095557
 C 0.7996 0.7771 0.34698   -0.131691
 C 0.9461 0.5763 0.3167   0.14148
 C 0.9269 0.40743 0.10261   0.724353
 C 0.83442 0.31795 0.18961   -0.101159
 C 0.83452 0.37533 0.13135   -0.124524
 C 0.18837 0.5976 0.14394   0.70787
 C 0.8244 0.19058 0.30794   0.198477
 C 0.2254 0.68671 0.18903   -0.095557
 C 0.2996 0.7229 0.15302   -0.131691
 C 0.4461 0.9237 0.1833   0.14148
 C 0.75 0.90065 0.59935   0.007867
 C 0.75 0.78595 0.71405   0.094738
 C 0.25 0.59935 0.90065   0.007867
 C 0.25 0.71405 0.78595   0.094738
 C 0.25 0.09935 0.40065   0.007867
 C 0.25 0.21405 0.28595   0.094738
 C 0.75 0.40065 0.09935   0.007867
 C 0.75 0.28595 0.21405   0.094738
 C 0.1842 0.73224 0.26776   -0.031969
 C 0.335 0.80469 0.19531   0.121386
 C 0.6842 0.76776 0.23224   -0.031969
 C 0.835 0.69531 0.30469   0.121386
 C 0.3158 0.23224 0.76776   -0.031969
 C 0.165 0.30469 0.69531   0.121386
 C 0.8158 0.26776 0.73224   -0.031969
 C 0.665 0.19531 0.80469   0.121386
 N 0.79824 0.64104 0.8615   -0.318289
 N 0.5037 0.8768 0.056   -0.209986
 N 0.29824 0.85896 0.6385   -0.318289
 N 0.0037 0.6232 0.444   -0.209986
 N 0.70176 0.6385 0.85896   -0.318266
 N 0.9963 0.444 0.6232   -0.209985
 N 0.20176 0.8615 0.64104   -0.318266
 N 0.4963 0.056 0.8768   -0.209985
 N 0.20176 0.35896 0.1385   -0.318289
 N 0.4963 0.1232 0.944   -0.209935
 N 0.70176 0.14104 0.3615   -0.318289
 N 0.9963 0.3768 0.556   -0.209935
 N 0.29824 0.3615 0.14104   -0.318266
 N 0.0037 0.556 0.3768   -0.209934
 N 0.79824 0.1385 0.35896   -0.318266
 N 0.5037 0.944 0.1232   -0.209934
 N 0.75 0.72595 0.77405   -0.024504
 N 0.25 0.77405 0.72595   -0.024504
 N 0.25 0.27405 0.22595   -0.024504
 N 0.75 0.22595 0.27405   -0.024504
 N 0.4069 0.84582 0.15418   0.030713
 N 0.9069 0.65418 0.34582   0.030713
 N 0.0931 0.34582 0.65418   0.030713
 N 0.5931 0.15418 0.84582   0.030713
 O 0.24543 0.89998 0.4572   -0.76513
 O 0.10247 0.84924 0.4197   -0.658585
 O 0.000210000000003 0.8735 0.62354   -0.67067
 O 0.92634 0.94405 0.53493   -0.763553
 O 0.74543 0.60002 0.0428   -0.76513
 O 0.60247 0.65076 0.0803   -0.658585
 O 0.50021 0.6265 0.87646   -0.67067
 O 0.42634 0.55595 0.96507   -0.763553
 O 0.25457 0.0428 0.60002   -0.76513
 O 0.39753 0.0803 0.65076   -0.658585
 O 0.49979 0.87646 0.6265   -0.67067
 O 0.57366 0.96507 0.55595   -0.763554
 O 0.75457 0.4572 0.89998   -0.76513
 O 0.89753 0.4197 0.84924   -0.658585
 O 0.99979 0.62354 0.8735   -0.67067
 O 0.07366 0.53493 0.94405   -0.763554
 O 0.75457 0.10002 0.5428   -0.76513
 O 0.89753 0.15076 0.5803   -0.658585
 O 0.99979 0.1265 0.37646   -0.670671
 O 0.07366 0.05595 0.46507   -0.763553
 O 0.25457 0.39998 0.9572   -0.76513
 O 0.39753 0.34924 0.9197   -0.658585
 O 0.49979 0.3735 0.12354   -0.670671
 O 0.57366 0.44405 0.03493   -0.763553
 O 0.74543 0.9572 0.39998   -0.76513
 O 0.60247 0.9197 0.34924   -0.658585
 O 0.50021 0.12354 0.3735   -0.67067
 O 0.42634 0.03493 0.44405   -0.763554
 O 0.24543 0.5428 0.10002   -0.76513
 O 0.10247 0.5803 0.15076   -0.658585
 O 0.000210000000003 0.37646 0.1265   -0.67067
 O 0.92634 0.46507 0.05595   -0.763554
