{'_ref': 'TBD', '_srcid': 'CAKYAQ_clean', 'submitters': [{'name': 'Dalar Nazarian Jeff Camp and David Sholl', 'email': 'dalar@gatech.edu jcamp6@gatech.edu'}], '_method': 'VASP DFT with PBE;DDEC'}
data_Ca2FeH16C12(N5O)2
_symmetry_space_group_name_H-M   'P 1'
_cell_length_a   8.81469979
_cell_length_b   8.81470014
_cell_length_c   13.73500000
_cell_angle_alpha   94.58949815
_cell_angle_beta   94.58949834
_cell_angle_gamma   100.25400299
_symmetry_Int_Tables_number   1
_chemical_formula_structural   Ca2FeH16C12(N5O)2
_chemical_formula_sum   'Ca4 Fe2 H32 C24 N20 O4'
_cell_volume   1041.93802771
_cell_formula_units_Z   2
loop_
 _symmetry_equiv_pos_site_id
 _symmetry_equiv_pos_as_xyz
  1  'x, y, z'
loop_
 _atom_site_label
 _atom_site_fract_x
 _atom_site_fract_y
 _atom_site_fract_z
 _atom_site_charge
 Ca 0.8759 0.5743 0.604   1.518943
 Ca 0.4257 0.1241 0.896   1.518942
 Ca 0.1241 0.4257 0.396   1.518944
 Ca 0.5743 0.8759 0.104   1.518943
 Fe 0.5 0.0 0.5   -0.822748
 Fe 0.0 0.5 0.0   -0.822748
 H 0.4819 0.4591 0.5538   0.095877
 H 0.4486 0.6274 0.6206   0.059648
 H 0.5803 0.7281 0.7078   0.040884
 H 0.7439 0.7405 0.7928   0.106313
 H 0.2516 0.6376 0.7878   0.102527
 H 0.6996 0.4138 0.8081   0.102451
 H 0.9628 0.689 0.4079   0.464602
 H 0.8361 0.5331 0.3921   0.357699
 H 0.5409 0.5181 0.9462   0.095877
 H 0.3726 0.5514 0.8794   0.059648
 H 0.2719 0.4197 0.7922   0.040883
 H 0.2595 0.2561 0.7072   0.106313
 H 0.3624 0.7484 0.7122   0.102526
 H 0.5862 0.3004 0.6919   0.102451
 H 0.311 0.0372 0.0921   0.464602
 H 0.4669 0.1639 0.1079   0.357699
 H 0.5181 0.5409 0.4462   0.095876
 H 0.5514 0.3726 0.3794   0.059648
 H 0.4197 0.2719 0.2922   0.040884
 H 0.2561 0.2595 0.2072   0.106313
 H 0.7484 0.3624 0.2122   0.102527
 H 0.3004 0.5862 0.1919   0.102451
 H 0.0372 0.311 0.5921   0.464602
 H 0.1639 0.4669 0.6079   0.357699
 H 0.4591 0.4819 0.0538   0.095876
 H 0.6274 0.4486 0.1206   0.059647
 H 0.7281 0.5803 0.2078   0.040883
 H 0.7405 0.7439 0.2928   0.106313
 H 0.6376 0.2516 0.2878   0.102526
 H 0.4138 0.6996 0.3081   0.102451
 H 0.689 0.9628 0.9079   0.464602
 H 0.5331 0.8361 0.8921   0.357699
 C 0.6487 0.1901 0.5215   0.313923
 C 0.4664 0.0174 0.6382   0.333144
 C 0.6538 0.874 0.5296   0.324205
 C 0.4809 0.5157 0.6264   0.074133
 C 0.6341 0.6701 0.7637   0.069589
 C 0.8099 0.3513 0.9785   0.313923
 C 0.9826 0.5336 0.8618   0.333143
 C 0.126 0.3462 0.9704   0.324205
 C 0.4843 0.5191 0.8736   0.074133
 C 0.3299 0.3659 0.7363   0.06959
 C 0.3513 0.8099 0.4785   0.313927
 C 0.5336 0.9826 0.3618   0.333148
 C 0.3462 0.126 0.4704   0.324209
 C 0.5191 0.4843 0.3736   0.074134
 C 0.3659 0.3299 0.2363   0.069589
 C 0.1901 0.6487 0.0215   0.313926
 C 0.0174 0.4664 0.1382   0.333147
 C 0.874 0.6538 0.0296   0.324209
 C 0.5157 0.4809 0.1264   0.074134
 C 0.6701 0.6341 0.2637   0.06959
 C 0.3571 0.6429 0.75   0.046889
 C 0.6074 0.3926 0.75   0.088294
 C 0.6429 0.3571 0.25   0.046889
 C 0.3926 0.6074 0.25   0.088294
 N 0.7338 0.3094 0.5339   -0.676067
 N 0.4472 0.0304 0.7209   -0.705827
 N 0.7387 0.7913 0.5495   -0.703614
 N 0.6237 0.5313 0.6936   -0.408097
 N 0.3405 0.5031 0.6802   -0.225866
 N 0.6906 0.2662 0.9661   -0.676067
 N 0.9696 0.5528 0.7791   -0.705827
 N 0.2087 0.2613 0.9505   -0.703614
 N 0.4687 0.3763 0.8064   -0.408097
 N 0.4969 0.6595 0.8198   -0.225866
 N 0.2662 0.6906 0.4661   -0.676067
 N 0.5528 0.9696 0.2791   -0.705828
 N 0.2613 0.2087 0.4505   -0.703614
 N 0.3763 0.4687 0.3064   -0.408097
 N 0.6595 0.4969 0.3198   -0.225866
 N 0.3094 0.7338 0.0339   -0.676067
 N 0.0304 0.4472 0.2209   -0.705828
 N 0.7913 0.7387 0.0495   -0.703614
 N 0.5313 0.6237 0.1936   -0.408097
 N 0.5031 0.3405 0.1802   -0.225866
 O 0.9281 0.5829 0.43   -0.900689
 O 0.4171 0.0719 0.07   -0.900689
 O 0.0719 0.4171 0.57   -0.900689
 O 0.5829 0.9281 0.93   -0.900689
