{'_ref': 'TBD', '_srcid': 'CAKYAQ_clean', 'submitters': [{'name': 'Dalar Nazarian Jeff Camp and David Sholl', 'email': 'dalar@gatech.edu jcamp6@gatech.edu'}], '_method': 'VASP DFT with PBE;DDEC'}
data_ZnH14C13S(NO2)2
_symmetry_space_group_name_H-M   'P 1'
_cell_length_a   9.52320000
_cell_length_b   15.84600000
_cell_length_c   22.36900000
_cell_angle_alpha   90.00000000
_cell_angle_beta   90.00000000
_cell_angle_gamma   90.00000000
_symmetry_Int_Tables_number   1
_chemical_formula_structural   ZnH14C13S(NO2)2
_chemical_formula_sum   'Zn8 H112 C104 S8 N16 O32'
_cell_volume   3375.58560584
_cell_formula_units_Z   8
loop_
 _symmetry_equiv_pos_site_id
 _symmetry_equiv_pos_as_xyz
  1  'x, y, z'
loop_
 _atom_site_label
 _atom_site_fract_x
 _atom_site_fract_y
 _atom_site_fract_z
 _atom_site_charge
 Zn 0.80953 0.31174 0.51366   0.935131
 Zn 0.69047 0.68826 0.01366   0.935131
 Zn 0.19047 0.81174 0.98634   0.935131
 Zn 0.30953 0.18826 0.48634   0.935131
 Zn 0.19047 0.68826 0.48634   0.935131
 Zn 0.30953 0.31174 0.98634   0.935131
 Zn 0.80953 0.18826 0.01366   0.935131
 Zn 0.69047 0.81174 0.51366   0.935131
 H 0.8 0.492 0.4908   0.067881
 H 0.667 0.59 0.44   0.136869
 H 0.412 0.414 0.3954   0.138934
 H 0.557 0.321 0.445   0.051758
 H 0.444 0.633 0.3898   0.114697
 H 0.358 0.552 0.3667   0.09498
 H 0.589 0.604 0.313   0.082394
 H 0.515 0.514 0.29   0.05933
 H 0.386 0.674 0.286   0.104028
 H 0.309 0.603 0.2655   0.080919
 H 0.41 0.53 0.1667   0.145627
 H 0.523 0.551 0.0752   0.093654
 H 0.672 0.768 0.1266   0.077922
 H 0.552 0.762 0.2232   0.151792
 H 0.7 0.508 0.9908   0.067881
 H 0.833 0.41 0.94   0.136869
 H 0.088 0.586 0.8954   0.138934
 H 0.943 0.679 0.945   0.051758
 H 0.056 0.367 0.8898   0.114697
 H 0.142 0.448 0.8667   0.09498
 H 0.911 0.396 0.813   0.082394
 H 0.985 0.486 0.79   0.05933
 H 0.114 0.326 0.786   0.104028
 H 0.191 0.397 0.7655   0.080919
 H 0.09 0.47 0.6667   0.145627
 H 0.977 0.449 0.5752   0.093654
 H 0.828 0.232 0.6266   0.077922
 H 0.948 0.238 0.7232   0.151792
 H 0.2 0.992 0.0092   0.067881
 H 0.333 0.09 0.06   0.136869
 H 0.588 0.914 0.1046   0.138934
 H 0.443 0.821 0.055   0.051757
 H 0.556 0.133 0.1102   0.114697
 H 0.642 0.052 0.1333   0.09498
 H 0.411 0.104 0.187   0.082394
 H 0.485 0.014 0.21   0.059329
 H 0.614 0.174 0.214   0.104028
 H 0.691 0.103 0.2345   0.080919
 H 0.59 0.03 0.3333   0.145627
 H 0.477 0.051 0.4248   0.093655
 H 0.328 0.268 0.3734   0.077921
 H 0.448 0.262 0.2768   0.15179
 H 0.3 0.008 0.5092   0.067881
 H 0.167 0.91 0.56   0.136869
 H 0.912 0.086 0.6046   0.138934
 H 0.057 0.179 0.555   0.051757
 H 0.944 0.867 0.6102   0.114697
 H 0.858 0.948 0.6333   0.09498
 H 0.089 0.896 0.687   0.082394
 H 0.015 0.986 0.71   0.059329
 H 0.886 0.826 0.714   0.104028
 H 0.809 0.897 0.7345   0.080919
 H 0.91 0.97 0.8333   0.145627
 H 0.023 0.949 0.9248   0.093654
 H 0.172 0.732 0.8734   0.077921
 H 0.052 0.738 0.7768   0.15179
 H 0.2 0.508 0.5092   0.067881
 H 0.333 0.41 0.56   0.136869
 H 0.588 0.586 0.6046   0.138934
 H 0.443 0.679 0.555   0.051758
 H 0.556 0.367 0.6102   0.114697
 H 0.642 0.448 0.6333   0.09498
 H 0.411 0.396 0.687   0.082394
 H 0.485 0.486 0.71   0.059329
 H 0.614 0.326 0.714   0.104027
 H 0.691 0.397 0.7345   0.080918
 H 0.59 0.47 0.8333   0.145627
 H 0.477 0.449 0.9248   0.093654
 H 0.328 0.232 0.8734   0.077922
 H 0.448 0.238 0.7768   0.151791
 H 0.3 0.492 0.0092   0.067881
 H 0.167 0.59 0.06   0.136869
 H 0.912 0.414 0.1046   0.138934
 H 0.057 0.321 0.055   0.051758
 H 0.944 0.633 0.1102   0.114697
 H 0.858 0.552 0.1333   0.09498
 H 0.089 0.604 0.187   0.082394
 H 0.015 0.514 0.21   0.059329
 H 0.886 0.674 0.214   0.104027
 H 0.809 0.603 0.2345   0.080918
 H 0.91 0.53 0.3333   0.145627
 H 0.023 0.551 0.4248   0.093654
 H 0.172 0.768 0.3734   0.077922
 H 0.052 0.762 0.2768   0.151791
 H 0.8 0.008 0.9908   0.067881
 H 0.667 0.91 0.94   0.136869
 H 0.412 0.086 0.8954   0.138934
 H 0.557 0.179 0.945   0.051757
 H 0.444 0.867 0.8898   0.114697
 H 0.358 0.948 0.8667   0.09498
 H 0.589 0.896 0.813   0.082394
 H 0.515 0.986 0.79   0.059329
 H 0.386 0.826 0.786   0.104027
 H 0.309 0.897 0.7655   0.080918
 H 0.41 0.97 0.6667   0.145627
 H 0.523 0.949 0.5752   0.093654
 H 0.672 0.732 0.6266   0.077921
 H 0.552 0.738 0.7232   0.15179
 H 0.7 0.992 0.4908   0.067881
 H 0.833 0.09 0.44   0.136869
 H 0.088 0.914 0.3954   0.138934
 H 0.943 0.821 0.445   0.051757
 H 0.056 0.133 0.3898   0.114697
 H 0.142 0.052 0.3667   0.09498
 H 0.911 0.104 0.313   0.082394
 H 0.985 0.014 0.29   0.059329
 H 0.114 0.174 0.286   0.104027
 H 0.191 0.103 0.2655   0.080918
 H 0.09 0.03 0.1667   0.145627
 H 0.977 0.051 0.0752   0.093654
 H 0.828 0.268 0.1266   0.077921
 H 0.948 0.262 0.2232   0.15179
 C 0.7238 0.4809 0.4712   0.213658
 C 0.6459 0.5388 0.43908   -0.203546
 C 0.5281 0.514 0.40874   0.167612
 C 0.493 0.4301 0.4131   -0.247473
 C 0.5739 0.3758 0.44575   0.215765
 C 0.4451 0.5737 0.37088   -0.19935
 C 0.5044 0.5782 0.30739   -0.087017
 C 0.4081 0.6281 0.26568   -0.182826
 C 0.4759 0.6398 0.2049   0.184147
 C 0.4692 0.5784 0.16112   -0.23961
 C 0.5337 0.5915 0.10669   0.197498
 C 0.6144 0.72 0.13739   0.194737
 C 0.5503 0.712 0.19203   -0.247866
 C 0.7762 0.5191 0.9712   0.213658
 C 0.8541 0.4612 0.93908   -0.203546
 C 0.9719 0.486 0.90874   0.167612
 C 0.007 0.5699 0.9131   -0.247473
 C 0.9261 0.6242 0.94575   0.215765
 C 0.0549 0.4263 0.87088   -0.19935
 C 0.9956 0.4218 0.80739   -0.087017
 C 0.0919 0.3719 0.76568   -0.182826
 C 0.0241 0.3602 0.7049   0.184147
 C 0.0308 0.4216 0.66112   -0.23961
 C 0.9663 0.4085 0.60669   0.197498
 C 0.8856 0.28 0.63739   0.194737
 C 0.9497 0.288 0.69203   -0.247866
 C 0.2762 0.9809 0.0288   0.213658
 C 0.3541 0.0388 0.06092   -0.203546
 C 0.4719 0.014 0.09126   0.167612
 C 0.507 0.9301 0.0869   -0.247472
 C 0.4261 0.8758 0.05425   0.215766
 C 0.5549 0.0737 0.12912   -0.19935
 C 0.4956 0.0782 0.19261   -0.087017
 C 0.5919 0.1281 0.23432   -0.182826
 C 0.5241 0.1398 0.2951   0.184147
 C 0.5308 0.0784 0.33888   -0.23961
 C 0.4663 0.0915 0.39331   0.197498
 C 0.3856 0.22 0.36261   0.194737
 C 0.4497 0.212 0.30797   -0.247865
 C 0.2238 0.0191 0.5288   0.213658
 C 0.1459 0.9612 0.56092   -0.203546
 C 0.0281 0.986 0.59126   0.167612
 C 0.993 0.0699 0.5869   -0.247472
 C 0.0739 0.1242 0.55425   0.215766
 C 0.9451 0.9263 0.62912   -0.19935
 C 0.0044 0.9218 0.69261   -0.087017
 C 0.9081 0.8719 0.73432   -0.182826
 C 0.9759 0.8602 0.7951   0.184147
 C 0.9692 0.9216 0.83888   -0.23961
 C 0.0337 0.9085 0.89331   0.197498
 C 0.1144 0.78 0.86261   0.194737
 C 0.0503 0.788 0.80797   -0.247865
 C 0.2762 0.5191 0.5288   0.213658
 C 0.3541 0.4612 0.56092   -0.203546
 C 0.4719 0.486 0.59126   0.167612
 C 0.507 0.5699 0.5869   -0.247472
 C 0.4261 0.6242 0.55425   0.215765
 C 0.5549 0.4263 0.62912   -0.19935
 C 0.4956 0.4218 0.69261   -0.087017
 C 0.5919 0.3719 0.73432   -0.182826
 C 0.5241 0.3602 0.7951   0.184147
 C 0.5308 0.4216 0.83888   -0.23961
 C 0.4663 0.4085 0.89331   0.197498
 C 0.3856 0.28 0.86261   0.194737
 C 0.4497 0.288 0.80797   -0.247866
 C 0.2238 0.4809 0.0288   0.213658
 C 0.1459 0.5388 0.06092   -0.203546
 C 0.0281 0.514 0.09126   0.167612
 C 0.993 0.4301 0.0869   -0.247472
 C 0.0739 0.3758 0.05425   0.215765
 C 0.9451 0.5737 0.12912   -0.19935
 C 0.0044 0.5782 0.19261   -0.087017
 C 0.9081 0.6281 0.23432   -0.182826
 C 0.9759 0.6398 0.2951   0.184147
 C 0.9692 0.5784 0.33888   -0.23961
 C 0.0337 0.5915 0.39331   0.197498
 C 0.1144 0.72 0.36261   0.194737
 C 0.0503 0.712 0.30797   -0.247866
 C 0.7238 0.0191 0.9712   0.213658
 C 0.6459 0.9612 0.93908   -0.203546
 C 0.5281 0.986 0.90874   0.167612
 C 0.493 0.0699 0.9131   -0.247472
 C 0.5739 0.1242 0.94575   0.215766
 C 0.4451 0.9263 0.87088   -0.19935
 C 0.5044 0.9218 0.80739   -0.087017
 C 0.4081 0.8719 0.76568   -0.182826
 C 0.4759 0.8602 0.7049   0.184147
 C 0.4692 0.9216 0.66112   -0.23961
 C 0.5337 0.9085 0.60669   0.197498
 C 0.6144 0.78 0.63739   0.194737
 C 0.5503 0.788 0.69203   -0.247864
 C 0.7762 0.9809 0.4712   0.213658
 C 0.8541 0.0388 0.43908   -0.203546
 C 0.9719 0.014 0.40874   0.167612
 C 0.007 0.9301 0.4131   -0.247472
 C 0.9261 0.8758 0.44575   0.215766
 C 0.0549 0.0737 0.37088   -0.19935
 C 0.9956 0.0782 0.30739   -0.087017
 C 0.0919 0.1281 0.26568   -0.182826
 C 0.0241 0.1398 0.2049   0.184147
 C 0.0308 0.0784 0.16112   -0.23961
 C 0.9663 0.0915 0.10669   0.197498
 C 0.8856 0.22 0.13739   0.194737
 C 0.9497 0.212 0.19203   -0.247864
 S 0.06851 0.32047 0.44392   1.619353
 S 0.43149 0.67953 0.94392   1.619353
 S 0.93149 0.82047 0.05608   1.619353
 S 0.56851 0.17953 0.55608   1.619353
 S 0.93149 0.67953 0.55608   1.619353
 S 0.56851 0.32047 0.05608   1.619353
 S 0.06851 0.17953 0.94392   1.619353
 S 0.43149 0.82047 0.44392   1.619353
 N 0.6902 0.39946 0.4739   -0.389433
 N 0.6059 0.66165 0.09409   -0.379424
 N 0.8098 0.60054 0.9739   -0.389433
 N 0.8941 0.33835 0.59409   -0.379424
 N 0.3098 0.89946 0.0261   -0.389434
 N 0.3941 0.16165 0.40591   -0.379424
 N 0.1902 0.10054 0.5261   -0.389434
 N 0.1059 0.83835 0.90591   -0.379424
 N 0.3098 0.60054 0.5261   -0.389433
 N 0.3941 0.33835 0.90591   -0.379424
 N 0.1902 0.39946 0.0261   -0.389433
 N 0.1059 0.66165 0.40591   -0.379424
 N 0.6902 0.10054 0.9739   -0.389434
 N 0.6059 0.83835 0.59409   -0.379424
 N 0.8098 0.89946 0.4739   -0.389434
 N 0.8941 0.16165 0.09409   -0.379424
 O 0.9502 0.26254 0.45973   -0.746657
 O 0.1961 0.29018 0.47614   -0.746072
 O 0.0928 0.3161 0.38045   -0.740366
 O 0.0329 0.40386 0.46508   -0.719044
 O 0.5498 0.73746 0.95973   -0.746657
 O 0.3039 0.70982 0.97614   -0.746072
 O 0.4072 0.6839 0.88045   -0.740366
 O 0.4671 0.59614 0.96508   -0.719044
 O 0.0498 0.76254 0.04027   -0.746657
 O 0.8039 0.79018 0.02386   -0.746072
 O 0.9072 0.8161 0.11955   -0.740366
 O 0.9671 0.90386 0.03492   -0.719044
 O 0.4502 0.23746 0.54027   -0.746657
 O 0.6961 0.20982 0.52386   -0.746072
 O 0.5928 0.1839 0.61955   -0.740366
 O 0.5329 0.09614 0.53492   -0.719044
 O 0.0498 0.73746 0.54027   -0.746657
 O 0.8039 0.70982 0.52386   -0.746072
 O 0.9072 0.6839 0.61955   -0.740366
 O 0.9671 0.59614 0.53492   -0.719044
 O 0.4502 0.26254 0.04027   -0.746657
 O 0.6961 0.29018 0.02386   -0.746072
 O 0.5928 0.3161 0.11955   -0.740366
 O 0.5329 0.40386 0.03492   -0.719044
 O 0.9502 0.23746 0.95973   -0.746657
 O 0.1961 0.20982 0.97614   -0.746072
 O 0.0928 0.1839 0.88045   -0.740366
 O 0.0329 0.09614 0.96508   -0.719044
 O 0.5498 0.76254 0.45973   -0.746657
 O 0.3039 0.79018 0.47614   -0.746072
 O 0.4072 0.8161 0.38045   -0.740366
 O 0.4671 0.90386 0.46508   -0.719044
