{'_ref': 'TBD', '_srcid': 'CAKYAQ_clean', 'submitters': [{'name': 'Dalar Nazarian Jeff Camp and David Sholl', 'email': 'dalar@gatech.edu jcamp6@gatech.edu'}], '_method': 'VASP DFT with PBE;DDEC'}
data_NiH4C7O5
_symmetry_space_group_name_H-M   'P 1'
_cell_length_a   8.80790000
_cell_length_b   8.80789987
_cell_length_c   21.16630000
_cell_angle_alpha   90.00000000
_cell_angle_beta   90.00000000
_cell_angle_gamma   120.00000050
_symmetry_Int_Tables_number   1
_chemical_formula_structural   NiH4C7O5
_chemical_formula_sum   'Ni6 H24 C42 O30'
_cell_volume   1422.06785882
_cell_formula_units_Z   6
loop_
 _symmetry_equiv_pos_site_id
 _symmetry_equiv_pos_as_xyz
  1  'x, y, z'
loop_
 _atom_site_label
 _atom_site_fract_x
 _atom_site_fract_y
 _atom_site_fract_z
 _atom_site_charge
 Ni 0.96527 0.94629 0.91718   1.040886
 Ni 0.98102 0.03473 0.58385   1.040606
 Ni 0.05371 0.01898 0.25052   1.040332
 Ni 0.01898 0.05371 0.08282   1.040886
 Ni 0.94629 0.96527 0.41615   1.040606
 Ni 0.03473 0.98102 0.74948   1.040332
 H 0.9221 0.39 0.9254   0.137323
 H 0.4074 0.8962 0.9112   0.138312
 H 0.636 0.85 0.8669   0.454095
 H 0.884 0.63 0.9724   0.458455
 H 0.4679 0.0779 0.59207   0.136981
 H 0.4888 0.5926 0.57787   0.138315
 H 0.214 0.364 0.53357   0.453383
 H 0.746 0.116 0.63907   0.458693
 H 0.61 0.5321 0.25873   0.137171
 H 0.1038 0.5112 0.24453   0.139365
 H 0.15 0.786 0.20023   0.454235
 H 0.37 0.254 0.30573   0.458009
 H 0.5321 0.61 0.0746   0.137323
 H 0.5112 0.1038 0.0888   0.138311
 H 0.786 0.15 0.1331   0.454092
 H 0.254 0.37 0.0276   0.458454
 H 0.39 0.9221 0.40793   0.136981
 H 0.8962 0.4074 0.42213   0.138314
 H 0.85 0.636 0.46643   0.45338
 H 0.63 0.884 0.36093   0.458692
 H 0.0779 0.4679 0.74127   0.137171
 H 0.5926 0.4888 0.75547   0.139365
 H 0.364 0.214 0.79977   0.454233
 H 0.116 0.746 0.69427   0.458007
 C 0.6376 0.9353 0.9482   0.195745
 C 0.9523 0.4594 0.88819   -0.256928
 C 0.4817 0.937 0.94714   -0.252766
 C 0.9496 0.6157 0.88765   0.205309
 C 0.2977 0.3624 0.61487   0.194465
 C 0.5071 0.0477 0.55486   -0.255234
 C 0.4553 0.5183 0.61381   -0.252555
 C 0.6661 0.0504 0.55432   0.203983
 C 0.0647 0.7023 0.28153   0.196144
 C 0.5406 0.4929 0.22152   -0.256775
 C 0.063 0.5447 0.28047   -0.255067
 C 0.3843 0.3339 0.22098   0.20584
 C 0.7023 0.0647 0.0518   0.195745
 C 0.4929 0.5406 0.11181   -0.256928
 C 0.5447 0.063 0.05286   -0.252765
 C 0.3339 0.3843 0.11235   0.205309
 C 0.9353 0.6376 0.38513   0.194465
 C 0.4594 0.9523 0.44514   -0.255234
 C 0.937 0.4817 0.38619   -0.252555
 C 0.6157 0.9496 0.44568   0.203983
 C 0.3624 0.2977 0.71847   0.196143
 C 0.0477 0.5071 0.77848   -0.256775
 C 0.5183 0.4553 0.71953   -0.255067
 C 0.0504 0.6661 0.77902   0.20584
 C 0.267 0.0 0.0   0.659194
 C 0.7508 0.0 0.0   0.145956
 C 0.4354 0.0 0.0   -0.053258
 C 0.733 0.733 0.66667   0.660044
 C 0.2492 0.2492 0.66667   0.144614
 C 0.5646 0.5646 0.66667   -0.05353
 C 0.0 0.267 0.33333   0.660044
 C 0.0 0.7508 0.33333   0.144614
 C 0.0 0.4354 0.33333   -0.053531
 C 0.0 0.7205 0.83333   0.136502
 C 0.0 0.2366 0.83333   0.660519
 C 0.0 0.4056 0.83333   -0.05193
 C 0.7205 0.0 0.5   0.137501
 C 0.2366 0.0 0.5   0.658696
 C 0.4056 0.0 0.5   -0.052545
 C 0.2795 0.2795 0.16667   0.136502
 C 0.7634 0.7634 0.16667   0.660519
 C 0.5944 0.5944 0.16667   -0.05193
 O 0.2142 0.0255 0.94735   -0.617573
 O 0.6965 0.8701 0.90081   -0.520244
 O 0.0393 0.1913 0.88476   -0.614503
 O 0.8979 0.6808 0.93678   -0.522926
 O 0.8113 0.7858 0.61402   -0.617214
 O 0.1736 0.3035 0.56748   -0.518325
 O 0.152 0.9607 0.55143   -0.613794
 O 0.7829 0.1021 0.60345   -0.523293
 O 0.9745 0.1887 0.28068   -0.617886
 O 0.1299 0.8264 0.23414   -0.519946
 O 0.8087 0.848 0.21809   -0.614395
 O 0.3192 0.2171 0.27011   -0.522962
 O 0.1887 0.9745 0.05265   -0.617573
 O 0.8264 0.1299 0.09919   -0.520243
 O 0.848 0.8087 0.11524   -0.614502
 O 0.2171 0.3192 0.06322   -0.522926
 O 0.0255 0.2142 0.38598   -0.617215
 O 0.8701 0.6965 0.43252   -0.518324
 O 0.1913 0.0393 0.44857   -0.613794
 O 0.6808 0.8979 0.39655   -0.523292
 O 0.7858 0.8113 0.71932   -0.617885
 O 0.3035 0.1736 0.76586   -0.519945
 O 0.9607 0.152 0.78191   -0.614395
 O 0.1021 0.7829 0.72989   -0.522962
 O 0.9014 0.0 0.0   -0.593097
 O 0.0986 0.0986 0.66667   -0.591209
 O 0.0 0.9014 0.33333   -0.591209
 O 0.0 0.8714 0.83333   -0.594329
 O 0.8714 0.0 0.5   -0.594323
 O 0.1286 0.1286 0.16667   -0.594329
