{'_ref': 'TBD', '_srcid': 'CAKYAQ_clean', 'submitters': [{'name': 'Dalar Nazarian Jeff Camp and David Sholl', 'email': 'dalar@gatech.edu jcamp6@gatech.edu'}], '_method': 'VASP DFT with PBE;DDEC'}
data_MnH4C7O5
_symmetry_space_group_name_H-M   'P 1'
_cell_length_a   9.05530000
_cell_length_b   9.05530014
_cell_length_c   10.88720000
_cell_angle_alpha   90.00000000
_cell_angle_beta   90.00000000
_cell_angle_gamma   119.99999949
_symmetry_Int_Tables_number   1
_chemical_formula_structural   MnH4C7O5
_chemical_formula_sum   'Mn3 H12 C21 O15'
_cell_volume   773.130003482
_cell_formula_units_Z   3
loop_
 _symmetry_equiv_pos_site_id
 _symmetry_equiv_pos_as_xyz
  1  'x, y, z'
loop_
 _atom_site_label
 _atom_site_fract_x
 _atom_site_fract_y
 _atom_site_fract_z
 _atom_site_charge
 Mn 0.03 0.0 0.5   1.116827
 Mn 0.97 0.97 0.83333   1.116908
 Mn 0.0 0.03 0.16667   1.116911
 H 0.374 0.247 0.597   0.450764
 H 0.5888 0.5145 0.5105   0.136577
 H 0.873 0.626 0.93033   0.450791
 H 0.9257 0.4112 0.84383   0.136506
 H 0.753 0.127 0.26367   0.450796
 H 0.4855 0.0743 0.17717   0.136581
 H 0.127 0.753 0.403   0.450764
 H 0.0743 0.4855 0.4895   0.136576
 H 0.247 0.374 0.06967   0.450791
 H 0.5145 0.5888 0.15617   0.136506
 H 0.626 0.873 0.73633   0.450795
 H 0.4112 0.9257 0.82283   0.136581
 C 0.3728 0.3235 0.43754   0.197414
 C 0.5233 0.4772 0.43935   -0.256656
 C 0.9507 0.6272 0.77087   0.197382
 C 0.9539 0.4767 0.77268   -0.256583
 C 0.6765 0.0493 0.10421   0.197398
 C 0.5228 0.0461 0.10602   -0.256697
 C 0.0493 0.6765 0.56246   0.197414
 C 0.0461 0.5228 0.56065   -0.256657
 C 0.3235 0.3728 0.22913   0.197383
 C 0.4772 0.5233 0.22732   -0.256584
 C 0.6272 0.9507 0.89579   0.197399
 C 0.4767 0.9539 0.89398   -0.256699
 C 0.7402 0.7402 0.33333   0.681149
 C 0.2693 0.2693 0.33333   0.144868
 C 0.5755 0.5755 0.33333   -0.053985
 C 0.0 0.2598 0.66667   0.681149
 C 0.0 0.7307 0.66667   0.144868
 C 0.0 0.4245 0.66667   -0.053985
 C 0.2598 0.0 0.0   0.681187
 C 0.7307 0.0 0.0   0.144928
 C 0.4245 0.0 0.0   -0.053974
 O 0.7827 0.8277 0.43051   -0.64234
 O 0.3097 0.2113 0.53484   -0.524454
 O 0.045 0.2173 0.76384   -0.642234
 O 0.9016 0.6903 0.86817   -0.524494
 O 0.1723 0.955 0.09718   -0.642326
 O 0.7887 0.0984 0.20151   -0.524493
 O 0.955 0.1723 0.56949   -0.642338
 O 0.0984 0.7887 0.46516   -0.524454
 O 0.8277 0.7827 0.23616   -0.642234
 O 0.2113 0.3097 0.13183   -0.524494
 O 0.2173 0.045 0.90282   -0.642326
 O 0.6903 0.9016 0.79849   -0.524493
 O 0.1227 0.1227 0.33333   -0.611542
 O 0.0 0.8773 0.66667   -0.611542
 O 0.8773 0.0 0.0   -0.611626
