{'_ref': 'TBD', '_srcid': 'CAKYAQ_clean', 'submitters': [{'name': 'Dalar Nazarian Jeff Camp and David Sholl', 'email': 'dalar@gatech.edu jcamp6@gatech.edu'}], '_method': 'VASP DFT with PBE;DDEC'}
data_NiH4C7O5
_symmetry_space_group_name_H-M   'P 1'
_cell_length_a   8.82400000
_cell_length_b   8.82399986
_cell_length_c   10.64400000
_cell_angle_alpha   90.00000000
_cell_angle_beta   90.00000000
_cell_angle_gamma   120.00000053
_symmetry_Int_Tables_number   1
_chemical_formula_structural   NiH4C7O5
_chemical_formula_sum   'Ni3 H12 C21 O15'
_cell_volume   717.738904002
_cell_formula_units_Z   3
loop_
 _symmetry_equiv_pos_site_id
 _symmetry_equiv_pos_as_xyz
  1  'x, y, z'
loop_
 _atom_site_label
 _atom_site_fract_x
 _atom_site_fract_y
 _atom_site_fract_z
 _atom_site_charge
 Ni 0.0 0.95806 0.83333   1.016798
 Ni 0.95806 0.0 0.5   1.017014
 Ni 0.04194 0.04194 0.16667   1.016798
 H 0.211 0.864 0.729   0.471985
 H 0.512 0.904 0.831   0.134035
 H 0.653 0.789 0.39567   0.474083
 H 0.392 0.488 0.49767   0.133511
 H 0.136 0.347 0.06233   0.47251
 H 0.096 0.608 0.16433   0.133639
 H 0.347 0.136 0.271   0.471989
 H 0.608 0.096 0.169   0.134036
 H 0.864 0.211 0.60433   0.474086
 H 0.904 0.512 0.50233   0.133512
 H 0.789 0.653 0.93767   0.472514
 H 0.488 0.392 0.83567   0.133639
 C 0.4728 0.9445 0.8933   -0.237369
 C 0.3148 0.9426 0.8944   0.2184
 C 0.4717 0.5272 0.55997   -0.236665
 C 0.6278 0.6852 0.56107   0.2187
 C 0.0555 0.5283 0.22663   -0.235926
 C 0.0574 0.3722 0.22773   0.218553
 C 0.5283 0.0555 0.1067   -0.237369
 C 0.3722 0.0574 0.1056   0.2184
 C 0.9445 0.4728 0.44003   -0.236665
 C 0.9426 0.3148 0.43893   0.2187
 C 0.5272 0.4717 0.77337   -0.235926
 C 0.6852 0.6278 0.77227   0.218553
 C 0.2633 0.0 0.0   0.134164
 C 0.7474 0.0 0.0   0.670527
 C 0.5791 0.0 0.0   -0.077439
 C 0.7367 0.7367 0.66667   0.13312
 C 0.2526 0.2526 0.66667   0.671437
 C 0.4209 0.4209 0.66667   -0.077476
 C 0.0 0.2633 0.33333   0.13312
 C 0.0 0.7474 0.33333   0.671437
 C 0.0 0.5791 0.33333   -0.077477
 O 0.1959 0.8855 0.7982   -0.543831
 O 0.829 0.0321 0.8969   -0.618506
 O 0.6896 0.8041 0.46487   -0.546773
 O 0.2031 0.171 0.56357   -0.618565
 O 0.1145 0.3104 0.13153   -0.545237
 O 0.9679 0.7969 0.23023   -0.619083
 O 0.3104 0.1145 0.2018   -0.543831
 O 0.7969 0.9679 0.1031   -0.618505
 O 0.8855 0.1959 0.53513   -0.546772
 O 0.0321 0.829 0.43643   -0.618565
 O 0.8041 0.6896 0.86847   -0.545236
 O 0.171 0.2031 0.76977   -0.619083
 O 0.1133 0.0 0.0   -0.593435
 O 0.8867 0.8867 0.66667   -0.592763
 O 0.0 0.1133 0.33333   -0.592763
