{'_ref': 'TBD', '_srcid': 'CAKYAQ_clean', 'submitters': [{'name': 'Dalar Nazarian Jeff Camp and David Sholl', 'email': 'dalar@gatech.edu jcamp6@gatech.edu'}], '_method': 'VASP DFT with PBE;DDEC'}
data_MnH4C7O5
_symmetry_space_group_name_H-M   'P 1'
_cell_length_a   9.06300000
_cell_length_b   9.06299980
_cell_length_c   10.94700000
_cell_angle_alpha   90.00000000
_cell_angle_beta   90.00000000
_cell_angle_gamma   120.00000074
_symmetry_Int_Tables_number   1
_chemical_formula_structural   MnH4C7O5
_chemical_formula_sum   'Mn3 H12 C21 O15'
_cell_volume   778.699143105
_cell_formula_units_Z   3
loop_
 _symmetry_equiv_pos_site_id
 _symmetry_equiv_pos_as_xyz
  1  'x, y, z'
loop_
 _atom_site_label
 _atom_site_fract_x
 _atom_site_fract_y
 _atom_site_fract_z
 _atom_site_charge
 Mn 0.02779 0.02779 0.33333   1.099782
 Mn 0.0 0.97221 0.66667   1.099784
 Mn 0.97221 0.0 0.0   1.100027
 H 0.37 0.143 0.25   0.459413
 H 0.597 0.091 0.332   0.132427
 H 0.773 0.63 0.58333   0.459302
 H 0.494 0.403 0.66533   0.132392
 H 0.857 0.227 0.91667   0.459265
 H 0.909 0.506 0.99867   0.132324
 H 0.227 0.857 0.75   0.459413
 H 0.506 0.909 0.668   0.132427
 H 0.143 0.37 0.41667   0.459302
 H 0.091 0.597 0.33467   0.132391
 H 0.63 0.773 0.08333   0.459265
 H 0.403 0.494 0.00133   0.132324
 C 0.5212 0.0454 0.3949   -0.241647
 C 0.3717 0.0492 0.3959   0.191779
 C 0.5242 0.4788 0.72823   -0.241682
 C 0.6775 0.6283 0.72923   0.191713
 C 0.9546 0.4758 0.06157   -0.241522
 C 0.9508 0.3225 0.06257   0.191729
 C 0.4758 0.9546 0.6051   -0.241648
 C 0.3225 0.9508 0.6041   0.191779
 C 0.0454 0.5212 0.27177   -0.241682
 C 0.0492 0.3717 0.27077   0.191713
 C 0.4788 0.5242 0.93843   -0.241522
 C 0.6283 0.6775 0.93743   0.19173
 C 0.7387 0.0 0.5   0.680254
 C 0.2671 0.0 0.5   0.137315
 C 0.5746 0.0 0.5   -0.063286
 C 0.2613 0.2613 0.83333   0.680377
 C 0.7329 0.7329 0.83333   0.137307
 C 0.4254 0.4254 0.83333   -0.06335
 C 0.0 0.7387 0.16667   0.680377
 C 0.0 0.2671 0.16667   0.137307
 C 0.0 0.5746 0.16667   -0.063349
 O 0.3071 0.0966 0.29969   -0.527843
 O 0.7812 0.9545 0.40323   -0.63832
 O 0.7895 0.6929 0.63302   -0.527679
 O 0.1733 0.2188 0.73656   -0.638386
 O 0.9034 0.2105 0.96636   -0.527762
 O 0.0455 0.8267 0.0699   -0.638414
 O 0.2105 0.9034 0.70031   -0.527842
 O 0.8267 0.0455 0.59677   -0.63832
 O 0.0966 0.3071 0.36698   -0.527678
 O 0.9545 0.7812 0.26344   -0.638386
 O 0.6929 0.7895 0.03364   -0.527762
 O 0.2188 0.1733 0.9301   -0.638415
 O 0.1206 0.0 0.5   -0.605543
 O 0.8794 0.8794 0.83333   -0.605589
 O 0.0 0.1206 0.16667   -0.605589
