{'_ref': 'TBD', '_srcid': 'CAKYAQ_clean', 'submitters': [{'name': 'Dalar Nazarian Jeff Camp and David Sholl', 'email': 'dalar@gatech.edu jcamp6@gatech.edu'}], '_method': 'VASP DFT with PBE;DDEC'}
data_CdH17C22(N2O)3
_symmetry_space_group_name_H-M   'P 1'
_cell_length_a   13.70100000
_cell_length_b   15.04800023
_cell_length_c   26.94800000
_cell_angle_alpha   90.00000000
_cell_angle_beta   90.00000000
_cell_angle_gamma   108.77699805
_symmetry_Int_Tables_number   1
_chemical_formula_structural   CdH17C22(N2O)3
_chemical_formula_sum   'Cd8 H136 C176 N48 O24'
_cell_volume   5260.24544796
_cell_formula_units_Z   8
loop_
 _symmetry_equiv_pos_site_id
 _symmetry_equiv_pos_as_xyz
  1  'x, y, z'
loop_
 _atom_site_label
 _atom_site_fract_x
 _atom_site_fract_y
 _atom_site_fract_z
 _atom_site_charge
 Cd 0.73656 0.45372 0.58047   0.435408
 Cd 0.76481 0.02687 0.16986   0.488987
 Cd 0.76344 0.54628 0.08047   0.435408
 Cd 0.73519 0.97313 0.66986   0.488987
 Cd 0.26344 0.54628 0.41953   0.435408
 Cd 0.23519 0.97313 0.83014   0.488987
 Cd 0.23656 0.45372 0.91953   0.435408
 Cd 0.26481 0.02687 0.33014   0.488987
 H 0.8124 0.3448 0.1653   0.06442
 H 0.9298 0.3547 0.1649   0.09806
 H 0.6797 0.3226 0.2066   0.114425
 H 0.5378 0.2903 0.259   0.086733
 H 0.5543 0.2726 0.3421   0.09609
 H 0.9562 0.3513 0.3128   0.105098
 H 0.9699 0.3347 0.3964   0.054591
 H 0.827 0.2957 0.4481   0.1101
 H 0.5661 0.194 0.4796   0.106953
 H 0.6809 0.1975 0.4737   0.064777
 H 0.7985 0.5024 0.7049   0.085419
 H 0.6061 0.2714 0.6532   0.110035
 H 0.5837 0.2671 0.7426   0.138543
 H 0.8694 0.4517 0.796   0.131334
 H 0.7447 0.4673 0.9291   0.138059
 H 0.5628 0.3942 0.8088   0.126095
 H 0.5861 0.3967 0.9739   0.104993
 H 0.4172 0.4017 0.995   0.090783
 H 0.4503 0.4489 0.854   0.080592
 H 0.9956 0.4091 0.851   0.075581
 H 0.0863 0.5661 0.9673   0.083432
 H 0.918 0.5743 0.9462   0.12895
 H 0.7808 0.0633 0.0421   0.103602
 H 0.6602 0.8229 0.1065   0.087431
 H 0.6372 0.7962 0.0176   0.119057
 H 0.9865 0.9031 0.8859   0.083983
 H 0.0932 0.1026 0.7927   0.049512
 H 0.9343 0.1143 0.8198   0.1192
 H 0.8753 0.9806 0.9521   0.137218
 H 0.5665 0.9259 0.9455   0.135969
 H 0.7333 0.9609 0.8201   0.121855
 H 0.5688 0.8807 0.7817   0.14021
 H 0.4568 0.9827 0.896   0.084391
 H 0.4011 0.8928 0.7594   0.105142
 H 0.6876 0.6552 0.6653   0.06442
 H 0.5702 0.6453 0.6649   0.09806
 H 0.8203 0.6774 0.7066   0.114424
 H 0.9622 0.7097 0.759   0.086733
 H 0.9457 0.7274 0.8421   0.09609
 H 0.5438 0.6487 0.8128   0.105098
 H 0.5301 0.6653 0.8964   0.054591
 H 0.673 0.7043 0.9481   0.1101
 H 0.9339 0.806 0.9796   0.106953
 H 0.8191 0.8025 0.9737   0.064777
 H 0.7015 0.4976 0.2049   0.085419
 H 0.8939 0.7286 0.1532   0.110035
 H 0.9163 0.7329 0.2426   0.138543
 H 0.6306 0.5483 0.296   0.131334
 H 0.7553 0.5327 0.4291   0.138059
 H 0.9372 0.6058 0.3088   0.126095
 H 0.9139 0.6033 0.4739   0.104993
 H 0.0828 0.5983 0.495   0.090783
 H 0.0497 0.5511 0.354   0.080592
 H 0.5044 0.5909 0.351   0.075581
 H 0.4137 0.4339 0.4673   0.083432
 H 0.582 0.4257 0.4462   0.12895
 H 0.7192 0.9367 0.5421   0.103602
 H 0.8398 0.1771 0.6065   0.087431
 H 0.8628 0.2038 0.5176   0.119057
 H 0.5135 0.0969 0.3859   0.083983
 H 0.4068 0.8974 0.2927   0.049512
 H 0.5657 0.8857 0.3198   0.1192
 H 0.6247 0.0194 0.4521   0.137219
 H 0.9335 0.0741 0.4455   0.135968
 H 0.7667 0.0391 0.3201   0.121855
 H 0.9312 0.1193 0.2817   0.14021
 H 0.0432 0.0173 0.396   0.084391
 H 0.0989 0.1072 0.2594   0.105142
 H 0.1876 0.6552 0.8347   0.06442
 H 0.0702 0.6453 0.8351   0.09806
 H 0.3203 0.6774 0.7934   0.114424
 H 0.4622 0.7097 0.741   0.086733
 H 0.4457 0.7274 0.6579   0.09609
 H 0.0438 0.6487 0.6872   0.105097
 H 0.0301 0.6653 0.6036   0.05459
 H 0.173 0.7043 0.5519   0.1101
 H 0.4339 0.806 0.5204   0.106953
 H 0.3191 0.8025 0.5263   0.064777
 H 0.2015 0.4976 0.2951   0.085419
 H 0.3939 0.7286 0.3468   0.110035
 H 0.4163 0.7329 0.2574   0.138544
 H 0.1306 0.5483 0.204   0.131334
 H 0.2553 0.5327 0.0709   0.138058
 H 0.4372 0.6058 0.1912   0.126095
 H 0.4139 0.6033 0.0261   0.104992
 H 0.5828 0.5983 0.005   0.090783
 H 0.5497 0.5511 0.146   0.080592
 H 0.0044 0.5909 0.149   0.075581
 H 0.9137 0.4339 0.0327   0.083432
 H 0.082 0.4257 0.0538   0.12895
 H 0.2192 0.9367 0.9579   0.103602
 H 0.3398 0.1771 0.8935   0.087431
 H 0.3628 0.2038 0.9824   0.119057
 H 0.0135 0.0969 0.1141   0.083983
 H 0.9068 0.8974 0.2073   0.049512
 H 0.0657 0.8857 0.1802   0.119201
 H 0.1247 0.0194 0.0479   0.137219
 H 0.4335 0.0741 0.0545   0.135969
 H 0.2667 0.0391 0.1799   0.121855
 H 0.4312 0.1193 0.2183   0.14021
 H 0.5432 0.0173 0.104   0.084391
 H 0.5989 0.1072 0.2406   0.105142
 H 0.3124 0.3448 0.3347   0.06442
 H 0.4298 0.3547 0.3351   0.09806
 H 0.1797 0.3226 0.2934   0.114424
 H 0.0378 0.2903 0.241   0.086733
 H 0.0543 0.2726 0.1579   0.09609
 H 0.4562 0.3513 0.1872   0.105097
 H 0.4699 0.3347 0.1036   0.05459
 H 0.327 0.2957 0.0519   0.1101
 H 0.0661 0.194 0.0204   0.106954
 H 0.1809 0.1975 0.0263   0.064777
 H 0.2985 0.5024 0.7951   0.085419
 H 0.1061 0.2714 0.8468   0.110035
 H 0.0837 0.2671 0.7574   0.138544
 H 0.3694 0.4517 0.704   0.131334
 H 0.2447 0.4673 0.5709   0.138058
 H 0.0628 0.3942 0.6912   0.126095
 H 0.0861 0.3967 0.5261   0.104992
 H 0.9172 0.4017 0.505   0.090783
 H 0.9503 0.4489 0.646   0.080592
 H 0.4956 0.4091 0.649   0.075581
 H 0.5863 0.5661 0.5327   0.083432
 H 0.418 0.5743 0.5538   0.12895
 H 0.2808 0.0633 0.4579   0.103602
 H 0.1602 0.8229 0.3935   0.087431
 H 0.1372 0.7962 0.4824   0.119056
 H 0.4865 0.9031 0.6141   0.083983
 H 0.5932 0.1026 0.7073   0.049512
 H 0.4343 0.1143 0.6802   0.119201
 H 0.3753 0.9806 0.5479   0.137219
 H 0.0665 0.9259 0.5545   0.135969
 H 0.2333 0.9609 0.6799   0.121855
 H 0.0688 0.8807 0.7183   0.14021
 H 0.9568 0.9827 0.604   0.084391
 H 0.9011 0.8928 0.7406   0.105142
 C 0.8373 0.2188 0.1761   0.625173
 C 0.8648 0.3246 0.18165   -0.047673
 C 0.7854 0.332 0.2596   0.237859
 C 0.6884 0.3182 0.2406   -0.270768
 C 0.6025 0.2976 0.2723   -0.015805
 C 0.6124 0.2882 0.3219   -0.164044
 C 0.7109 0.3019 0.3431   -0.034522
 C 0.7998 0.3246 0.3119   -0.019952
 C 0.8978 0.3365 0.3328   -0.164467
 C 0.9052 0.3261 0.3827   -0.015214
 C 0.8196 0.3029 0.4141   -0.252601
 C 0.7255 0.291 0.39422   0.237697
 C 0.635 0.2348 0.47167   -0.063727
 C 0.6675 0.3123 0.5104   0.625756
 C 0.748 0.4438 0.70303   0.110024
 C 0.6427 0.3181 0.6751   0.025149
 C 0.6302 0.3148 0.72441   -0.185238
 C 0.714 0.4202 0.79382   0.169492
 C 0.8116 0.4457 0.8155   -0.296455
 C 0.822 0.4619 0.86549   0.180482
 C 0.737 0.4557 0.89521   -0.262029
 C 0.64 0.4316 0.87299   0.170821
 C 0.6281 0.4124 0.82298   -0.28557
 C 0.5387 0.4078 0.9521   -0.122562
 C 0.4455 0.4106 0.96332   0.026275
 C 0.4628 0.4363 0.8867   0.108385
 C 0.9977 0.4491 0.87762   0.119573
 C 0.0463 0.5349 0.94084   0.013442
 C 0.9534 0.5398 0.92962   -0.102831
 C 0.747 0.9997 0.0472   0.117383
 C 0.6814 0.8689 0.0822   0.015099
 C 0.6689 0.8536 0.033   -0.14673
 C 0.9911 0.9519 0.8639   0.141954
 C 0.0472 0.0525 0.8095   0.010734
 C 0.9592 0.0651 0.8269   -0.157409
 C 0.8152 0.9692 0.9336   -0.287869
 C 0.7199 0.9501 0.957   0.158304
 C 0.6297 0.9378 0.9296   -0.303891
 C 0.6368 0.9436 0.8786   0.177305
 C 0.7299 0.9588 0.8546   -0.249996
 C 0.8187 0.9708 0.8828   0.172285
 C 0.5264 0.9027 0.8019   -0.141157
 C 0.4637 0.9595 0.8647   0.114716
 C 0.434 0.9102 0.7898   0.023359
 C 0.6627 0.7812 0.6761   0.625173
 C 0.6352 0.6754 0.68165   -0.047673
 C 0.7146 0.668 0.7596   0.237859
 C 0.8116 0.6818 0.7406   -0.270768
 C 0.8975 0.7024 0.7723   -0.015805
 C 0.8876 0.7118 0.8219   -0.164044
 C 0.7891 0.6981 0.8431   -0.034522
 C 0.7002 0.6754 0.8119   -0.019952
 C 0.6022 0.6635 0.8328   -0.164467
 C 0.5948 0.6739 0.8827   -0.015214
 C 0.6804 0.6971 0.9141   -0.252601
 C 0.7745 0.709 0.89422   0.237697
 C 0.865 0.7652 0.97167   -0.063727
 C 0.8325 0.6877 0.0104   0.625756
 C 0.752 0.5562 0.20303   0.110024
 C 0.8573 0.6819 0.1751   0.025149
 C 0.8698 0.6852 0.22441   -0.185238
 C 0.786 0.5798 0.29382   0.169492
 C 0.6884 0.5543 0.3155   -0.296455
 C 0.678 0.5381 0.36549   0.180482
 C 0.763 0.5443 0.39521   -0.262029
 C 0.86 0.5684 0.37299   0.170821
 C 0.8719 0.5876 0.32298   -0.28557
 C 0.9613 0.5922 0.4521   -0.122562
 C 0.0545 0.5894 0.46332   0.026275
 C 0.0372 0.5637 0.3867   0.108385
 C 0.5023 0.5509 0.37762   0.119573
 C 0.4537 0.4651 0.44084   0.013442
 C 0.5466 0.4602 0.42962   -0.102831
 C 0.753 0.000300000000003 0.5472   0.117383
 C 0.8186 0.1311 0.5822   0.015099
 C 0.8311 0.1464 0.533   -0.14673
 C 0.5089 0.0481 0.3639   0.141954
 C 0.4528 0.9475 0.3095   0.010734
 C 0.5408 0.9349 0.3269   -0.157409
 C 0.6848 0.0308 0.4336   -0.287869
 C 0.7801 0.0499 0.457   0.158304
 C 0.8703 0.0622 0.4296   -0.303891
 C 0.8632 0.0564 0.3786   0.177305
 C 0.7701 0.0412 0.3546   -0.249996
 C 0.6813 0.0292 0.3828   0.172285
 C 0.9736 0.0973 0.3019   -0.141157
 C 0.0363 0.0405 0.3647   0.114716
 C 0.066 0.0898 0.2898   0.023359
 C 0.1627 0.7812 0.8239   0.625173
 C 0.1352 0.6754 0.81835   -0.047673
 C 0.2146 0.668 0.7404   0.237859
 C 0.3116 0.6818 0.7594   -0.270768
 C 0.3975 0.7024 0.7277   -0.015805
 C 0.3876 0.7118 0.6781   -0.164044
 C 0.2891 0.6981 0.6569   -0.034522
 C 0.2002 0.6754 0.6881   -0.019952
 C 0.1022 0.6635 0.6672   -0.164467
 C 0.0948 0.6739 0.6173   -0.015213
 C 0.1804 0.6971 0.5859   -0.252601
 C 0.2745 0.709 0.60578   0.237697
 C 0.365 0.7652 0.52833   -0.063727
 C 0.3325 0.6877 0.4896   0.625756
 C 0.252 0.5562 0.29697   0.110024
 C 0.3573 0.6819 0.3249   0.025149
 C 0.3698 0.6852 0.27559   -0.185238
 C 0.286 0.5798 0.20618   0.169492
 C 0.1884 0.5543 0.1845   -0.296455
 C 0.178 0.5381 0.13451   0.180482
 C 0.263 0.5443 0.10479   -0.262029
 C 0.36 0.5684 0.12701   0.170821
 C 0.3719 0.5876 0.17702   -0.28557
 C 0.4613 0.5922 0.0479   -0.122561
 C 0.5545 0.5894 0.03668   0.026275
 C 0.5372 0.5637 0.1133   0.108385
 C 0.0023 0.5509 0.12238   0.119573
 C 0.9537 0.4651 0.05916   0.013442
 C 0.0466 0.4602 0.07038   -0.102831
 C 0.253 0.000300000000003 0.9528   0.117383
 C 0.3186 0.1311 0.9178   0.0151
 C 0.3311 0.1464 0.967   -0.14673
 C 0.0089 0.0481 0.1361   0.141954
 C 0.9528 0.9475 0.1905   0.010734
 C 0.0408 0.9349 0.1731   -0.157409
 C 0.1848 0.0308 0.0664   -0.287869
 C 0.2801 0.0499 0.043   0.158304
 C 0.3703 0.0622 0.0704   -0.303891
 C 0.3632 0.0564 0.1214   0.177305
 C 0.2701 0.0412 0.1454   -0.249996
 C 0.1813 0.0292 0.1172   0.172285
 C 0.4736 0.0973 0.1981   -0.141157
 C 0.5363 0.0405 0.1353   0.114716
 C 0.566 0.0898 0.2102   0.023359
 C 0.3373 0.2188 0.3239   0.625173
 C 0.3648 0.3246 0.31835   -0.047673
 C 0.2854 0.332 0.2404   0.237859
 C 0.1884 0.3182 0.2594   -0.270768
 C 0.1025 0.2976 0.2277   -0.015805
 C 0.1124 0.2882 0.1781   -0.164044
 C 0.2109 0.3019 0.1569   -0.034522
 C 0.2998 0.3246 0.1881   -0.019952
 C 0.3978 0.3365 0.1672   -0.164467
 C 0.4052 0.3261 0.1173   -0.015214
 C 0.3196 0.3029 0.0859   -0.252602
 C 0.2255 0.291 0.10578   0.237697
 C 0.135 0.2348 0.02833   -0.063727
 C 0.1675 0.3123 0.9896   0.625756
 C 0.248 0.4438 0.79697   0.110024
 C 0.1427 0.3181 0.8249   0.025149
 C 0.1302 0.3148 0.77559   -0.185238
 C 0.214 0.4202 0.70618   0.169492
 C 0.3116 0.4457 0.6845   -0.296455
 C 0.322 0.4619 0.63451   0.180482
 C 0.237 0.4557 0.60479   -0.262029
 C 0.14 0.4316 0.62701   0.170821
 C 0.1281 0.4124 0.67702   -0.28557
 C 0.0387 0.4078 0.5479   -0.122561
 C 0.9455 0.4106 0.53668   0.026275
 C 0.9628 0.4363 0.6133   0.108385
 C 0.4977 0.4491 0.62238   0.119573
 C 0.5463 0.5349 0.55916   0.013442
 C 0.4534 0.5398 0.57038   -0.102831
 C 0.247 0.9997 0.4528   0.117383
 C 0.1814 0.8689 0.4178   0.0151
 C 0.1689 0.8536 0.467   -0.14673
 C 0.4911 0.9519 0.6361   0.141954
 C 0.5472 0.0525 0.6905   0.010734
 C 0.4592 0.0651 0.6731   -0.157409
 C 0.3152 0.9692 0.5664   -0.287869
 C 0.2199 0.9501 0.543   0.158304
 C 0.1297 0.9378 0.5704   -0.303891
 C 0.1368 0.9436 0.6214   0.177305
 C 0.2299 0.9588 0.6454   -0.249996
 C 0.3187 0.9708 0.6172   0.172285
 C 0.0264 0.9027 0.6981   -0.141157
 C 0.9637 0.9595 0.6353   0.114716
 C 0.934 0.9102 0.7102   0.023359
 N 0.7294 0.9617 0.0908   -0.285899
 N 0.7117 0.9382 0.00981   0.033111
 N 0.5458 0.934 0.85026   0.031241
 N 0.3952 0.9476 0.82894   -0.33736
 N 0.9149 0.9889 0.85756   0.039342
 N 0.0715 0.99 0.83673   -0.286396
 N 0.7162 0.3992 0.66142   -0.280845
 N 0.6994 0.3956 0.74297   0.052672
 N 0.5515 0.4244 0.90243   0.039906
 N 0.397 0.4282 0.92263   -0.315209
 N 0.9209 0.4844 0.88915   0.030063
 N 0.0752 0.4785 0.90866   -0.321646
 N 0.7706 0.0383 0.5908   -0.285899
 N 0.7883 0.0618 0.50981   0.033111
 N 0.9542 0.066 0.35026   0.031241
 N 0.1048 0.0524 0.32894   -0.33736
 N 0.5851 0.0111 0.35756   0.039342
 N 0.4285 0.01 0.33673   -0.286396
 N 0.7838 0.6008 0.16142   -0.280845
 N 0.8006 0.6044 0.24297   0.052672
 N 0.9485 0.5756 0.40243   0.039906
 N 0.103 0.5718 0.42263   -0.315209
 N 0.5791 0.5156 0.38915   0.030063
 N 0.4248 0.5215 0.40866   -0.321646
 N 0.2706 0.0383 0.9092   -0.285899
 N 0.2883 0.0618 0.99019   0.033111
 N 0.4542 0.066 0.14974   0.031241
 N 0.6048 0.0524 0.17106   -0.33736
 N 0.0851 0.0111 0.14244   0.039342
 N 0.9285 0.01 0.16327   -0.286396
 N 0.2838 0.6008 0.33858   -0.280845
 N 0.3006 0.6044 0.25703   0.052672
 N 0.4485 0.5756 0.09757   0.039906
 N 0.603 0.5718 0.07737   -0.315209
 N 0.0791 0.5156 0.11085   0.030063
 N 0.9248 0.5215 0.09134   -0.321646
 N 0.2294 0.9617 0.4092   -0.285899
 N 0.2117 0.9382 0.49019   0.033111
 N 0.0458 0.934 0.64974   0.031241
 N 0.8952 0.9476 0.67106   -0.33736
 N 0.4149 0.9889 0.64244   0.039342
 N 0.5715 0.99 0.66327   -0.286396
 N 0.2162 0.3992 0.83858   -0.280845
 N 0.1994 0.3956 0.75703   0.052672
 N 0.0515 0.4244 0.59757   0.039906
 N 0.897 0.4282 0.57737   -0.315209
 N 0.4209 0.4844 0.61085   0.030063
 N 0.5752 0.4785 0.59134   -0.321646
 O 0.7058 0.3948 0.49774   -0.534583
 O 0.6354 0.2673 0.42185   -0.251999
 O 0.8736 0.3554 0.2321   -0.265973
 O 0.8246 0.1678 0.21387   -0.544124
 O 0.6515 0.2837 0.55454   -0.600332
 O 0.8293 0.1873 0.13241   -0.599755
 O 0.7942 0.6052 0.99774   -0.534583
 O 0.8646 0.7327 0.92185   -0.251999
 O 0.6264 0.6446 0.7321   -0.265973
 O 0.6754 0.8322 0.71387   -0.544124
 O 0.8485 0.7163 0.05454   -0.600332
 O 0.6707 0.8127 0.63241   -0.599755
 O 0.2942 0.6052 0.50226   -0.534583
 O 0.3646 0.7327 0.57815   -0.251999
 O 0.1264 0.6446 0.7679   -0.265973
 O 0.1754 0.8322 0.78613   -0.544124
 O 0.3485 0.7163 0.44546   -0.600332
 O 0.1707 0.8127 0.86759   -0.599755
 O 0.2058 0.3948 0.00226   -0.534583
 O 0.1354 0.2673 0.07815   -0.251999
 O 0.3736 0.3554 0.2679   -0.265973
 O 0.3246 0.1678 0.28613   -0.544124
 O 0.1515 0.2837 0.94546   -0.600332
 O 0.3293 0.1873 0.36759   -0.599755
