{'_ref': 'TBD', '_srcid': 'CAKYAQ_clean', 'submitters': [{'name': 'Dalar Nazarian Jeff Camp and David Sholl', 'email': 'dalar@gatech.edu jcamp6@gatech.edu'}], '_method': 'VASP DFT with PBE;DDEC'}
data_CdH20C26(NO2)2
_symmetry_space_group_name_H-M   'P 1'
_cell_length_a   12.87199992
_cell_length_b   13.67999964
_cell_length_c   16.11700000
_cell_angle_alpha   81.36299935
_cell_angle_beta   88.06500048
_cell_angle_gamma   63.77899921
_symmetry_Int_Tables_number   1
_chemical_formula_structural   CdH20C26(NO2)2
_chemical_formula_sum   'Cd2 H40 C52 N4 O8'
_cell_volume   2515.41092063
_cell_formula_units_Z   2
loop_
 _symmetry_equiv_pos_site_id
 _symmetry_equiv_pos_as_xyz
  1  'x, y, z'
loop_
 _atom_site_label
 _atom_site_fract_x
 _atom_site_fract_y
 _atom_site_fract_z
 _atom_site_charge
 Cd 0.61512 0.98562 0.91419   0.804767
 Cd 0.38488 0.01438 0.08581   0.804768
 H 0.8186 0.8834 0.0654   0.049291
 H 0.0041 0.8061 0.1213   0.08885
 H 0.8839 0.7875 0.3518   0.131658
 H 0.6979 0.869 0.2961   0.107642
 H 0.135 0.8395 0.2133   0.078216
 H 0.3223 0.7611 0.2648   0.086353
 H 0.3895 0.6034 0.3624   0.09951
 H 0.268 0.5257 0.4098   0.114666
 H 0.7883 0.7348 0.9614   0.062653
 H 0.8244 0.5582 0.9497   0.141675
 H 0.5236 0.681 0.8263   0.142404
 H 0.4951 0.8525 0.8455   0.076928
 H 0.7735 0.431 0.8806   0.106365
 H 0.6622 0.4846 0.8207   0.104617
 H 0.6645 0.4505 0.994   0.089911
 H 0.5509 0.5148 0.9379   0.080601
 H 0.4541 0.245 0.8918   0.083258
 H 0.7666 0.0867 0.986   0.063095
 H 0.7816 0.245 0.9892   0.139395
 H 0.4597 0.4103 0.8889   0.141432
 H 0.1814 0.1166 0.9346   0.049291
 H 0.9959 0.1939 0.8787   0.08885
 H 0.1161 0.2125 0.6482   0.131659
 H 0.3021 0.131 0.7039   0.107641
 H 0.865 0.1605 0.7867   0.078216
 H 0.6777 0.2389 0.7352   0.086353
 H 0.6105 0.3966 0.6376   0.099508
 H 0.732 0.4743 0.5902   0.114665
 H 0.2117 0.2652 0.0386   0.062653
 H 0.1756 0.4418 0.0503   0.141675
 H 0.4764 0.319 0.1737   0.142403
 H 0.5049 0.1475 0.1545   0.076928
 H 0.2265 0.569 0.1194   0.106365
 H 0.3378 0.5154 0.1793   0.104617
 H 0.3355 0.5495 0.006   0.089909
 H 0.4491 0.4852 0.0621   0.080601
 H 0.5459 0.755 0.1082   0.083258
 H 0.2334 0.9133 0.014   0.063096
 H 0.2184 0.755 0.0108   0.139394
 H 0.5403 0.5897 0.1111   0.141429
 C 0.618 0.9263 0.1389   0.668608
 C 0.7387 0.8822 0.1741   -0.193736
 C 0.8313 0.8637 0.1233   -0.03209
 C 0.9429 0.8164 0.1569   -0.161532
 C 0.9651 0.7843 0.2419   0.099785
 C 0.8711 0.8061 0.2939   -0.111678
 C 0.7597 0.8546 0.2605   -0.01158
 C 0.0855 0.7294 0.2771   0.023445
 C 0.1614 0.7753 0.2522   -0.141374
 C 0.2736 0.7291 0.2832   -0.100996
 C 0.3134 0.6352 0.3414   -0.109954
 C 0.2411 0.5879 0.369   -0.073482
 C 0.1271 0.6329 0.3357   -0.090199
 C 0.0573 0.5709 0.3634   0.591686
 C 0.7333 0.7242 0.9329   0.175616
 C 0.7569 0.6169 0.9253   -0.221686
 C 0.6808 0.5987 0.8821   0.182488
 C 0.581 0.6892 0.8538   -0.228743
 C 0.5644 0.7926 0.8656   0.18704
 C 0.6926 0.4843 0.8751   -0.165609
 C 0.6289 0.4556 0.9405   -0.170364
 C 0.5214 0.2451 0.9109   0.182588
 C 0.7036 0.1533 0.9663   0.165471
 C 0.714 0.2475 0.9681   -0.225569
 C 0.6213 0.3479 0.9378   0.148338
 C 0.5238 0.3451 0.9093   -0.229125
 C 0.382 0.0737 0.8611   0.668608
 C 0.2613 0.1178 0.8259   -0.193736
 C 0.1687 0.1363 0.8767   -0.03209
 C 0.0571 0.1836 0.8431   -0.161532
 C 0.0349 0.2157 0.7581   0.099785
 C 0.1289 0.1939 0.7061   -0.111679
 C 0.2403 0.1454 0.7395   -0.01158
 C 0.9145 0.2706 0.7229   0.023445
 C 0.8386 0.2247 0.7478   -0.141374
 C 0.7264 0.2709 0.7168   -0.100996
 C 0.6866 0.3648 0.6586   -0.109953
 C 0.7589 0.4121 0.631   -0.073482
 C 0.8729 0.3671 0.6643   -0.090199
 C 0.9427 0.4291 0.6366   0.591686
 C 0.2667 0.2758 0.0671   0.175616
 C 0.2431 0.3831 0.0747   -0.221685
 C 0.3192 0.4013 0.1179   0.182488
 C 0.419 0.3108 0.1462   -0.228742
 C 0.4356 0.2074 0.1344   0.187041
 C 0.3074 0.5157 0.1249   -0.165609
 C 0.3711 0.5444 0.0595   -0.170363
 C 0.4786 0.7549 0.0891   0.182588
 C 0.2964 0.8467 0.0337   0.165471
 C 0.286 0.7525 0.0319   -0.225569
 C 0.3787 0.6521 0.0622   0.148338
 C 0.4762 0.6549 0.0907   -0.229124
 N 0.6406 0.8111 0.9034   -0.332973
 N 0.6095 0.1497 0.9381   -0.358567
 N 0.3594 0.1889 0.0966   -0.332973
 N 0.3905 0.8503 0.0619   -0.358567
 O 0.5994 0.9446 0.06038   -0.63039
 O 0.5361 0.9437 0.1873   -0.570111
 O 0.0482 0.5435 0.44004   -0.463701
 O 0.0119 0.5432 0.30928   -0.594891
 O 0.4006 0.0554 0.93962   -0.63039
 O 0.4639 0.0563 0.8127   -0.570111
 O 0.9518 0.4565 0.55996   -0.463701
 O 0.9881 0.4568 0.69072   -0.594891
