{'_ref': 'TBD', '_srcid': 'CAKYAQ_clean', 'submitters': [{'name': 'Dalar Nazarian Jeff Camp and David Sholl', 'email': 'dalar@gatech.edu jcamp6@gatech.edu'}], '_method': 'VASP DFT with PBE;DDEC'}
data_Co3H24C28(N10O)2
_symmetry_space_group_name_H-M   'P 1'
_cell_length_a   6.70980000
_cell_length_b   13.09449975
_cell_length_c   21.34200000
_cell_angle_alpha   90.00000000
_cell_angle_beta   90.00000000
_cell_angle_gamma   102.50599909
_symmetry_Int_Tables_number   1
_chemical_formula_structural   Co3H24C28(N10O)2
_chemical_formula_sum   'Co6 H48 C56 N40 O4'
_cell_volume   1830.64878675
_cell_formula_units_Z   2
loop_
 _symmetry_equiv_pos_site_id
 _symmetry_equiv_pos_as_xyz
  1  'x, y, z'
loop_
 _atom_site_label
 _atom_site_fract_x
 _atom_site_fract_y
 _atom_site_fract_z
 _atom_site_charge
 Co 0.51802 0.04682 0.43307   0.815779
 Co 0.98198 0.45318 0.93307   0.815779
 Co 0.48198 0.95318 0.56693   0.815779
 Co 0.01802 0.54682 0.06693   0.815779
 Co 0.0 0.0 0.5   0.481106
 Co 0.5 0.5 0.0   0.481106
 H 0.2152 0.9818 0.3526   0.296785
 H 0.3985 0.9685 0.3211   0.310239
 H 0.6139 0.1145 0.266   0.129977
 H 0.5982 0.2487 0.1976   0.082832
 H 0.0431 0.1112 0.3226   0.119858
 H 0.0259 0.2431 0.2521   0.100143
 H 0.9524 0.406 0.4312   0.105924
 H 0.9573 0.5821 0.4219   0.125683
 H 0.566 0.6448 0.4131   0.117946
 H 0.5616 0.4692 0.4213   0.10355
 H 0.365 0.777 0.3933   0.276069
 H 0.142 0.758 0.407   0.276842
 H 0.2848 0.5182 0.8526   0.296785
 H 0.1015 0.5315 0.8211   0.310239
 H 0.8861 0.3855 0.766   0.129977
 H 0.9018 0.2513 0.6976   0.082832
 H 0.4569 0.3888 0.8226   0.119858
 H 0.4741 0.2569 0.7521   0.100143
 H 0.5476 0.094 0.9312   0.105924
 H 0.5427 0.9179 0.9219   0.125683
 H 0.934 0.8552 0.9131   0.117946
 H 0.9384 0.0308 0.9213   0.10355
 H 0.135 0.723 0.8933   0.276069
 H 0.358 0.742 0.907   0.276842
 H 0.7848 0.0182 0.6474   0.296784
 H 0.6015 0.0315 0.6789   0.310237
 H 0.3861 0.8855 0.734   0.129977
 H 0.4018 0.7513 0.8024   0.082829
 H 0.9569 0.8888 0.6774   0.119858
 H 0.9741 0.7569 0.7479   0.100142
 H 0.0476 0.594 0.5688   0.105924
 H 0.0427 0.4179 0.5781   0.125683
 H 0.434 0.3552 0.5869   0.117946
 H 0.4384 0.5308 0.5787   0.10355
 H 0.635 0.223 0.6067   0.276068
 H 0.858 0.242 0.593   0.276842
 H 0.7152 0.4818 0.1474   0.296784
 H 0.8985 0.4685 0.1789   0.310237
 H 0.1139 0.6145 0.234   0.129977
 H 0.0982 0.7487 0.3024   0.082829
 H 0.5431 0.6112 0.1774   0.119858
 H 0.5259 0.7431 0.2479   0.100142
 H 0.4524 0.906 0.0688   0.105924
 H 0.4573 0.0821 0.0781   0.125683
 H 0.066 0.1448 0.0869   0.117946
 H 0.0616 0.9692 0.0787   0.10355
 H 0.865 0.277 0.1067   0.276068
 H 0.642 0.258 0.093   0.276842
 C 0.32818 0.09738 0.30029   0.2635
 C 0.495 0.1398 0.2631   -0.210637
 C 0.4846 0.2197 0.22174   -0.017088
 C 0.29498 0.33538 0.16681   0.344675
 C 0.25563 0.30743 0.43865   0.352755
 C 0.1538 0.1375 0.29667   -0.203426
 C 0.30763 0.25733 0.21562   -0.107311
 C 0.1438 0.2168 0.25443   -0.019195
 C 0.25653 0.41853 0.42801   -0.099807
 C 0.26192 0.63262 0.41829   0.29966
 C 0.0767 0.4538 0.42782   -0.034352
 C 0.0798 0.5598 0.42256   -0.233251
 C 0.44198 0.59708 0.41717   -0.224474
 C 0.43921 0.49161 0.42204   -0.035579
 C 0.17182 0.40262 0.80029   0.2635
 C 0.005 0.3602 0.7631   -0.210637
 C 0.0154 0.2803 0.72174   -0.017088
 C 0.20502 0.16462 0.66681   0.344675
 C 0.24437 0.19257 0.93865   0.352755
 C 0.3462 0.3625 0.79667   -0.203426
 C 0.19237 0.24267 0.71562   -0.107311
 C 0.3562 0.2832 0.75443   -0.019195
 C 0.24347 0.08147 0.92801   -0.099807
 C 0.23808 0.86738 0.91829   0.29966
 C 0.4233 0.0462 0.92782   -0.034352
 C 0.4202 0.9402 0.92256   -0.233251
 C 0.05802 0.90292 0.91717   -0.224474
 C 0.06079 0.00839 0.92204   -0.035579
 C 0.67182 0.90262 0.69971   0.263499
 C 0.505 0.8602 0.7369   -0.210638
 C 0.5154 0.7803 0.77826   -0.017088
 C 0.70502 0.66462 0.83319   0.344675
 C 0.74437 0.69257 0.56135   0.352755
 C 0.8462 0.8625 0.70333   -0.203427
 C 0.69237 0.74267 0.78438   -0.107311
 C 0.8562 0.7832 0.74557   -0.019194
 C 0.74347 0.58147 0.57199   -0.099806
 C 0.73808 0.36738 0.58171   0.299659
 C 0.9233 0.5462 0.57218   -0.034353
 C 0.9202 0.4402 0.57744   -0.233252
 C 0.55802 0.40292 0.58283   -0.224474
 C 0.56079 0.50839 0.57796   -0.03558
 C 0.82818 0.59738 0.19971   0.263499
 C 0.995 0.6398 0.2369   -0.210638
 C 0.9846 0.7197 0.27826   -0.017088
 C 0.79498 0.83538 0.33319   0.344675
 C 0.75563 0.80743 0.06135   0.352755
 C 0.6538 0.6375 0.20333   -0.203427
 C 0.80763 0.75733 0.28438   -0.107311
 C 0.6438 0.7168 0.24557   -0.019194
 C 0.75653 0.91853 0.07199   -0.099806
 C 0.76192 0.13262 0.08171   0.299659
 C 0.5767 0.9538 0.07218   -0.034353
 C 0.5798 0.0598 0.07744   -0.233252
 C 0.94198 0.09708 0.08283   -0.224474
 C 0.93921 0.99161 0.07796   -0.03558
 N 0.34345 0.01465 0.34267   -0.624609
 N 0.1574 0.1467 0.46224   0.053531
 N 0.35452 0.16572 0.45071   -0.068199
 N 0.42148 0.26658 0.43534   -0.335854
 N 0.09016 0.23506 0.4555   -0.330301
 N 0.18853 0.44103 0.10664   -0.073205
 N 0.36954 0.43324 0.08703   0.05959
 N 0.44189 0.36649 0.12383   -0.30759
 N 0.13699 0.37989 0.15751   -0.336065
 N 0.26533 0.73983 0.41794   -0.572745
 N 0.15655 0.48535 0.84267   -0.624609
 N 0.3426 0.3533 0.96224   0.053532
 N 0.14548 0.33428 0.95071   -0.068199
 N 0.07852 0.23342 0.93534   -0.335854
 N 0.40984 0.26494 0.9555   -0.330301
 N 0.31147 0.05897 0.60664   -0.073205
 N 0.13046 0.06676 0.58703   0.05959
 N 0.05811 0.13351 0.62383   -0.30759
 N 0.36301 0.12011 0.65751   -0.336065
 N 0.23467 0.76017 0.91794   -0.572745
 N 0.65655 0.98535 0.65733   -0.624608
 N 0.8426 0.8533 0.53776   0.053531
 N 0.64548 0.83428 0.54929   -0.068199
 N 0.57852 0.73342 0.56466   -0.335853
 N 0.90984 0.76494 0.5445   -0.330301
 N 0.81147 0.55897 0.89336   -0.073205
 N 0.63046 0.56676 0.91297   0.05959
 N 0.55811 0.63351 0.87617   -0.30759
 N 0.86301 0.62011 0.84249   -0.336066
 N 0.73467 0.26017 0.58206   -0.572743
 N 0.84345 0.51465 0.15733   -0.624608
 N 0.6574 0.6467 0.03776   0.053531
 N 0.85452 0.66572 0.04929   -0.068199
 N 0.92148 0.76658 0.06466   -0.335853
 N 0.59016 0.73506 0.0445   -0.3303
 N 0.68853 0.94103 0.39336   -0.073205
 N 0.86954 0.93324 0.41297   0.05959
 N 0.94189 0.86649 0.37617   -0.30759
 N 0.63699 0.87989 0.34249   -0.336066
 N 0.76533 0.23983 0.08206   -0.572743
 O 0.28711 0.95001 0.48789   -0.642197
 O 0.21289 0.54999 0.98789   -0.642197
 O 0.71289 0.04999 0.51211   -0.642197
 O 0.78711 0.45001 0.01211   -0.642197
