{'_ref': 'TBD', '_srcid': 'CAKYAQ_clean', 'submitters': [{'name': 'Dalar Nazarian Jeff Camp and David Sholl', 'email': 'dalar@gatech.edu jcamp6@gatech.edu'}], '_method': 'VASP DFT with PBE;DDEC'}
data_CdH10(C2O)4
_symmetry_space_group_name_H-M   'P 1'
_cell_length_a   11.71100018
_cell_length_b   11.71099956
_cell_length_c   17.19620000
_cell_angle_alpha   95.32500075
_cell_angle_beta   95.32500047
_cell_angle_gamma   105.77899976
_symmetry_Int_Tables_number   1
_chemical_formula_structural   CdH10(C2O)4
_chemical_formula_sum   'Cd8 H80 C64 O32'
_cell_volume   2242.5372285
_cell_formula_units_Z   8
loop_
 _symmetry_equiv_pos_site_id
 _symmetry_equiv_pos_as_xyz
  1  'x, y, z'
loop_
 _atom_site_label
 _atom_site_fract_x
 _atom_site_fract_y
 _atom_site_fract_z
 _atom_site_charge
 Cd 0.08557 0.58758 0.82456   1.073178
 Cd 0.41242 0.91443 0.67544   1.073166
 Cd 0.91443 0.41242 0.17544   1.073167
 Cd 0.58758 0.08557 0.32456   1.073168
 Cd 0.3632 0.63681 0.75   1.185439
 Cd 0.63681 0.36319 0.25   1.185457
 Cd 0.0 0.5 0.0   1.198232
 Cd 0.5 0.0 0.5   1.198231
 H 0.4713 0.6251 0.944   0.085199
 H 0.4232 0.6382 0.0736   0.087332
 H 0.3765 0.4955 0.0678   0.085192
 H 0.4284 0.44 0.8642   0.054509
 H 0.3792 0.37 0.9355   0.090263
 H 0.8365 0.2345 0.8901   0.092788
 H 0.9521 0.1303 0.8172   0.076778
 H 0.8125 0.0615 0.8078   0.068858
 H 0.7184 0.3378 0.8184   0.078145
 H 0.6619 0.1957 0.8012   0.080735
 H 0.1035 0.9133 0.0342   0.093935
 H 0.148 0.9896 0.9155   0.076224
 H 0.0085 0.9695 0.8884   0.081003
 H 0.8552 0.868 0.978   0.066211
 H 0.9046 0.828 0.0581   0.081148
 H 0.1135 0.6385 0.5594   0.104432
 H 0.0255 0.3861 0.5696   0.084647
 H 0.1639 0.4577 0.5726   0.055649
 H 0.8683 0.5033 0.5591   0.076546
 H 0.9126 0.6446 0.5562   0.080467
 H 0.3749 0.5287 0.556   0.085203
 H 0.3618 0.5768 0.4264   0.087332
 H 0.5045 0.6235 0.4322   0.085192
 H 0.56 0.5716 0.6358   0.054506
 H 0.63 0.6208 0.5645   0.090263
 H 0.7655 0.1635 0.6099   0.092789
 H 0.8697 0.0479 0.6828   0.076778
 H 0.9385 0.1875 0.6922   0.068859
 H 0.6622 0.2816 0.6816   0.078145
 H 0.8043 0.3381 0.6988   0.080736
 H 0.0867 0.8965 0.4658   0.093935
 H 0.0104 0.852 0.5845   0.076225
 H 0.0305 0.9915 0.6116   0.081003
 H 0.132 0.1448 0.522   0.066212
 H 0.172 0.0954 0.4419   0.081148
 H 0.3615 0.8865 0.9406   0.104434
 H 0.6139 0.9745 0.9304   0.084648
 H 0.5423 0.8361 0.9274   0.055647
 H 0.4967 0.1317 0.9409   0.076547
 H 0.3554 0.0874 0.9438   0.080468
 H 0.5287 0.3749 0.056   0.085202
 H 0.5768 0.3618 0.9264   0.087332
 H 0.6235 0.5045 0.9322   0.085191
 H 0.5716 0.56 0.1358   0.054511
 H 0.6208 0.63 0.0645   0.090262
 H 0.1635 0.7655 0.1099   0.092789
 H 0.0479 0.8697 0.1828   0.076777
 H 0.1875 0.9385 0.1922   0.068858
 H 0.2816 0.6622 0.1816   0.078145
 H 0.3381 0.8043 0.1988   0.080735
 H 0.8965 0.0867 0.9658   0.093935
 H 0.852 0.0104 0.0845   0.076224
 H 0.9915 0.0305 0.1116   0.081003
 H 0.1448 0.132 0.022   0.066211
 H 0.0954 0.172 0.9419   0.081148
 H 0.8865 0.3615 0.4406   0.104433
 H 0.9745 0.6139 0.4304   0.084647
 H 0.8361 0.5423 0.4274   0.055648
 H 0.1317 0.4967 0.4409   0.076546
 H 0.0874 0.3554 0.4438   0.080467
 H 0.6251 0.4713 0.444   0.085202
 H 0.6382 0.4232 0.5736   0.087332
 H 0.4955 0.3765 0.5678   0.085192
 H 0.44 0.4284 0.3642   0.054512
 H 0.37 0.3792 0.4355   0.090263
 H 0.2345 0.8365 0.3901   0.092789
 H 0.1303 0.9521 0.3172   0.076778
 H 0.0615 0.8125 0.3078   0.068858
 H 0.3378 0.7184 0.3184   0.078145
 H 0.1957 0.6619 0.3012   0.080736
 H 0.9133 0.1035 0.5342   0.093935
 H 0.9896 0.148 0.4155   0.076224
 H 0.9695 0.0085 0.3884   0.081003
 H 0.868 0.8552 0.478   0.066211
 H 0.828 0.9046 0.5581   0.081148
 H 0.6385 0.1135 0.0594   0.104434
 H 0.3861 0.0255 0.0696   0.084648
 H 0.4577 0.1639 0.0726   0.055649
 H 0.5033 0.8683 0.0591   0.076548
 H 0.6446 0.9126 0.0562   0.080468
 C 0.28772 0.55888 0.93067   0.733245
 C 0.41301 0.55459 0.96043   -0.199098
 C 0.43518 0.56262 0.0498   -0.118242
 C 0.43806 0.44154 0.9222   -0.098002
 C 0.94752 0.35788 0.83279   0.683167
 C 0.84695 0.24525 0.83393   -0.166865
 C 0.87198 0.13302 0.795   -0.118358
 C 0.7308 0.263 0.7937   -0.120607
 C 0.0363 0.7675 0.9509   0.705042
 C 0.0392 0.8912 0.9884   -0.171318
 C 0.0704 0.9878 0.9346   -0.126896
 C 0.9217 0.8895 0.0216   -0.116947
 C 0.06607 0.58893 0.6667   0.709686
 C 0.0536 0.5708 0.5774   -0.179081
 C 0.0818 0.4538 0.5501   -0.109462
 C 0.9289 0.5677 0.54   -0.121333
 C 0.44112 0.71228 0.56933   0.733255
 C 0.44541 0.58699 0.53957   -0.199105
 C 0.43738 0.56482 0.4502   -0.11824
 C 0.55846 0.56194 0.5778   -0.097999
 C 0.64212 0.05248 0.66721   0.683168
 C 0.75475 0.15305 0.66607   -0.166866
 C 0.86698 0.12802 0.705   -0.118357
 C 0.737 0.2692 0.7063   -0.120608
 C 0.2325 0.9637 0.5491   0.705042
 C 0.1088 0.9608 0.5116   -0.171318
 C 0.0122 0.9296 0.5654   -0.126896
 C 0.1105 0.0783 0.4784   -0.116947
 C 0.41107 0.93393 0.8333   0.709678
 C 0.4292 0.9464 0.9226   -0.179082
 C 0.5462 0.9182 0.9499   -0.109461
 C 0.4323 0.0711 0.96   -0.121332
 C 0.71228 0.44112 0.06933   0.733257
 C 0.58699 0.44541 0.03957   -0.199101
 C 0.56482 0.43738 0.9502   -0.118241
 C 0.56194 0.55846 0.0778   -0.098002
 C 0.05248 0.64212 0.16721   0.683168
 C 0.15305 0.75475 0.16607   -0.166865
 C 0.12802 0.86698 0.205   -0.118358
 C 0.2692 0.737 0.2063   -0.120607
 C 0.9637 0.2325 0.0491   0.705042
 C 0.9608 0.1088 0.0116   -0.171318
 C 0.9296 0.0122 0.0654   -0.126897
 C 0.0783 0.1105 0.9784   -0.116947
 C 0.93393 0.41107 0.3333   0.70968
 C 0.9464 0.4292 0.4226   -0.179083
 C 0.9182 0.5462 0.4499   -0.109461
 C 0.0711 0.4323 0.46   -0.121331
 C 0.55888 0.28772 0.43067   0.733259
 C 0.55459 0.41301 0.46043   -0.199101
 C 0.56262 0.43518 0.5498   -0.118242
 C 0.44154 0.43806 0.4222   -0.098003
 C 0.35788 0.94752 0.33279   0.683168
 C 0.24525 0.84695 0.33393   -0.166866
 C 0.13302 0.87198 0.295   -0.118357
 C 0.263 0.7308 0.2937   -0.120607
 C 0.7675 0.0363 0.4509   0.705043
 C 0.8912 0.0392 0.4884   -0.171318
 C 0.9878 0.0704 0.4346   -0.126896
 C 0.8895 0.9217 0.5216   -0.116947
 C 0.58893 0.06607 0.1667   0.70968
 C 0.5708 0.0536 0.0774   -0.179083
 C 0.4538 0.0818 0.0501   -0.109461
 C 0.5677 0.9289 0.04   -0.121331
 O 0.27201 0.58099 0.8587   -0.695283
 O 0.20641 0.54299 0.97286   -0.565566
 O 0.93678 0.45468 0.87097   -0.695504
 O 0.03333 0.36107 0.7952   -0.575411
 O 0.07258 0.75602 0.8845   -0.617488
 O 0.99732 0.68428 0.99089   -0.644444
 O 0.1698 0.6176 0.70524   -0.697119
 O 0.9752 0.5712 0.7015   -0.559204
 O 0.41901 0.72799 0.6413   -0.695293
 O 0.45701 0.79359 0.52714   -0.565565
 O 0.54532 0.06322 0.62903   -0.695499
 O 0.63893 0.96667 0.7048   -0.575415
 O 0.24398 0.92742 0.6155   -0.617486
 O 0.31572 0.00268 0.50911   -0.644443
 O 0.3824 0.8302 0.79476   -0.697094
 O 0.4288 0.0248 0.7985   -0.559194
 O 0.72799 0.41901 0.1413   -0.695308
 O 0.79359 0.45701 0.02714   -0.565568
 O 0.06322 0.54532 0.12903   -0.695502
 O 0.96667 0.63893 0.2048   -0.575413
 O 0.92742 0.24398 0.1155   -0.617488
 O 0.00268 0.31572 0.00911   -0.644443
 O 0.8302 0.3824 0.29476   -0.697099
 O 0.0248 0.4288 0.2985   -0.559196
 O 0.58099 0.27201 0.3587   -0.695309
 O 0.54299 0.20641 0.47286   -0.565571
 O 0.45468 0.93678 0.37097   -0.6955
 O 0.36107 0.03333 0.2952   -0.575413
 O 0.75602 0.07258 0.3845   -0.617488
 O 0.68428 0.99732 0.49089   -0.644444
 O 0.6176 0.1698 0.20524   -0.697099
 O 0.5712 0.9752 0.2015   -0.559196
