{'_ref': 'TBD', '_srcid': 'CAKYAQ_clean', 'submitters': [{'name': 'Dalar Nazarian Jeff Camp and David Sholl', 'email': 'dalar@gatech.edu jcamp6@gatech.edu'}], '_method': 'VASP DFT with PBE;DDEC'}
data_NiH20WC24(N2O)2
_symmetry_space_group_name_H-M   'P 1'
_cell_length_a   13.59769978
_cell_length_b   13.59769968
_cell_length_c   13.59770000
_cell_angle_alpha   101.96499846
_cell_angle_beta   101.96499838
_cell_angle_gamma   101.96500017
_symmetry_Int_Tables_number   1
_chemical_formula_structural   NiH20WC24(N2O)2
_chemical_formula_sum   'Ni3 H60 W3 C72 N12 O6'
_cell_volume   2322.37588122
_cell_formula_units_Z   3
loop_
 _symmetry_equiv_pos_site_id
 _symmetry_equiv_pos_as_xyz
  1  'x, y, z'
loop_
 _atom_site_label
 _atom_site_fract_x
 _atom_site_fract_y
 _atom_site_fract_z
 _atom_site_charge
 Ni 0.61805 0.38195 0.0   0.619075
 Ni 0.0 0.61805 0.38195   0.619075
 Ni 0.38195 0.0 0.61805   0.619075
 H 0.8253 0.3795 0.129   0.078021
 H 0.9085 0.3657 0.8175   0.124709
 H 0.2457 0.3945 0.8817   0.122892
 H 0.4161 0.4063 0.8795   0.048602
 H 0.4759 0.3317 0.1445   0.0498
 H 0.9862 0.359 0.1176   0.109142
 H 0.0851 0.3603 0.8896   0.097253
 H 0.1364 0.3481 0.0929   0.100288
 H 0.3074 0.3177 0.1542   0.125219
 H 0.748 0.3825 0.8367   0.04777
 H 0.129 0.8253 0.3795   0.078021
 H 0.8175 0.9085 0.3657   0.124709
 H 0.8817 0.2457 0.3945   0.122892
 H 0.8795 0.4161 0.4063   0.048602
 H 0.1445 0.4759 0.3317   0.049802
 H 0.1176 0.9862 0.359   0.109142
 H 0.8896 0.0851 0.3603   0.097253
 H 0.0929 0.1364 0.3481   0.100288
 H 0.1542 0.3074 0.3177   0.125218
 H 0.8367 0.748 0.3825   0.04777
 H 0.3795 0.129 0.8253   0.078021
 H 0.3657 0.8175 0.9085   0.124709
 H 0.3945 0.8817 0.2457   0.122892
 H 0.4063 0.8795 0.4161   0.048602
 H 0.3317 0.1445 0.4759   0.049802
 H 0.359 0.1176 0.9862   0.109142
 H 0.3603 0.8896 0.0851   0.097253
 H 0.3481 0.0929 0.1364   0.10029
 H 0.3177 0.1542 0.3074   0.125218
 H 0.3825 0.8367 0.748   0.04777
 H 0.6205 0.1747 0.871   0.07802
 H 0.6343 0.0915 0.1825   0.124711
 H 0.6055 0.7543 0.1183   0.122898
 H 0.5937 0.5839 0.1205   0.048602
 H 0.6683 0.5241 0.8555   0.0498
 H 0.641 0.0138 0.8824   0.109142
 H 0.6397 0.9149 0.1104   0.097255
 H 0.6519 0.8636 0.9071   0.100288
 H 0.6823 0.6926 0.8458   0.125219
 H 0.6175 0.252 0.1633   0.04777
 H 0.1747 0.871 0.6205   0.07802
 H 0.0915 0.1825 0.6343   0.124711
 H 0.7543 0.1183 0.6055   0.122898
 H 0.5839 0.1205 0.5937   0.048602
 H 0.5241 0.8555 0.6683   0.049802
 H 0.0138 0.8824 0.641   0.109142
 H 0.9149 0.1104 0.6397   0.097255
 H 0.8636 0.9071 0.6519   0.100288
 H 0.6926 0.8458 0.6823   0.125218
 H 0.252 0.1633 0.6175   0.04777
 H 0.871 0.6205 0.1747   0.07802
 H 0.1825 0.6343 0.0915   0.124711
 H 0.1183 0.6055 0.7543   0.122898
 H 0.1205 0.5937 0.5839   0.048602
 H 0.8555 0.6683 0.5241   0.049802
 H 0.8824 0.641 0.0138   0.109142
 H 0.1104 0.6397 0.9149   0.097255
 H 0.9071 0.6519 0.8636   0.10029
 H 0.8458 0.6823 0.6926   0.125218
 H 0.1633 0.6175 0.252   0.04777
 W 0.5 0.29285 0.70715   0.478088
 W 0.70715 0.5 0.29285   0.478095
 W 0.29285 0.70715 0.5   0.478103
 C 0.84238 0.37652 0.0651   0.14568
 C 0.89363 0.36887 0.8823   -0.222953
 C 0.2916 0.3821 0.937   -0.228291
 C 0.96843 0.36365 0.96674   0.124558
 C 0.3937 0.3883 0.9358   0.151566
 C 0.4288 0.3447 0.0907   0.135598
 C 0.2565 0.3573 0.0191   0.132747
 C 0.93951 0.36535 0.05918   -0.19918
 C 0.0726 0.3594 0.9549   -0.142242
 C 0.1502 0.3542 0.0292   -0.157177
 C 0.3281 0.3369 0.0975   -0.233233
 C 0.79733 0.37882 0.89452   0.141212
 C 0.0651 0.84238 0.37652   0.14568
 C 0.8823 0.89363 0.36887   -0.222953
 C 0.937 0.2916 0.3821   -0.228291
 C 0.96674 0.96843 0.36365   0.124558
 C 0.9358 0.3937 0.3883   0.151566
 C 0.0907 0.4288 0.3447   0.135598
 C 0.0191 0.2565 0.3573   0.132747
 C 0.05918 0.93951 0.36535   -0.19918
 C 0.9549 0.0726 0.3594   -0.142242
 C 0.0292 0.1502 0.3542   -0.157178
 C 0.0975 0.3281 0.3369   -0.233233
 C 0.89452 0.79733 0.37882   0.141212
 C 0.37652 0.0651 0.84238   0.14568
 C 0.36887 0.8823 0.89363   -0.222953
 C 0.3821 0.937 0.2916   -0.228291
 C 0.36365 0.96674 0.96843   0.124558
 C 0.3883 0.9358 0.3937   0.151566
 C 0.3447 0.0907 0.4288   0.135598
 C 0.3573 0.0191 0.2565   0.132748
 C 0.36535 0.05918 0.93951   -0.19918
 C 0.3594 0.9549 0.0726   -0.142241
 C 0.3542 0.0292 0.1502   -0.157179
 C 0.3369 0.0975 0.3281   -0.233233
 C 0.37882 0.89452 0.79733   0.141212
 C 0.62348 0.15762 0.9349   0.145687
 C 0.63113 0.10637 0.1177   -0.222941
 C 0.6179 0.7084 0.063   -0.228289
 C 0.63635 0.03157 0.03326   0.124569
 C 0.6117 0.6063 0.0642   0.151568
 C 0.6553 0.5712 0.9093   0.135598
 C 0.6427 0.7435 0.9809   0.132747
 C 0.63465 0.06049 0.94082   -0.199175
 C 0.6406 0.9274 0.0451   -0.142228
 C 0.6458 0.8498 0.9708   -0.157173
 C 0.6631 0.6719 0.9025   -0.233233
 C 0.62118 0.20267 0.10548   0.141219
 C 0.15762 0.9349 0.62348   0.145687
 C 0.10637 0.1177 0.63113   -0.222941
 C 0.7084 0.063 0.6179   -0.228289
 C 0.03157 0.03326 0.63635   0.124569
 C 0.6063 0.0642 0.6117   0.151568
 C 0.5712 0.9093 0.6553   0.135598
 C 0.7435 0.9809 0.6427   0.132747
 C 0.06049 0.94082 0.63465   -0.199175
 C 0.9274 0.0451 0.6406   -0.142228
 C 0.8498 0.9708 0.6458   -0.157174
 C 0.6719 0.9025 0.6631   -0.233233
 C 0.20267 0.10548 0.62118   0.141219
 C 0.9349 0.62348 0.15762   0.145687
 C 0.1177 0.63113 0.10637   -0.222942
 C 0.063 0.6179 0.7084   -0.228289
 C 0.03326 0.63635 0.03157   0.124569
 C 0.0642 0.6117 0.6063   0.151568
 C 0.9093 0.6553 0.5712   0.135598
 C 0.9809 0.6427 0.7435   0.132747
 C 0.94082 0.63465 0.06049   -0.199176
 C 0.0451 0.6406 0.9274   -0.142227
 C 0.9708 0.6458 0.8498   -0.157175
 C 0.9025 0.6631 0.6719   -0.233233
 C 0.10548 0.62118 0.20267   0.141219
 N 0.77106 0.38334 0.98431   -0.309714
 N 0.46338 0.37004 0.0114   -0.302805
 N 0.98431 0.77106 0.38334   -0.309714
 N 0.0114 0.46338 0.37004   -0.302806
 N 0.38334 0.98431 0.77106   -0.309714
 N 0.37004 0.0114 0.46338   -0.302806
 N 0.61666 0.22894 0.01569   -0.309709
 N 0.62996 0.53662 0.9886   -0.302804
 N 0.22894 0.01569 0.61666   -0.309709
 N 0.53662 0.9886 0.62996   -0.302804
 N 0.01569 0.61666 0.22894   -0.309709
 N 0.9886 0.62996 0.53662   -0.302804
 O 0.56274 0.33053 0.84229   -0.488086
 O 0.84229 0.56274 0.33053   -0.488086
 O 0.33053 0.84229 0.56274   -0.488086
 O 0.66947 0.43726 0.15771   -0.488086
 O 0.43726 0.15771 0.66947   -0.488086
 O 0.15771 0.66947 0.43726   -0.488086
