{'_ref': 'TBD', '_srcid': 'CAKYAQ_clean', 'submitters': [{'name': 'Dalar Nazarian Jeff Camp and David Sholl', 'email': 'dalar@gatech.edu jcamp6@gatech.edu'}], '_method': 'VASP DFT with PBE;DDEC'}
data_Cu2H3C8SO8
_symmetry_space_group_name_H-M   'P 1'
_cell_length_a   7.34130000
_cell_length_b   10.15570032
_cell_length_c   18.17500000
_cell_angle_alpha   90.00000000
_cell_angle_beta   90.00000000
_cell_angle_gamma   94.31999738
_symmetry_Int_Tables_number   1
_chemical_formula_structural   Cu2H3C8SO8
_chemical_formula_sum   'Cu8 H12 C32 S4 O32'
_cell_volume   1351.20623269
_cell_formula_units_Z   4
loop_
 _symmetry_equiv_pos_site_id
 _symmetry_equiv_pos_as_xyz
  1  'x, y, z'
loop_
 _atom_site_label
 _atom_site_fract_x
 _atom_site_fract_y
 _atom_site_fract_z
 _atom_site_charge
 Cu 0.86637 0.21779 0.90565   1.043835
 Cu 0.04588 0.93247 0.93157   1.116277
 Cu 0.63363 0.28221 0.40565   1.043835
 Cu 0.45412 0.56753 0.43157   1.116277
 Cu 0.13363 0.78221 0.09435   1.043835
 Cu 0.95412 0.06753 0.06843   1.116277
 Cu 0.36637 0.71779 0.59435   1.043835
 Cu 0.54588 0.43247 0.56843   1.116277
 H 0.7827 0.1655 0.6932   0.11346
 H 0.9435 0.7968 0.7067   0.115077
 H 0.7796 0.938 0.5118   0.112145
 H 0.7173 0.3345 0.1932   0.11346
 H 0.5565 0.7032 0.2067   0.115077
 H 0.7204 0.562 0.0118   0.112145
 H 0.2173 0.8345 0.3068   0.11346
 H 0.0565 0.2032 0.2933   0.115078
 H 0.2204 0.062 0.4882   0.112145
 H 0.2827 0.6655 0.8068   0.11346
 H 0.4435 0.2968 0.7933   0.115078
 H 0.2796 0.438 0.9882   0.112145
 C 0.8636 0.8493 0.60449   -0.28487
 C 0.7732 0.0703 0.59554   -0.14972
 C 0.8052 0.0861 0.67068   0.038927
 C 0.87 0.9851 0.71238   -0.163773
 C 0.9045 0.009 0.79288   0.734207
 C 0.9 0.8652 0.67934   0.045511
 C 0.8017 0.9503 0.5618   0.035776
 C 0.702 0.1823 0.5538   0.719836
 C 0.6364 0.6507 0.10449   -0.28487
 C 0.7268 0.4297 0.09554   -0.14972
 C 0.6948 0.4139 0.17068   0.038927
 C 0.63 0.5149 0.21238   -0.163773
 C 0.5955 0.491 0.29288   0.734207
 C 0.6 0.6348 0.17934   0.045511
 C 0.6983 0.5497 0.0618   0.035776
 C 0.798 0.3177 0.0538   0.719836
 C 0.1364 0.1507 0.39551   -0.28487
 C 0.2268 0.9297 0.40446   -0.14972
 C 0.1948 0.9139 0.32932   0.038927
 C 0.13 0.0149 0.28762   -0.163772
 C 0.0955 0.991 0.20712   0.734207
 C 0.1 0.1348 0.32066   0.045511
 C 0.1983 0.0497 0.4382   0.035776
 C 0.298 0.8177 0.4462   0.719836
 C 0.3636 0.3493 0.89551   -0.28487
 C 0.2732 0.5703 0.90446   -0.14972
 C 0.3052 0.5861 0.82932   0.038927
 C 0.37 0.4851 0.78762   -0.163772
 C 0.4045 0.509 0.70712   0.734207
 C 0.4 0.3652 0.82066   0.045511
 C 0.3017 0.4503 0.9382   0.035776
 C 0.202 0.6823 0.9462   0.719836
 S 0.882 0.69083 0.56552   1.374772
 S 0.618 0.80917 0.06552   1.374772
 S 0.118 0.30917 0.43448   1.374772
 S 0.382 0.19083 0.93448   1.374772
 O 0.9504 0.91498 0.83203   -0.521059
 O 0.8709 0.05717 0.96496   -0.690946
 O 0.6587 0.1628 0.48757   -0.619779
 O 0.8835 0.12529 0.81385   -0.582319
 O 0.8789 0.7021 0.48729   -0.590951
 O 0.6902 0.2874 0.58968   -0.51643
 O 0.7256 0.6139 0.59574   -0.715044
 O 0.0497 0.6426 0.59495   -0.614936
 O 0.5496 0.58502 0.33203   -0.521059
 O 0.6291 0.44283 0.46496   -0.690947
 O 0.8413 0.3372 0.98757   -0.619779
 O 0.6165 0.37471 0.31385   -0.582319
 O 0.6211 0.7979 0.98729   -0.590951
 O 0.8098 0.2126 0.08968   -0.51643
 O 0.7744 0.8861 0.09574   -0.715044
 O 0.4503 0.8574 0.09495   -0.614936
 O 0.0496 0.08502 0.16797   -0.521059
 O 0.1291 0.94283 0.03504   -0.690947
 O 0.3413 0.8372 0.51243   -0.619778
 O 0.1165 0.87471 0.18615   -0.582319
 O 0.1211 0.2979 0.51271   -0.59095
 O 0.3098 0.7126 0.41032   -0.51643
 O 0.2744 0.3861 0.40426   -0.715044
 O 0.9503 0.3574 0.40505   -0.614935
 O 0.4504 0.41498 0.66797   -0.521059
 O 0.3709 0.55717 0.53504   -0.690947
 O 0.1587 0.6628 0.01243   -0.619778
 O 0.3835 0.62529 0.68615   -0.582319
 O 0.3789 0.2021 0.01271   -0.590949
 O 0.1902 0.7874 0.91032   -0.51643
 O 0.2256 0.1139 0.90426   -0.715044
 O 0.5497 0.1426 0.90505   -0.614935
