{'_ref': 'TBD', '_srcid': 'CAKYAQ_clean', 'submitters': [{'name': 'Dalar Nazarian Jeff Camp and David Sholl', 'email': 'dalar@gatech.edu jcamp6@gatech.edu'}], '_method': 'VASP DFT with PBE;DDEC'}
data_Cu2H4C8SO8
_symmetry_space_group_name_H-M   'P 1'
_cell_length_a   7.33360000
_cell_length_b   10.12519965
_cell_length_c   18.18290000
_cell_angle_alpha   90.00000000
_cell_angle_beta   90.00000000
_cell_angle_gamma   94.49300120
_symmetry_Int_Tables_number   1
_chemical_formula_structural   Cu2H4C8SO8
_chemical_formula_sum   'Cu8 H16 C32 S4 O32'
_cell_volume   1346.00689033
_cell_formula_units_Z   4
loop_
 _symmetry_equiv_pos_site_id
 _symmetry_equiv_pos_as_xyz
  1  'x, y, z'
loop_
 _atom_site_label
 _atom_site_fract_x
 _atom_site_fract_y
 _atom_site_fract_z
 _atom_site_charge
 Cu 0.86677 0.21792 0.90624   1.039113
 Cu 0.04748 0.93336 0.93158   1.123862
 Cu 0.63323 0.28208 0.40624   1.039113
 Cu 0.45252 0.56664 0.43158   1.123862
 Cu 0.13323 0.78208 0.09376   1.039113
 Cu 0.95252 0.06664 0.06842   1.123863
 Cu 0.36677 0.71792 0.59376   1.039113
 Cu 0.54748 0.43336 0.56842   1.123863
 H 0.77 0.021 0.964   0.467195
 H 0.7864 0.1676 0.6936   0.113556
 H 0.7813 0.939 0.513   0.111172
 H 0.9451 0.7986 0.7068   0.113279
 H 0.73 0.479 0.464   0.467195
 H 0.7136 0.3324 0.1936   0.113556
 H 0.7187 0.561 0.013   0.111172
 H 0.5549 0.7014 0.2068   0.113279
 H 0.23 0.979 0.036   0.467195
 H 0.2136 0.8324 0.3064   0.113554
 H 0.2187 0.061 0.487   0.111172
 H 0.0549 0.2014 0.2932   0.113277
 H 0.27 0.521 0.536   0.467195
 H 0.2864 0.6676 0.8064   0.113554
 H 0.2813 0.439 0.987   0.111172
 H 0.4451 0.2986 0.7932   0.113277
 C 0.8725 0.9859 0.713   -0.168311
 C 0.8081 0.0879 0.6711   0.041729
 C 0.7759 0.0721 0.5963   -0.150667
 C 0.8044 0.9515 0.5629   0.034227
 C 0.8674 0.8507 0.6049   -0.280463
 C 0.902 0.8673 0.6795   0.050806
 C 0.9062 0.0106 0.7929   0.739853
 C 0.7043 0.1826 0.5547   0.721385
 C 0.6275 0.5141 0.213   -0.168311
 C 0.6919 0.4121 0.1711   0.041729
 C 0.7241 0.4279 0.0963   -0.150667
 C 0.6956 0.5485 0.0629   0.034227
 C 0.6326 0.6493 0.1049   -0.280463
 C 0.598 0.6327 0.1795   0.050806
 C 0.5938 0.4894 0.2929   0.739853
 C 0.7957 0.3174 0.0547   0.721385
 C 0.1275 0.0141 0.287   -0.168312
 C 0.1919 0.9121 0.3289   0.041729
 C 0.2241 0.9279 0.4037   -0.150667
 C 0.1956 0.0485 0.4371   0.034226
 C 0.1326 0.1493 0.3951   -0.280463
 C 0.098 0.1327 0.3205   0.050806
 C 0.0938 0.9894 0.2071   0.739853
 C 0.2957 0.8174 0.4453   0.721385
 C 0.3725 0.4859 0.787   -0.168312
 C 0.3081 0.5879 0.8289   0.041729
 C 0.2759 0.5721 0.9037   -0.150667
 C 0.3044 0.4515 0.9371   0.034226
 C 0.3674 0.3507 0.8951   -0.280463
 C 0.402 0.3673 0.8205   0.050806
 C 0.4062 0.5106 0.7071   0.739853
 C 0.2043 0.6826 0.9453   0.721385
 S 0.88384 0.69198 0.56601   1.385626
 S 0.61616 0.80802 0.06601   1.385626
 S 0.11616 0.30802 0.43399   1.385626
 S 0.38384 0.19198 0.93399   1.385626
 O 0.8845 0.1251 0.81456   -0.593402
 O 0.9525 0.9155 0.83188   -0.55438
 O 0.6592 0.1632 0.48856   -0.629604
 O 0.6939 0.2899 0.5902   -0.550831
 O 0.0507 0.6436 0.59533   -0.67357
 O 0.7254 0.6156 0.5953   -0.734571
 O 0.8821 0.7037 0.48713   -0.637289
 O 0.8716 0.0566 0.96515   -0.968713
 O 0.6155 0.3749 0.31456   -0.593402
 O 0.5475 0.5845 0.33188   -0.554381
 O 0.8408 0.3368 0.98856   -0.629604
 O 0.8061 0.2101 0.0902   -0.550831
 O 0.4493 0.8564 0.09533   -0.67357
 O 0.7746 0.8844 0.0953   -0.734571
 O 0.6179 0.7963 0.98713   -0.637289
 O 0.6284 0.4434 0.46515   -0.968713
 O 0.1155 0.8749 0.18544   -0.593402
 O 0.0475 0.0845 0.16812   -0.554381
 O 0.3408 0.8368 0.51144   -0.629604
 O 0.3061 0.7101 0.4098   -0.550831
 O 0.9493 0.3564 0.40467   -0.67357
 O 0.2746 0.3844 0.4047   -0.734571
 O 0.1179 0.2963 0.51287   -0.637288
 O 0.1284 0.9434 0.03485   -0.968713
 O 0.3845 0.6251 0.68544   -0.593402
 O 0.4525 0.4155 0.66812   -0.554381
 O 0.1592 0.6632 0.01144   -0.629604
 O 0.1939 0.7899 0.9098   -0.550831
 O 0.5507 0.1436 0.90467   -0.67357
 O 0.2254 0.1156 0.9047   -0.734571
 O 0.3821 0.2037 0.01287   -0.637289
 O 0.3716 0.5566 0.53485   -0.968713
