{'_ref': 'TBD', '_srcid': 'CAKYAQ_clean', 'submitters': [{'name': 'Dalar Nazarian Jeff Camp and David Sholl', 'email': 'dalar@gatech.edu jcamp6@gatech.edu'}], '_method': 'VASP DFT with PBE;DDEC'}
data_Cu2H3C8SO8
_symmetry_space_group_name_H-M   'P 1'
_cell_length_a   7.31000000
_cell_length_b   10.14500041
_cell_length_c   18.28000000
_cell_angle_alpha   90.00000000
_cell_angle_beta   90.00000000
_cell_angle_gamma   94.64499962
_symmetry_Int_Tables_number   1
_chemical_formula_structural   Cu2H3C8SO8
_chemical_formula_sum   'Cu8 H12 C32 S4 O32'
_cell_volume   1351.19144102
_cell_formula_units_Z   4
loop_
 _symmetry_equiv_pos_site_id
 _symmetry_equiv_pos_as_xyz
  1  'x, y, z'
loop_
 _atom_site_label
 _atom_site_fract_x
 _atom_site_fract_y
 _atom_site_fract_z
 _atom_site_charge
 Cu 0.86646 0.2175 0.90687   1.042987
 Cu 0.04992 0.9348 0.93152   1.114045
 Cu 0.63354 0.2825 0.40687   1.042987
 Cu 0.45008 0.5652 0.43152   1.114045
 Cu 0.13354 0.7825 0.09313   1.042987
 Cu 0.95008 0.0652 0.06848   1.114045
 Cu 0.36646 0.7175 0.59313   1.042987
 Cu 0.54992 0.4348 0.56848   1.114045
 H 0.7894 0.1687 0.6944   0.11306
 H 0.9489 0.799 0.7069   0.114709
 H 0.7873 0.9424 0.5133   0.111343
 H 0.7106 0.3313 0.1944   0.11306
 H 0.5511 0.701 0.2069   0.114709
 H 0.7127 0.5576 0.0133   0.111343
 H 0.2106 0.8313 0.3056   0.11306
 H 0.0511 0.201 0.2931   0.114709
 H 0.2127 0.0576 0.4867   0.111343
 H 0.2894 0.6687 0.8056   0.11306
 H 0.4489 0.299 0.7931   0.114709
 H 0.2873 0.4424 0.9867   0.111343
 C 0.8702 0.853 0.60491   -0.281206
 C 0.7798 0.0748 0.59693   -0.147165
 C 0.8114 0.0893 0.67174   0.041737
 C 0.875 0.9878 0.71335   -0.165744
 C 0.9072 0.0108 0.79332   0.729627
 C 0.9057 0.8678 0.67988   0.046598
 C 0.8089 0.9541 0.56306   0.036694
 C 0.7089 0.1865 0.55506   0.713787
 C 0.6298 0.647 0.10491   -0.281206
 C 0.7202 0.4252 0.09693   -0.147165
 C 0.6886 0.4107 0.17174   0.041737
 C 0.625 0.5122 0.21335   -0.165744
 C 0.5928 0.4892 0.29332   0.729627
 C 0.5943 0.6322 0.17988   0.046598
 C 0.6911 0.5459 0.06306   0.036694
 C 0.7911 0.3135 0.05506   0.713787
 C 0.1298 0.147 0.39509   -0.281206
 C 0.2202 0.9252 0.40307   -0.147165
 C 0.1886 0.9107 0.32826   0.041737
 C 0.125 0.0122 0.28665   -0.165744
 C 0.0928 0.9892 0.20668   0.729627
 C 0.0943 0.1322 0.32012   0.046597
 C 0.1911 0.0459 0.43694   0.036694
 C 0.2911 0.8135 0.44494   0.713787
 C 0.3702 0.353 0.89509   -0.281206
 C 0.2798 0.5748 0.90307   -0.147165
 C 0.3114 0.5893 0.82826   0.041737
 C 0.375 0.4878 0.78665   -0.165744
 C 0.4072 0.5108 0.70668   0.729627
 C 0.4057 0.3678 0.82012   0.046597
 C 0.3089 0.4541 0.93694   0.036694
 C 0.2089 0.6865 0.94494   0.713787
 S 0.88491 0.69433 0.5662   1.368364
 S 0.61509 0.80567 0.0662   1.368364
 S 0.11509 0.30567 0.4338   1.368364
 S 0.38491 0.19433 0.9338   1.368364
 O 0.9545 0.91567 0.83247   -0.523903
 O 0.8686 0.05416 0.96497   -0.680859
 O 0.6616 0.1657 0.48956   -0.618269
 O 0.8841 0.1261 0.81496   -0.576182
 O 0.8884 0.7066 0.48738   -0.590615
 O 0.7003 0.2936 0.5905   -0.513019
 O 0.7209 0.6201 0.59378   -0.72317
 O 0.0486 0.6428 0.59693   -0.612822
 O 0.5455 0.58433 0.33247   -0.523903
 O 0.6314 0.44584 0.46497   -0.680858
 O 0.8384 0.3343 0.98956   -0.618269
 O 0.6159 0.3739 0.31496   -0.576182
 O 0.6116 0.7934 0.98738   -0.590615
 O 0.7997 0.2064 0.0905   -0.513019
 O 0.7791 0.8799 0.09378   -0.72317
 O 0.4514 0.8572 0.09693   -0.612822
 O 0.0455 0.08433 0.16753   -0.523903
 O 0.1314 0.94584 0.03503   -0.680858
 O 0.3384 0.8343 0.51044   -0.618269
 O 0.1159 0.8739 0.18504   -0.576182
 O 0.1116 0.2934 0.51262   -0.590614
 O 0.2997 0.7064 0.4095   -0.513018
 O 0.2791 0.3799 0.40622   -0.72317
 O 0.9514 0.3572 0.40307   -0.612821
 O 0.4545 0.41567 0.66753   -0.523903
 O 0.3686 0.55416 0.53503   -0.680858
 O 0.1616 0.6657 0.01044   -0.618269
 O 0.3841 0.6261 0.68504   -0.576182
 O 0.3884 0.2066 0.01262   -0.590614
 O 0.2003 0.7936 0.9095   -0.513018
 O 0.2209 0.1201 0.90622   -0.72317
 O 0.5486 0.1428 0.90307   -0.612821
