{'_ref': 'TBD', '_srcid': 'CAKYAQ_clean', 'submitters': [{'name': 'Dalar Nazarian Jeff Camp and David Sholl', 'email': 'dalar@gatech.edu jcamp6@gatech.edu'}], '_method': 'VASP DFT with PBE;DDEC'}
data_Cu2H3C8SO8
_symmetry_space_group_name_H-M   'P 1'
_cell_length_a   7.30330000
_cell_length_b   10.12719946
_cell_length_c   18.26100000
_cell_angle_alpha   90.00000000
_cell_angle_beta   90.00000000
_cell_angle_gamma   94.84099745
_symmetry_Int_Tables_number   1
_chemical_formula_structural   Cu2H3C8SO8
_chemical_formula_sum   'Cu8 H12 C32 S4 O32'
_cell_volume   1345.80161476
_cell_formula_units_Z   4
loop_
 _symmetry_equiv_pos_site_id
 _symmetry_equiv_pos_as_xyz
  1  'x, y, z'
loop_
 _atom_site_label
 _atom_site_fract_x
 _atom_site_fract_y
 _atom_site_fract_z
 _atom_site_charge
 Cu 0.86637 0.21719 0.90739   1.045591
 Cu 0.05118 0.93558 0.93151   1.110096
 Cu 0.63363 0.28281 0.40739   1.045591
 Cu 0.44882 0.56442 0.43151   1.110096
 Cu 0.13363 0.78281 0.09261   1.045591
 Cu 0.94882 0.06442 0.06849   1.110096
 Cu 0.36637 0.71719 0.59261   1.045591
 Cu 0.55118 0.43558 0.56849   1.110096
 H 0.7914 0.1705 0.695   0.114447
 H 0.9529 0.8008 0.7068   0.11454
 H 0.7894 0.9442 0.5132   0.112407
 H 0.7086 0.3295 0.195   0.114447
 H 0.5471 0.6992 0.2068   0.11454
 H 0.7106 0.5558 0.0132   0.112407
 H 0.2086 0.8295 0.305   0.114447
 H 0.0471 0.1992 0.2932   0.11454
 H 0.2106 0.0558 0.4868   0.112407
 H 0.2914 0.6705 0.805   0.114447
 H 0.4529 0.3008 0.7932   0.11454
 H 0.2894 0.4442 0.9868   0.112407
 C 0.8732 0.855 0.60486   -0.279088
 C 0.7824 0.0764 0.59713   -0.14456
 C 0.8134 0.0913 0.6722   0.038554
 C 0.8771 0.9886 0.71347   -0.164497
 C 0.9081 0.0114 0.79373   0.728498
 C 0.9089 0.8694 0.67994   0.046403
 C 0.8114 0.956 0.56306   0.035995
 C 0.7116 0.1885 0.55566   0.713228
 C 0.6268 0.645 0.10486   -0.279088
 C 0.7176 0.4236 0.09713   -0.14456
 C 0.6866 0.4087 0.1722   0.038554
 C 0.6229 0.5114 0.21347   -0.164497
 C 0.5919 0.4886 0.29373   0.728498
 C 0.5911 0.6306 0.17994   0.046403
 C 0.6886 0.544 0.06306   0.035995
 C 0.7884 0.3115 0.05566   0.713228
 C 0.1268 0.145 0.39514   -0.279088
 C 0.2176 0.9236 0.40287   -0.14456
 C 0.1866 0.9087 0.3278   0.038554
 C 0.1229 0.0114 0.28653   -0.164497
 C 0.0919 0.9886 0.20627   0.728498
 C 0.0911 0.1306 0.32006   0.046403
 C 0.1886 0.044 0.43694   0.035995
 C 0.2884 0.8115 0.44434   0.713227
 C 0.3732 0.355 0.89514   -0.279088
 C 0.2824 0.5764 0.90287   -0.14456
 C 0.3134 0.5913 0.8278   0.038554
 C 0.3771 0.4886 0.78653   -0.164497
 C 0.4081 0.5114 0.70627   0.728498
 C 0.4089 0.3694 0.82006   0.046403
 C 0.3114 0.456 0.93694   0.035995
 C 0.2116 0.6885 0.94434   0.713227
 S 0.88588 0.69587 0.56636   1.365017
 S 0.61412 0.80413 0.06636   1.365017
 S 0.11412 0.30413 0.43364   1.365018
 S 0.38588 0.19587 0.93364   1.365018
 O 0.9552 0.91615 0.83237   -0.521618
 O 0.8672 0.05324 0.96503   -0.678006
 O 0.6627 0.16704 0.49024   -0.620759
 O 0.884 0.12692 0.81547   -0.576077
 O 0.8919 0.70824 0.48746   -0.5899
 O 0.7043 0.29588 0.59064   -0.510137
 O 0.7187 0.62255 0.59318   -0.727223
 O 0.0483 0.64249 0.59777   -0.612911
 O 0.5448 0.58385 0.33237   -0.521618
 O 0.6328 0.44676 0.46503   -0.678006
 O 0.8373 0.33296 0.99024   -0.620759
 O 0.616 0.37308 0.31547   -0.576077
 O 0.6081 0.79176 0.98746   -0.5899
 O 0.7957 0.20412 0.09064   -0.510137
 O 0.7813 0.87745 0.09318   -0.727223
 O 0.4517 0.85751 0.09777   -0.612911
 O 0.0448 0.08385 0.16763   -0.521618
 O 0.1328 0.94676 0.03497   -0.678006
 O 0.3373 0.83296 0.50976   -0.620759
 O 0.116 0.87308 0.18453   -0.576077
 O 0.1081 0.29176 0.51254   -0.589899
 O 0.2957 0.70412 0.40936   -0.510136
 O 0.2813 0.37745 0.40682   -0.727223
 O 0.9517 0.35751 0.40223   -0.61291
 O 0.4552 0.41615 0.66763   -0.521618
 O 0.3672 0.55324 0.53497   -0.678005
 O 0.1627 0.66704 0.00976   -0.620759
 O 0.384 0.62692 0.68453   -0.576077
 O 0.3919 0.20824 0.01254   -0.589899
 O 0.2043 0.79588 0.90936   -0.510136
 O 0.2187 0.12255 0.90682   -0.727223
 O 0.5483 0.14249 0.90223   -0.61291
