{'_ref': 'TBD', '_srcid': 'CAKYAQ_clean', 'submitters': [{'name': 'Dalar Nazarian Jeff Camp and David Sholl', 'email': 'dalar@gatech.edu jcamp6@gatech.edu'}], '_method': 'VASP DFT with PBE;DDEC'}
data_Cu2H3C8SO8
_symmetry_space_group_name_H-M   'P 1'
_cell_length_a   7.28060000
_cell_length_b   10.10750028
_cell_length_c   18.24210000
_cell_angle_alpha   90.00000000
_cell_angle_beta   90.00000000
_cell_angle_gamma   94.88600087
_symmetry_Int_Tables_number   1
_chemical_formula_structural   Cu2H3C8SO8
_chemical_formula_sum   'Cu8 H12 C32 S4 O32'
_cell_volume   1337.53367209
_cell_formula_units_Z   4
loop_
 _symmetry_equiv_pos_site_id
 _symmetry_equiv_pos_as_xyz
  1  'x, y, z'
loop_
 _atom_site_label
 _atom_site_fract_x
 _atom_site_fract_y
 _atom_site_fract_z
 _atom_site_charge
 Cu 0.55158 0.93579 0.93149   1.110265
 Cu 0.86617 0.71698 0.59242   1.046595
 Cu 0.94842 0.56421 0.43149   1.110265
 Cu 0.63383 0.78302 0.09242   1.046595
 Cu 0.44842 0.06421 0.06851   1.110265
 Cu 0.13383 0.28302 0.40758   1.046595
 Cu 0.05158 0.43579 0.56851   1.110265
 Cu 0.36617 0.21698 0.90758   1.046595
 H 0.4504 0.8004 0.7066   0.112938
 H 0.2931 0.171 0.6951   0.11295
 H 0.289 0.9455 0.5136   0.110462
 H 0.0496 0.6996 0.2066   0.112938
 H 0.2069 0.329 0.1951   0.11295
 H 0.211 0.5545 0.0136   0.110462
 H 0.5496 0.1996 0.2934   0.112938
 H 0.7069 0.829 0.3049   0.11295
 H 0.711 0.0545 0.4864   0.110462
 H 0.9504 0.3004 0.7934   0.112938
 H 0.7931 0.671 0.8049   0.11295
 H 0.789 0.4455 0.9864   0.110462
 C 0.4079 0.8697 0.67964   0.049409
 C 0.2842 0.0777 0.59753   -0.144182
 C 0.3742 0.8551 0.60517   -0.283778
 C 0.3148 0.0916 0.67221   0.040443
 C 0.3775 0.9889 0.71352   -0.165157
 C 0.4083 0.0121 0.79402   0.730057
 C 0.3119 0.9572 0.56344   0.036466
 C 0.212 0.1883 0.55574   0.713127
 C 0.0921 0.6303 0.17964   0.049409
 C 0.2158 0.4223 0.09753   -0.144182
 C 0.1258 0.6449 0.10517   -0.283778
 C 0.1852 0.4084 0.17221   0.040443
 C 0.1225 0.5111 0.21352   -0.165157
 C 0.0917 0.4879 0.29402   0.730057
 C 0.1881 0.5428 0.06344   0.036466
 C 0.288 0.3117 0.05574   0.713127
 C 0.5921 0.1303 0.32036   0.049409
 C 0.7158 0.9223 0.40247   -0.144182
 C 0.6258 0.1449 0.39483   -0.283778
 C 0.6852 0.9084 0.32779   0.040443
 C 0.6225 0.0111 0.28648   -0.165157
 C 0.5917 0.9879 0.20598   0.730057
 C 0.6881 0.0428 0.43656   0.036466
 C 0.788 0.8117 0.44426   0.713127
 C 0.9079 0.3697 0.82036   0.049409
 C 0.7842 0.5777 0.90247   -0.144182
 C 0.8742 0.3551 0.89483   -0.283778
 C 0.8148 0.5916 0.82779   0.040443
 C 0.8775 0.4889 0.78648   -0.165157
 C 0.9083 0.5121 0.70598   0.730057
 C 0.8119 0.4572 0.93656   0.036466
 C 0.712 0.6883 0.94426   0.713127
 S 0.38616 0.69646 0.56652   1.37355
 S 0.11384 0.80354 0.06652   1.37355
 S 0.61384 0.30354 0.43348   1.37355
 S 0.88616 0.19646 0.93348   1.37355
 O 0.5485 0.6426 0.59815   -0.615641
 O 0.1635 0.1674 0.49033   -0.619864
 O 0.3924 0.7087 0.48773   -0.591535
 O 0.3844 0.1268 0.81554   -0.572825
 O 0.366 0.0525 0.96505   -0.676885
 O 0.2051 0.2967 0.59073   -0.512011
 O 0.4552 0.9162 0.83239   -0.522744
 O 0.2182 0.6237 0.59307   -0.731643
 O 0.9515 0.8574 0.09815   -0.615641
 O 0.3365 0.3326 0.99033   -0.619864
 O 0.1076 0.7913 0.98773   -0.591535
 O 0.1156 0.3732 0.31554   -0.572825
 O 0.134 0.4475 0.46505   -0.676885
 O 0.2949 0.2033 0.09073   -0.512011
 O 0.0448 0.5838 0.33239   -0.522743
 O 0.2818 0.8763 0.09307   -0.731643
 O 0.4515 0.3574 0.40185   -0.61564
 O 0.8365 0.8326 0.50967   -0.619863
 O 0.6076 0.2913 0.51227   -0.591534
 O 0.6156 0.8732 0.18446   -0.572825
 O 0.634 0.9475 0.03495   -0.676885
 O 0.7949 0.7033 0.40927   -0.51201
 O 0.5448 0.0838 0.16761   -0.522744
 O 0.7818 0.3763 0.40693   -0.731643
 O 0.0485 0.1426 0.90185   -0.61564
 O 0.6635 0.6674 0.00967   -0.619863
 O 0.8924 0.2087 0.01227   -0.591534
 O 0.8844 0.6268 0.68446   -0.572825
 O 0.866 0.5525 0.53495   -0.676885
 O 0.7051 0.7967 0.90927   -0.51201
 O 0.9552 0.4162 0.66761   -0.522743
 O 0.7182 0.1237 0.90693   -0.731643
