{'_ref': 'TBD', '_srcid': 'CAKYAQ_clean', 'submitters': [{'name': 'Dalar Nazarian Jeff Camp and David Sholl', 'email': 'dalar@gatech.edu jcamp6@gatech.edu'}], '_method': 'VASP DFT with PBE;DDEC'}
data_Cd2H8C12S(NO4)2
_symmetry_space_group_name_H-M   'P 1'
_cell_length_a   10.38549999
_cell_length_b   12.31750000
_cell_length_c   12.31749977
_cell_angle_alpha   79.76279852
_cell_angle_beta   65.06609962
_cell_angle_gamma   65.06599799
_symmetry_Int_Tables_number   1
_chemical_formula_structural   Cd2H8C12S(NO4)2
_chemical_formula_sum   'Cd4 H16 C24 S2 N4 O16'
_cell_volume   1295.6573705
_cell_formula_units_Z   2
loop_
 _symmetry_equiv_pos_site_id
 _symmetry_equiv_pos_as_xyz
  1  'x, y, z'
loop_
 _atom_site_label
 _atom_site_fract_x
 _atom_site_fract_y
 _atom_site_fract_z
 _atom_site_charge
 Cd 0.09636 0.50479 0.3025   1.110792
 Cd 0.90364 0.49521 0.6975   1.110792
 Cd 0.60114 0.30251 0.49521   1.110359
 Cd 0.39886 0.69749 0.50479   1.11036
 H 0.3735 0.2824 0.35   0.080269
 H 0.4569 0.0794 0.398   0.135997
 H 0.0059 0.7176 0.65   0.080989
 H 0.9343 0.9206 0.602   0.132555
 H 0.6559 0.35 0.7176   0.078979
 H 0.5363 0.398 0.9206   0.134916
 H 0.7235 0.65 0.2824   0.079604
 H 0.8549 0.602 0.0794   0.13385
 H 0.6265 0.7176 0.65   0.080269
 H 0.5431 0.9206 0.602   0.135997
 H 0.9941 0.2824 0.35   0.080989
 H 0.0657 0.0794 0.398   0.132555
 H 0.3441 0.65 0.2824   0.078979
 H 0.4637 0.602 0.0794   0.134916
 H 0.2765 0.35 0.7176   0.079604
 H 0.1451 0.398 0.9206   0.13385
 C 0.3104 0.2405 0.36046   0.174723
 C 0.3613 0.11927 0.38895   -0.141848
 C 0.91136 0.7595 0.63954   0.170692
 C 0.86952 0.88073 0.61105   -0.13625
 C 0.5509 0.36046 0.7595   0.172997
 C 0.48057 0.38895 0.88073   -0.139339
 C 0.67086 0.63954 0.2405   0.171717
 C 0.75025 0.61105 0.11927   -0.137932
 C 0.6896 0.7595 0.63954   0.174723
 C 0.6387 0.88073 0.61105   -0.141848
 C 0.08864 0.2405 0.36046   0.170692
 C 0.13048 0.11927 0.38895   -0.13625
 C 0.4491 0.63954 0.2405   0.172997
 C 0.51943 0.61105 0.11927   -0.139339
 C 0.32914 0.36046 0.7595   0.171717
 C 0.24975 0.38895 0.88073   -0.137932
 C 0.26918 0.05777 0.40387   -0.009675
 C 0.31657 0.92745 0.43941   0.614654
 C 0.73082 0.94223 0.59613   -0.009675
 C 0.68343 0.07255 0.56059   0.614654
 C 0.32695 0.40387 0.94223   -0.010566
 C 0.24402 0.43941 0.07255   0.612835
 C 0.67305 0.59613 0.05777   -0.010566
 C 0.75598 0.56059 0.92745   0.612835
 S 0.75 0.5 0.5   1.647925
 S 0.25 0.5 0.5   1.647925
 N 0.176 0.30092 0.34708   -0.401386
 N 0.824 0.69908 0.65292   -0.401386
 N 0.47692 0.34708 0.69908   -0.397967
 N 0.52308 0.65292 0.30092   -0.397967
 O 0.44183 0.87632 0.45434   -0.58453
 O 0.84152 0.5668 0.41546   -0.731459
 O 0.77249 0.12368 0.54566   -0.587533
 O 0.82378 0.4332 0.58454   -0.732125
 O 0.31815 0.45434 0.12368   -0.584968
 O 0.40832 0.41546 0.4332   -0.731019
 O 0.89617 0.54566 0.87632   -0.584989
 O 0.25698 0.58454 0.5668   -0.732267
 O 0.55817 0.12368 0.54566   -0.58453
 O 0.15848 0.4332 0.58454   -0.731459
 O 0.22751 0.87632 0.45434   -0.587533
 O 0.17622 0.5668 0.41546   -0.732125
 O 0.68185 0.54566 0.87632   -0.584968
 O 0.59168 0.58454 0.5668   -0.731019
 O 0.10383 0.45434 0.12368   -0.584989
 O 0.74302 0.41546 0.4332   -0.732267
