{'_ref': 'TBD', '_srcid': 'CAKYAQ_clean', 'submitters': [{'name': 'Dalar Nazarian Jeff Camp and David Sholl', 'email': 'dalar@gatech.edu jcamp6@gatech.edu'}], '_method': 'VASP DFT with PBE;DDEC'}
data_Zn2H23C40(ClO5)2
_symmetry_space_group_name_H-M   'P 1'
_cell_length_a   10.18890006
_cell_length_b   16.65100000
_cell_length_c   19.73000000
_cell_angle_alpha   90.00000000
_cell_angle_beta   101.82499751
_cell_angle_gamma   90.00000000
_symmetry_Int_Tables_number   1
_chemical_formula_structural   Zn2H23C40(ClO5)2
_chemical_formula_sum   'Zn4 H46 C80 Cl4 O20'
_cell_volume   3276.26438984
_cell_formula_units_Z   2
loop_
 _symmetry_equiv_pos_site_id
 _symmetry_equiv_pos_as_xyz
  1  'x, y, z'
loop_
 _atom_site_label
 _atom_site_fract_x
 _atom_site_fract_y
 _atom_site_fract_z
 _atom_site_charge
 Zn 0.49794 0.34196 0.38455   1.020992
 Zn 0.7578 0.43616 0.50027   1.185008
 Zn 0.50206 0.84196 0.61545   1.020992
 Zn 0.2422 0.93616 0.49973   1.185008
 H 0.5825 0.069 0.7116   0.115271
 H 0.6927 0.2926 0.6668   0.121914
 H 0.9059 0.2272 0.7115   0.124765
 H 0.1814 0.2847 0.8833   0.117545
 H 0.0272 0.2795 0.9501   0.105695
 H 0.3719 0.1909 0.8796   0.040226
 H 0.4355 0.102 0.8826   0.05322
 H 0.429 0.1699 0.0103   0.140354
 H 0.2854 0.1461 0.965   0.110828
 H 0.3986 0.0789 0.986   0.113551
 H 0.5211 0.1651 0.8032   0.124477
 H 0.777 0.0884 0.97   0.101943
 H 0.7711 0.981 0.0459   0.121815
 H 0.8977 0.1287 0.2095   0.122287
 H 0.855 0.376 0.1122   0.130546
 H 0.9636 0.4435 0.013   0.039748
 H 0.8354 0.4793 0.0382   0.042229
 H 0.7547 0.5352 0.936   0.112835
 H 0.9125 0.5513 0.9469   0.12007
 H 0.845 0.4801 0.8973   0.134295
 H 0.1366 0.275 0.2227   0.12729
 H 0.0261 0.3444 0.4012   0.095371
 H 0.7464 0.2813 0.2365   0.105655
 H 0.4175 0.569 0.2884   0.115271
 H 0.3073 0.7926 0.3332   0.121914
 H 0.0941 0.7272 0.2885   0.124765
 H 0.8186 0.7847 0.1167   0.117545
 H 0.9728 0.7795 0.0499   0.105695
 H 0.6281 0.6909 0.1204   0.040227
 H 0.5645 0.602 0.1174   0.05322
 H 0.571 0.6699 0.9897   0.140354
 H 0.7146 0.6461 0.035   0.110828
 H 0.6014 0.5789 0.014   0.113551
 H 0.4789 0.6651 0.1968   0.124477
 H 0.223 0.5884 0.03   0.101943
 H 0.2289 0.481 0.9541   0.121816
 H 0.1023 0.6287 0.7905   0.122287
 H 0.145 0.876 0.8878   0.130546
 H 0.0364 0.9435 0.987   0.039749
 H 0.1646 0.9793 0.9618   0.042229
 H 0.2453 0.0352 0.064   0.112835
 H 0.0875 0.0513 0.0531   0.120069
 H 0.155 0.9801 0.1027   0.134295
 H 0.8634 0.775 0.7773   0.12729
 H 0.9739 0.8444 0.5988   0.095371
 H 0.2536 0.7813 0.7635   0.105655
 C 0.5957 0.2901 0.5268   0.756827
 C 0.5923 0.2274 0.581   -0.18342
 C 0.5354 0.1519 0.5627   0.09578
 C 0.5372 0.094 0.6099   -0.168029
 C 0.5887 0.109 0.678   -0.024234
 C 0.6499 0.1817 0.699   0.018475
 C 0.6525 0.2423 0.6524   -0.035025
 C 0.4714 0.0155 0.5903   0.751477
 C 0.6947 0.1993 0.7756   0.0358
 C 0.8337 0.2251 0.8026   0.007996
 C 0.9296 0.2351 0.7601   -0.185052
 C 0.0552 0.2561 0.7912   0.145536
 C 0.0916 0.2704 0.8632   -0.159587
 C 0.0033 0.264 0.9028   -0.067355
 C 0.8769 0.2354 0.8768   0.028211
 C 0.7824 0.2229 0.9206   -0.068505
 C 0.6549 0.1947 0.8892   0.245177
 C 0.431 0.1518 0.9093   0.178137
 C 0.382 0.1353 0.9729   -0.378063
 C 0.6099 0.1836 0.8205   -0.253176
 C 0.826 0.2305 0.9975   -0.083268
 C 0.8409 0.1723 0.0447   0.050039
 C 0.8015 0.0966 0.0186   -0.089432
 C 0.798 0.0328 0.0637   -0.162469
 C 0.8339 0.0448 0.1348   0.138673
 C 0.8732 0.1205 0.1609   -0.178134
 C 0.8767 0.1843 0.1158   0.027431
 C 0.892 0.26 0.1417   0.066854
 C 0.8553 0.3225 0.0956   -0.27172
 C 0.818 0.3072 0.0233   0.24936
 C 0.866 0.4548 0.9986   0.193048
 C 0.843 0.5098 0.9399   -0.377647
 C 0.9313 0.2819 0.2176   0.021511
 C 0.0688 0.2877 0.2476   -0.08644
 C 0.0994 0.3141 0.3186   -0.124504
 C 0.0023 0.3262 0.3547   -0.017728
 C 0.8654 0.3124 0.3246   -0.158507
 C 0.8376 0.2909 0.2576   -0.066602
 C 0.2439 0.33 0.3537   0.665572
 C 0.7571 0.331 0.3652   0.750261
 C 0.4043 0.7901 0.4732   0.756827
 C 0.4077 0.7274 0.419   -0.18342
 C 0.4646 0.6519 0.4373   0.09578
 C 0.4628 0.594 0.3901   -0.168029
 C 0.4113 0.609 0.322   -0.024234
 C 0.3501 0.6817 0.301   0.018475
 C 0.3475 0.7423 0.3476   -0.035025
 C 0.5286 0.5155 0.4097   0.751477
 C 0.3053 0.6993 0.2244   0.0358
 C 0.1663 0.7251 0.1974   0.007996
 C 0.0704 0.7351 0.2399   -0.185052
 C 0.9448 0.7561 0.2088   0.145536
 C 0.9084 0.7704 0.1368   -0.159587
 C 0.9967 0.764 0.0972   -0.067355
 C 0.1231 0.7354 0.1232   0.028211
 C 0.2176 0.7229 0.0794   -0.068505
 C 0.3451 0.6947 0.1108   0.245177
 C 0.569 0.6518 0.0907   0.178137
 C 0.618 0.6353 0.0271   -0.378064
 C 0.3901 0.6836 0.1795   -0.253176
 C 0.174 0.7305 0.0025   -0.083268
 C 0.1591 0.6723 0.9553   0.050039
 C 0.1985 0.5966 0.9814   -0.089432
 C 0.202 0.5328 0.9363   -0.162469
 C 0.1661 0.5448 0.8652   0.138673
 C 0.1268 0.6205 0.8391   -0.178134
 C 0.1233 0.6843 0.8842   0.027431
 C 0.108 0.76 0.8583   0.066854
 C 0.1447 0.8225 0.9044   -0.27172
 C 0.182 0.8072 0.9767   0.24936
 C 0.134 0.9548 0.0014   0.193048
 C 0.157 0.0098 0.0601   -0.377647
 C 0.0687 0.7819 0.7824   0.021511
 C 0.9312 0.7877 0.7524   -0.086441
 C 0.9006 0.8141 0.6814   -0.124504
 C 0.9977 0.8262 0.6453   -0.017728
 C 0.1346 0.8124 0.6754   -0.158507
 C 0.1624 0.7909 0.7424   -0.066602
 C 0.7561 0.83 0.6463   0.665571
 C 0.2429 0.831 0.6348   0.750261
 Cl 0.1787 0.2612 0.7403   -0.139177
 Cl 0.8341 0.9679 0.1942   -0.134123
 Cl 0.8213 0.7612 0.2597   -0.139177
 Cl 0.1659 0.4679 0.8058   -0.134123
 O 0.5324 0.275 0.4685   -0.551828
 O 0.6725 0.3517 0.5458   -0.696446
 O 0.3961 0.0079 0.5313   -0.674762
 O 0.5007 0.9586 0.632   -0.58288
 O 0.3343 0.3043 0.3204   -0.647441
 O 0.2738 0.3615 0.4086   -0.575137
 O 0.7944 0.3639 0.4221   -0.712192
 O 0.6432 0.3126 0.3367   -0.547194
 O 0.5697 0.1868 0.9362   -0.29967
 O 0.7879 0.3744 0.9767   -0.354345
 O 0.4676 0.775 0.5315   -0.551828
 O 0.3275 0.8517 0.4542   -0.696446
 O 0.6039 0.5079 0.4687   -0.674762
 O 0.4993 0.4586 0.368   -0.58288
 O 0.6657 0.8043 0.6796   -0.647441
 O 0.7262 0.8615 0.5914   -0.575137
 O 0.2056 0.8639 0.5779   -0.712192
 O 0.3568 0.8126 0.6633   -0.547194
 O 0.4303 0.6868 0.0638   -0.29967
 O 0.2121 0.8744 0.0233   -0.354345
