{'_ref': 'TBD', '_srcid': 'CAKYAQ_clean', 'submitters': [{'name': 'Dalar Nazarian Jeff Camp and David Sholl', 'email': 'dalar@gatech.edu jcamp6@gatech.edu'}], '_method': 'VASP DFT with PBE;DDEC'}
data_GdP4Ru2H8(C2O7)2
_symmetry_space_group_name_H-M   'P 1'
_cell_length_a   9.61159969
_cell_length_b   9.61159946
_cell_length_c   15.54800000
_cell_angle_alpha   92.93020184
_cell_angle_beta   92.93020177
_cell_angle_gamma   99.07449773
_symmetry_Int_Tables_number   1
_chemical_formula_structural   GdP4Ru2H8(C2O7)2
_chemical_formula_sum   'Gd2 P8 Ru4 H16 C8 O28'
_cell_volume   1413.98363058
_cell_formula_units_Z   2
loop_
 _symmetry_equiv_pos_site_id
 _symmetry_equiv_pos_as_xyz
  1  'x, y, z'
loop_
 _atom_site_label
 _atom_site_fract_x
 _atom_site_fract_y
 _atom_site_fract_z
 _atom_site_charge
 Gd 0.01105 0.98895 0.75   2.089618
 Gd 0.98895 0.01105 0.25   2.089619
 P 0.35442 0.0453 0.64483   1.372032
 P 0.65091 0.97641 0.65404   1.39465
 P 0.9547 0.64558 0.85517   1.372033
 P 0.02359 0.34909 0.84596   1.39465
 P 0.64558 0.9547 0.35517   1.37203
 P 0.34909 0.02359 0.34596   1.394647
 P 0.0453 0.35442 0.14483   1.37203
 P 0.97641 0.65091 0.15404   1.394648
 H 0.422 0.824 0.73   0.390617
 H 0.475 0.1624 0.8138   0.133548
 H 0.6327 0.1283 0.8159   0.128931
 H 0.5818 0.2278 0.7452   0.120395
 H 0.176 0.578 0.77   0.390617
 H 0.8376 0.525 0.6862   0.133548
 H 0.8717 0.3673 0.6841   0.128931
 H 0.7722 0.4182 0.7548   0.120392
 H 0.578 0.176 0.27   0.390618
 H 0.525 0.8376 0.1862   0.133549
 H 0.3673 0.8717 0.1841   0.128932
 H 0.4182 0.7722 0.2548   0.120395
 H 0.824 0.422 0.23   0.390617
 H 0.1624 0.475 0.3138   0.133549
 H 0.1283 0.6327 0.3159   0.128931
 H 0.2278 0.5818 0.2452   0.120392
 Ru 0.54565 0.12123 0.50195   1.087405
 Ru 0.87877 0.45435 0.99805   1.087405
 Ru 0.45435 0.87877 0.49805   1.08723
 Ru 0.12123 0.54565 0.00195   1.08723
 C 0.5046 0.0174 0.7172   -0.329935
 C 0.5527 0.1453 0.7784   -0.248448
 C 0.9826 0.4954 0.7828   -0.329936
 C 0.8547 0.4473 0.7216   -0.248447
 C 0.4954 0.9826 0.2828   -0.329935
 C 0.4473 0.8547 0.2216   -0.248449
 C 0.0174 0.5046 0.2172   -0.329935
 C 0.1453 0.5527 0.2784   -0.248448
 O 0.4091 0.1685 0.5895   -0.679878
 O 0.3098 0.9088 0.5859   -0.746997
 O 0.2349 0.0769 0.6988   -0.890027
 O 0.6911 0.1047 0.5984   -0.731757
 O 0.5935 0.8449 0.5936   -0.708248
 O 0.7705 0.9541 0.7143   -0.870312
 O 0.4494 0.8996 0.7666   -0.46669
 O 0.8315 0.5909 0.9105   -0.679878
 O 0.0912 0.6902 0.9141   -0.746998
 O 0.9231 0.7651 0.8012   -0.890027
 O 0.8953 0.3089 0.9016   -0.731757
 O 0.1551 0.4065 0.9064   -0.708248
 O 0.0459 0.2295 0.7857   -0.870312
 O 0.1004 0.5506 0.7334   -0.46669
 O 0.5909 0.8315 0.4105   -0.679871
 O 0.6902 0.0912 0.4141   -0.747009
 O 0.7651 0.9231 0.3012   -0.890026
 O 0.3089 0.8953 0.4016   -0.731748
 O 0.4065 0.1551 0.4064   -0.708261
 O 0.2295 0.0459 0.2857   -0.870312
 O 0.5506 0.1004 0.2334   -0.46669
 O 0.1685 0.4091 0.0895   -0.679871
 O 0.9088 0.3098 0.0859   -0.747009
 O 0.0769 0.2349 0.1988   -0.890027
 O 0.1047 0.6911 0.0984   -0.731748
 O 0.8449 0.5935 0.0936   -0.708261
 O 0.9541 0.7705 0.2143   -0.870312
 O 0.8996 0.4494 0.2666   -0.46669
