{'_ref': 'TBD', '_srcid': 'CAKYAQ_clean', 'submitters': [{'name': 'Dalar Nazarian Jeff Camp and David Sholl', 'email': 'dalar@gatech.edu jcamp6@gatech.edu'}], '_method': 'VASP DFT with PBE;DDEC'}
data_MgH6(C3O)4
_symmetry_space_group_name_H-M   'P 1'
_cell_length_a   11.11159980
_cell_length_b   12.62290005
_cell_length_c   17.80000000
_cell_angle_alpha   88.56799885
_cell_angle_beta   83.83300016
_cell_angle_gamma   70.16699768
_symmetry_Int_Tables_number   1
_chemical_formula_structural   MgH6(C3O)4
_chemical_formula_sum   'Mg6 H36 C72 O24'
_cell_volume   2334.78575247
_cell_formula_units_Z   6
loop_
 _symmetry_equiv_pos_site_id
 _symmetry_equiv_pos_as_xyz
  1  'x, y, z'
loop_
 _atom_site_label
 _atom_site_fract_x
 _atom_site_fract_y
 _atom_site_fract_z
 _atom_site_charge
 Mg 0.70081 0.30106 0.74395   1.567977
 Mg 0.69976 0.42203 0.56267   1.594929
 Mg 0.68649 0.17656 0.92285   1.61637
 Mg 0.29919 0.69894 0.25605   1.567977
 Mg 0.30024 0.57797 0.43733   1.594929
 Mg 0.31351 0.82344 0.07715   1.616369
 H 0.3445 0.69 0.6256   0.095066
 H 0.4071 0.5892 0.8368   0.108124
 H 0.2369 0.7399 0.8838   0.095571
 H 0.0477 0.9091 0.8618   0.103723
 H 0.9856 0.0081 0.6508   0.107015
 H 0.1569 0.8594 0.6039   0.10884
 H 0.3932 0.3616 0.7657   0.107844
 H 0.3817 0.0546 0.8175   0.10537
 H 0.1964 0.0916 0.7617   0.100515
 H 0.0131 0.2293 0.7029   0.110767
 H 0.0254 0.5357 0.6504   0.105238
 H 0.2156 0.4958 0.6997   0.094679
 H 0.8364 0.3916 0.0274   0.095605
 H 0.9448 0.4667 0.8185   0.078031
 H 0.0764 0.5503 0.8638   0.100366
 H 0.5652 0.1773 0.4603   0.105112
 H 0.4889 0.9294 0.6393   0.109305
 H 0.5564 0.071 0.673   0.092851
 H 0.6555 0.31 0.3744   0.095066
 H 0.5929 0.4108 0.1632   0.108124
 H 0.7631 0.2601 0.1162   0.095571
 H 0.9523 0.0909 0.1382   0.103723
 H 0.0144 0.9919 0.3492   0.107015
 H 0.8431 0.1406 0.3961   0.10884
 H 0.6068 0.6384 0.2343   0.107844
 H 0.6183 0.9454 0.1825   0.10537
 H 0.8036 0.9084 0.2383   0.100515
 H 0.9869 0.7707 0.2971   0.110767
 H 0.9746 0.4643 0.3496   0.105238
 H 0.7844 0.5042 0.3003   0.094679
 H 0.1636 0.6084 0.9726   0.095605
 H 0.0552 0.5333 0.1815   0.078031
 H 0.9236 0.4497 0.1362   0.100365
 H 0.4348 0.8227 0.5397   0.105112
 H 0.5111 0.0706 0.3607   0.109305
 H 0.4436 0.929 0.327   0.092851
 C 0.3216 0.6999 0.6774   -0.080043
 C 0.3932 0.6256 0.7253   -0.14685
 C 0.3591 0.6407 0.8039   -0.046244
 C 0.2568 0.7299 0.8318   -0.151071
 C 0.0707 0.8993 0.81   -0.076898
 C 0.9981 0.9739 0.7622   -0.146605
 C 0.0338 0.9573 0.6841   -0.038515
 C 0.1367 0.869 0.6559   -0.147837
 C 0.2129 0.792 0.7046   0.042348
 C 0.1804 0.8074 0.783   0.04044
 C 0.8837 0.0717 0.7911   0.800325
 C 0.509 0.5271 0.6954   0.790177
 C 0.3519 0.3086 0.7657   -0.042977
 C 0.4052 0.207 0.7972   -0.131427
 C 0.345 0.1245 0.7959   -0.051171
 C 0.2338 0.1471 0.7633   -0.119137
 C 0.0552 0.2818 0.7024   -0.048489
 C 0.0 0.3861 0.6732   -0.124619
 C 0.0624 0.4656 0.6717   -0.052171
 C 0.1759 0.4416 0.7009   -0.121408
 C 0.2349 0.3363 0.733   0.035539
 C 0.1747 0.2525 0.7319   0.040864
 C 0.8737 0.4138 0.6414   0.740831
 C 0.5211 0.1845 0.837   0.745869
 C 0.8852 0.4236 0.9948   -0.070305
 C 0.8797 0.4181 0.9193   -0.161482
 C 0.9505 0.4679 0.8702   -0.025558
 C 0.0286 0.5187 0.8974   -0.141739
 C 0.9627 0.4764 0.0252   0.04363
 C 0.8022 0.3544 0.8885   0.813678
 C 0.5501 0.1268 0.4959   -0.076616
 C 0.5646 0.1398 0.5701   -0.157377
 C 0.5045 0.9782 0.6026   -0.140685
 C 0.5436 0.0636 0.6229   -0.033618
 C 0.5125 0.0374 0.4727   0.044051
 C 0.6058 0.2345 0.5955   0.791737
 C 0.6784 0.3001 0.3226   -0.080043
 C 0.6068 0.3744 0.2747   -0.14685
 C 0.6409 0.3593 0.1961   -0.046244
 C 0.7432 0.2701 0.1682   -0.151071
 C 0.9293 0.1007 0.19   -0.076898
 C 0.0019 0.0261 0.2378   -0.146605
 C 0.9662 0.0427 0.3159   -0.038515
 C 0.8633 0.131 0.3441   -0.147837
 C 0.7871 0.208 0.2954   0.042348
 C 0.8196 0.1926 0.217   0.04044
 C 0.1163 0.9283 0.2089   0.800325
 C 0.491 0.4729 0.3046   0.790177
 C 0.6481 0.6914 0.2343   -0.042977
 C 0.5948 0.793 0.2028   -0.131427
 C 0.655 0.8755 0.2041   -0.051171
 C 0.7662 0.8529 0.2367   -0.119137
 C 0.9448 0.7182 0.2976   -0.048489
 C 0.0 0.6139 0.3268   -0.124619
 C 0.9376 0.5344 0.3283   -0.052171
 C 0.8241 0.5584 0.2991   -0.121408
 C 0.7651 0.6637 0.267   0.035539
 C 0.8253 0.7475 0.2681   0.040864
 C 0.1263 0.5862 0.3586   0.740831
 C 0.4789 0.8155 0.163   0.745869
 C 0.1148 0.5764 0.0052   -0.070305
 C 0.1203 0.5819 0.0807   -0.161482
 C 0.0495 0.5321 0.1298   -0.025558
 C 0.9714 0.4813 0.1026   -0.141737
 C 0.0373 0.5236 0.9748   0.043632
 C 0.1978 0.6456 0.1115   0.813678
 C 0.4499 0.8732 0.5041   -0.076616
 C 0.4354 0.8602 0.4299   -0.157377
 C 0.4955 0.0218 0.3974   -0.140685
 C 0.4564 0.9364 0.3771   -0.033618
 C 0.4875 0.9626 0.5273   0.044052
 C 0.3942 0.7655 0.4045   0.791737
 O 0.8405 0.1469 0.7451   -0.703659
 O 0.8401 0.0702 0.8589   -0.817614
 O 0.5427 0.524 0.6259   -0.807445
 O 0.5617 0.4566 0.74198   -0.704551
 O 0.8371 0.4964 0.5995   -0.693546
 O 0.81 0.3477 0.65237   -0.849572
 O 0.5519 0.1048 0.8815   -0.699396
 O 0.5854 0.2523 0.82868   -0.865015
 O 0.784 0.366 0.82046   -0.692326
 O 0.7635 0.2935 0.93489   -0.846631
 O 0.6269 0.2355 0.6618   -0.692142
 O 0.6155 0.3066 0.5463   -0.828051
 O 0.1595 0.8531 0.2549   -0.703659
 O 0.1599 0.9298 0.1411   -0.817614
 O 0.4573 0.476 0.3741   -0.807445
 O 0.4383 0.5434 0.25802   -0.704551
 O 0.1629 0.5036 0.4005   -0.693547
 O 0.19 0.6523 0.34763   -0.849572
 O 0.4481 0.8952 0.1185   -0.699396
 O 0.4146 0.7477 0.17132   -0.865015
 O 0.216 0.634 0.17954   -0.692326
 O 0.2365 0.7065 0.06511   -0.84663
 O 0.3731 0.7645 0.3382   -0.692142
 O 0.3845 0.6934 0.4537   -0.828051
