{'_ref': 'TBD', '_srcid': 'CAKYAQ_clean', 'submitters': [{'name': 'Dalar Nazarian Jeff Camp and David Sholl', 'email': 'dalar@gatech.edu jcamp6@gatech.edu'}], '_method': 'VASP DFT with PBE;DDEC'}
data_CoH12C15(NO2)2
_symmetry_space_group_name_H-M   'P 1'
_cell_length_a   8.28700000
_cell_length_b   14.22399956
_cell_length_c   14.72600000
_cell_angle_alpha   90.00000000
_cell_angle_beta   90.00000000
_cell_angle_gamma   99.69599988
_symmetry_Int_Tables_number   1
_chemical_formula_structural   CoH12C15(NO2)2
_chemical_formula_sum   'Co4 H48 C60 N8 O16'
_cell_volume   1711.02096918
_cell_formula_units_Z   4
loop_
 _symmetry_equiv_pos_site_id
 _symmetry_equiv_pos_as_xyz
  1  'x, y, z'
loop_
 _atom_site_label
 _atom_site_fract_x
 _atom_site_fract_y
 _atom_site_fract_z
 _atom_site_charge
 Co 0.90593 0.11991 0.08256   0.954266
 Co 0.59407 0.88009 0.58256   0.954266
 Co 0.09407 0.88009 0.91744   0.954266
 Co 0.40593 0.11991 0.41744   0.954266
 H 0.4957 0.8387 0.302   0.094085
 H 0.6558 0.9233 0.0561   0.097148
 H 0.5053 0.7646 0.0737   0.069027
 H 0.3504 0.8009 0.1114   0.085608
 H 0.3524 0.7089 0.2359   0.085589
 H 0.3488 0.6463 0.1481   0.093193
 H 0.5127 0.6751 0.2021   0.087415
 H 0.2466 0.2076 0.1096   0.078161
 H 0.4427 0.3361 0.0808   0.137034
 H 0.1184 0.4415 0.9297   0.125306
 H 0.9328 0.3089 0.9602   0.073355
 H 0.3908 0.5376 0.9477   0.106527
 H 0.0043 0.1613 0.802   0.094086
 H 0.8442 0.0767 0.5561   0.097148
 H 0.9947 0.2354 0.5737   0.069027
 H 0.1496 0.1991 0.6114   0.085608
 H 0.1476 0.2911 0.7359   0.085589
 H 0.1512 0.3537 0.6481   0.093191
 H 0.9873 0.3249 0.7021   0.087413
 H 0.2534 0.7924 0.6096   0.078161
 H 0.0573 0.6639 0.5808   0.137033
 H 0.3816 0.5585 0.4297   0.125303
 H 0.5672 0.6911 0.4602   0.073357
 H 0.1092 0.4624 0.4477   0.106526
 H 0.5043 0.1613 0.698   0.094085
 H 0.3442 0.0767 0.9439   0.097149
 H 0.4947 0.2354 0.9263   0.069029
 H 0.6496 0.1991 0.8886   0.08561
 H 0.6476 0.2911 0.7641   0.085592
 H 0.6512 0.3537 0.8519   0.093192
 H 0.4873 0.3249 0.7979   0.087415
 H 0.7534 0.7924 0.8904   0.078161
 H 0.5573 0.6639 0.9192   0.137027
 H 0.8816 0.5585 0.0703   0.125305
 H 0.0672 0.6911 0.0398   0.073359
 H 0.6092 0.4624 0.0523   0.106514
 H 0.9957 0.8387 0.198   0.094086
 H 0.1558 0.9233 0.4439   0.097149
 H 0.0053 0.7646 0.4263   0.069029
 H 0.8504 0.8009 0.3886   0.08561
 H 0.8524 0.7089 0.2641   0.085592
 H 0.8488 0.6463 0.3519   0.09319
 H 0.0127 0.6751 0.2979   0.087413
 H 0.7466 0.2076 0.3904   0.078161
 H 0.9427 0.3361 0.4192   0.137026
 H 0.6184 0.4415 0.5703   0.125302
 H 0.4328 0.3089 0.5398   0.073361
 H 0.8908 0.5376 0.5523   0.106513
 C 0.8946 0.09801 0.27681   0.611141
 C 0.7645 0.01841 0.24426   0.099604
 C 0.6627 0.95841 0.30205   -0.131925
 C 0.5628 0.88087 0.26422   -0.057637
 C 0.5597 0.86421 0.17215   0.004734
 C 0.6594 0.93093 0.11879   0.136116
 C 0.4523 0.7809 0.1289   -0.083306
 C 0.4133 0.6957 0.1833   -0.29214
 C 0.6471 0.97528 0.4026   0.716933
 C 0.2199 0.2557 0.0726   0.219297
 C 0.3387 0.333 0.056   -0.210246
 C 0.3036 0.406 0.0027   0.129008
 C 0.148 0.3945 0.967   -0.22862
 C 0.0366 0.3147 0.9859   0.162427
 C 0.424 0.4913 0.9845   -0.116056
 C 0.6054 0.90199 0.77681   0.611141
 C 0.7355 0.98159 0.74426   0.099604
 C 0.8373 0.04159 0.80205   -0.131925
 C 0.9372 0.11913 0.76422   -0.057638
 C 0.9403 0.13579 0.67215   0.004734
 C 0.8406 0.06907 0.61879   0.136116
 C 0.0477 0.2191 0.6289   -0.083306
 C 0.0867 0.3043 0.6833   -0.292139
 C 0.8529 0.02472 0.9026   0.716933
 C 0.2801 0.7443 0.5726   0.219296
 C 0.1613 0.667 0.556   -0.210246
 C 0.1964 0.594 0.5027   0.129008
 C 0.352 0.6055 0.467   -0.228619
 C 0.4634 0.6853 0.4859   0.162426
 C 0.076 0.5087 0.4845   -0.116056
 C 0.1054 0.90199 0.72319   0.611141
 C 0.2355 0.98159 0.75574   0.099605
 C 0.3373 0.04159 0.69795   -0.131925
 C 0.4372 0.11913 0.73578   -0.057637
 C 0.4403 0.13579 0.82785   0.004735
 C 0.3406 0.06907 0.88121   0.136117
 C 0.5477 0.2191 0.8711   -0.083307
 C 0.5867 0.3043 0.8167   -0.29214
 C 0.3529 0.02472 0.5974   0.716934
 C 0.7801 0.7443 0.9274   0.219296
 C 0.6613 0.667 0.944   -0.210243
 C 0.6964 0.594 0.9973   0.129001
 C 0.852 0.6055 0.033   -0.228619
 C 0.9634 0.6853 0.0141   0.162425
 C 0.576 0.5087 0.0155   -0.116016
 C 0.3946 0.09801 0.22319   0.611141
 C 0.2645 0.01841 0.25574   0.099605
 C 0.1627 0.95841 0.19795   -0.131925
 C 0.0628 0.88087 0.23578   -0.057637
 C 0.0597 0.86421 0.32785   0.004735
 C 0.1594 0.93093 0.38121   0.136117
 C 0.9523 0.7809 0.3711   -0.083307
 C 0.9133 0.6957 0.3167   -0.292139
 C 0.1471 0.97528 0.0974   0.716934
 C 0.7199 0.2557 0.4274   0.219296
 C 0.8387 0.333 0.444   -0.210242
 C 0.8036 0.406 0.4973   0.129
 C 0.648 0.3945 0.533   -0.228617
 C 0.5366 0.3147 0.5141   0.162425
 C 0.924 0.4913 0.5155   -0.116015
 N 0.76 0.00552 0.15367   -0.353704
 N 0.0695 0.24486 0.03926   -0.357872
 N 0.74 0.99448 0.65367   -0.353704
 N 0.4305 0.75514 0.53926   -0.357872
 N 0.24 0.99448 0.84633   -0.353704
 N 0.9305 0.75514 0.96074   -0.357871
 N 0.26 0.00552 0.34633   -0.353704
 N 0.5695 0.24486 0.46074   -0.357871
 O 0.9581 0.15804 0.21751   -0.609997
 O 0.934 0.09924 0.35754   -0.55228
 O 0.6028 0.04958 0.42893   -0.584152
 O 0.6731 0.90797 0.45263   -0.588052
 O 0.5419 0.84196 0.71751   -0.609997
 O 0.566 0.90076 0.85754   -0.55228
 O 0.8972 0.95042 0.92893   -0.584152
 O 0.8269 0.09203 0.95263   -0.588052
 O 0.0419 0.84196 0.78249   -0.609997
 O 0.066 0.90076 0.64246   -0.55228
 O 0.3972 0.95042 0.57107   -0.584153
 O 0.3269 0.09203 0.54737   -0.588052
 O 0.4581 0.15804 0.28249   -0.609997
 O 0.434 0.09924 0.14246   -0.55228
 O 0.1028 0.04958 0.07107   -0.584153
 O 0.1731 0.90797 0.04737   -0.588052
