{'_ref': 'TBD', '_srcid': 'CAKYAQ_clean', 'submitters': [{'name': 'Dalar Nazarian Jeff Camp and David Sholl', 'email': 'dalar@gatech.edu jcamp6@gatech.edu'}], '_method': 'VASP DFT with PBE;DDEC'}
data_Cu2H6C4IN3O2
_symmetry_space_group_name_H-M   'P 1'
_cell_length_a   17.30640000
_cell_length_b   17.30640000
_cell_length_c   18.59750000
_cell_angle_alpha   90.00000000
_cell_angle_beta   90.00000000
_cell_angle_gamma   90.00000000
_symmetry_Int_Tables_number   1
_chemical_formula_structural   Cu2H6C4IN3O2
_chemical_formula_sum   'Cu32 H96 C64 I16 N48 O32'
_cell_volume   5570.16476715
_cell_formula_units_Z   16
loop_
 _symmetry_equiv_pos_site_id
 _symmetry_equiv_pos_as_xyz
  1  'x, y, z'
loop_
 _atom_site_label
 _atom_site_fract_x
 _atom_site_fract_y
 _atom_site_fract_z
 _atom_site_charge
 Cu 0.48392 0.67574 0.5685   0.11947
 Cu 0.07426 0.73392 0.8185   0.11947
 Cu 0.98392 0.17574 0.0685   0.11947
 Cu 0.57426 0.23392 0.3185   0.11947
 Cu 0.92574 0.76608 0.8185   0.11947
 Cu 0.01608 0.32426 0.0685   0.11947
 Cu 0.42574 0.26608 0.3185   0.11947
 Cu 0.51608 0.82426 0.5685   0.11947
 Cu 0.51608 0.32426 0.4315   0.11947
 Cu 0.92574 0.26608 0.1815   0.11947
 Cu 0.01608 0.82426 0.9315   0.11947
 Cu 0.42574 0.76608 0.6815   0.11947
 Cu 0.07426 0.23392 0.1815   0.11947
 Cu 0.98392 0.67574 0.9315   0.11947
 Cu 0.57426 0.73392 0.6815   0.11947
 Cu 0.48392 0.17574 0.4315   0.11947
 Cu 0.30354 0.62569 0.5988   0.311645
 Cu 0.12431 0.55354 0.8488   0.311645
 Cu 0.80354 0.12569 0.0988   0.311645
 Cu 0.62431 0.05354 0.3488   0.311645
 Cu 0.87569 0.94646 0.8488   0.311645
 Cu 0.19646 0.37431 0.0988   0.311645
 Cu 0.37569 0.44646 0.3488   0.311645
 Cu 0.69646 0.87431 0.5988   0.311645
 Cu 0.69646 0.37431 0.4012   0.311645
 Cu 0.87569 0.44646 0.1512   0.311645
 Cu 0.19646 0.87431 0.9012   0.311645
 Cu 0.37569 0.94646 0.6512   0.311645
 Cu 0.12431 0.05354 0.1512   0.311645
 Cu 0.80354 0.62569 0.9012   0.311645
 Cu 0.62431 0.55354 0.6512   0.311645
 Cu 0.30354 0.12569 0.4012   0.311645
 H 0.5583 0.5969 0.4352   0.050241
 H 0.1531 0.8083 0.6852   0.050241
 H 0.0583 0.0969 0.9352   0.050241
 H 0.6531 0.3083 0.1852   0.050241
 H 0.8469 0.6917 0.6852   0.050241
 H 0.9417 0.4031 0.9352   0.050241
 H 0.3469 0.1917 0.1852   0.050241
 H 0.4417 0.9031 0.4352   0.050241
 H 0.4417 0.4031 0.5648   0.050241
 H 0.8469 0.1917 0.3148   0.050241
 H 0.9417 0.9031 0.0648   0.050241
 H 0.3469 0.6917 0.8148   0.050241
 H 0.1531 0.3083 0.3148   0.050241
 H 0.0583 0.5969 0.0648   0.050241
 H 0.6531 0.8083 0.8148   0.050241
 H 0.5583 0.0969 0.5648   0.050241
 H 0.542 0.5185 0.3956   0.036583
 H 0.2315 0.792 0.6456   0.036583
 H 0.042 0.0185 0.8956   0.036583
 H 0.7315 0.292 0.1456   0.036583
 H 0.7685 0.708 0.6456   0.036583
 H 0.958 0.4815 0.8956   0.036583
 H 0.2685 0.208 0.1456   0.036583
 H 0.458 0.9815 0.3956   0.036583
 H 0.458 0.4815 0.6044   0.036583
 H 0.7685 0.208 0.3544   0.036583
 H 0.958 0.9815 0.1044   0.036583
 H 0.2685 0.708 0.8544   0.036583
 H 0.2315 0.292 0.3544   0.036583
 H 0.042 0.5185 0.1044   0.036583
 H 0.7315 0.792 0.8544   0.036583
 H 0.542 0.0185 0.6044   0.036583
 H 0.2611 0.4385 0.4716   0.042982
 H 0.3115 0.5111 0.7216   0.042982
 H 0.7611 0.9385 0.9716   0.042982
 H 0.8115 0.0111 0.2216   0.042982
 H 0.6885 0.9889 0.7216   0.042982
 H 0.2389 0.5615 0.9716   0.042982
 H 0.1885 0.4889 0.2216   0.042982
 H 0.7389 0.0615 0.4716   0.042982
 H 0.7389 0.5615 0.5284   0.042982
 H 0.6885 0.4889 0.2784   0.042982
 H 0.2389 0.0615 0.0284   0.042982
 H 0.1885 0.9889 0.7784   0.042982
 H 0.3115 0.0111 0.2784   0.042982
 H 0.7611 0.4385 0.0284   0.042982
 H 0.8115 0.5111 0.7784   0.042982
 H 0.2611 0.9385 0.5284   0.042982
 H 0.2321 0.5047 0.5233   0.062862
 H 0.2453 0.4821 0.7733   0.062862
 H 0.7321 0.0047 0.0233   0.062862
 H 0.7453 0.9821 0.2733   0.062862
 H 0.7547 0.0179 0.7733   0.062862
 H 0.2679 0.4953 0.0233   0.062862
 H 0.2547 0.5179 0.2733   0.062862
 H 0.7679 0.9953 0.5233   0.062862
 H 0.7679 0.4953 0.4767   0.062862
 H 0.7547 0.5179 0.2267   0.062862
 H 0.2679 0.9953 0.9767   0.062862
 H 0.2547 0.0179 0.7267   0.062862
 H 0.2453 0.9821 0.2267   0.062862
 H 0.7321 0.5047 0.9767   0.062862
 H 0.7453 0.4821 0.7267   0.062862
 H 0.2321 0.0047 0.4767   0.062862
 H 0.5515 0.614 0.3178   0.408371
 H 0.136 0.8015 0.5678   0.408371
 H 0.0515 0.114 0.8178   0.408371
 H 0.636 0.3015 0.0678   0.408371
 H 0.864 0.6985 0.5678   0.408371
 H 0.9485 0.386 0.8178   0.408371
 H 0.364 0.1985 0.0678   0.408371
 H 0.4485 0.886 0.3178   0.408371
 H 0.4485 0.386 0.6822   0.408371
 H 0.864 0.1985 0.4322   0.408371
 H 0.9485 0.886 0.1822   0.408371
 H 0.364 0.6985 0.9322   0.408371
 H 0.136 0.3015 0.4322   0.40837
 H 0.0515 0.614 0.1822   0.40837
 H 0.636 0.8015 0.9322   0.40837
 H 0.5515 0.114 0.6822   0.40837
 H 0.1686 0.5059 0.4217   0.410838
 H 0.2441 0.4186 0.6717   0.410838
 H 0.6686 0.0059 0.9217   0.410838
 H 0.7441 0.9186 0.1717   0.410838
 H 0.7559 0.0814 0.6717   0.410838
 H 0.3314 0.4941 0.9217   0.410838
 H 0.2559 0.5814 0.1717   0.410838
 H 0.8314 0.9941 0.4217   0.410838
 H 0.8314 0.4941 0.5783   0.410838
 H 0.7559 0.5814 0.3283   0.410838
 H 0.3314 0.9941 0.0783   0.410838
 H 0.2559 0.0814 0.8283   0.410838
 H 0.2441 0.9186 0.3283   0.410838
 H 0.6686 0.5059 0.0783   0.410838
 H 0.7441 0.4186 0.8283   0.410838
 H 0.1686 0.0059 0.5783   0.410838
 C 0.5212 0.5694 0.4057   0.096014
 C 0.1806 0.7712 0.6557   0.096014
 C 0.0212 0.0694 0.9057   0.096014
 C 0.6806 0.2712 0.1557   0.096014
 C 0.8194 0.7288 0.6557   0.096014
 C 0.9788 0.4306 0.9057   0.096014
 C 0.3194 0.2288 0.1557   0.096014
 C 0.4788 0.9306 0.4057   0.096014
 C 0.4788 0.4306 0.5943   0.096014
 C 0.8194 0.2288 0.3443   0.096014
 C 0.9788 0.9306 0.0943   0.096014
 C 0.3194 0.7288 0.8443   0.096014
 C 0.1806 0.2712 0.3443   0.096014
 C 0.0212 0.5694 0.0943   0.096014
 C 0.6806 0.7712 0.8443   0.096014
 C 0.5212 0.0694 0.5943   0.096014
 C 0.2559 0.494 0.4771   0.086748
 C 0.256 0.5059 0.7271   0.086748
 C 0.7559 0.994 0.9771   0.086748
 C 0.756 0.0059 0.2271   0.086748
 C 0.744 0.9941 0.7271   0.086748
 C 0.2441 0.506 0.9771   0.086748
 C 0.244 0.4941 0.2271   0.086748
 C 0.7441 0.006 0.4771   0.086748
 C 0.7441 0.506 0.5229   0.086748
 C 0.744 0.4941 0.2729   0.086748
 C 0.2441 0.006 0.0229   0.086748
 C 0.244 0.9941 0.7729   0.086748
 C 0.256 0.0059 0.2729   0.086748
 C 0.7559 0.494 0.0229   0.086748
 C 0.756 0.5059 0.7729   0.086748
 C 0.2559 0.994 0.5229   0.086748
 C 0.4483 0.5616 0.4452   0.319584
 C 0.1884 0.6983 0.6952   0.319584
 C 0.9483 0.0616 0.9452   0.319584
 C 0.6884 0.1983 0.1952   0.319584
 C 0.8116 0.8017 0.6952   0.319584
 C 0.0517 0.4384 0.9452   0.319584
 C 0.3116 0.3017 0.1952   0.319584
 C 0.5517 0.9384 0.4452   0.319584
 C 0.5517 0.4384 0.5548   0.319584
 C 0.8116 0.3017 0.3048   0.319584
 C 0.0517 0.9384 0.0548   0.319584
 C 0.3116 0.8017 0.8048   0.319584
 C 0.1884 0.1983 0.3048   0.319584
 C 0.9483 0.5616 0.0548   0.319584
 C 0.6884 0.6983 0.8048   0.319584
 C 0.4483 0.0616 0.5548   0.319584
 C 0.3325 0.5328 0.4713   0.344053
 C 0.2172 0.5825 0.7213   0.344053
 C 0.8325 0.0328 0.9713   0.344053
 C 0.7172 0.0825 0.2213   0.344053
 C 0.7828 0.9175 0.7213   0.344053
 C 0.1675 0.4672 0.9713   0.344053
 C 0.2828 0.4175 0.2213   0.344053
 C 0.6675 0.9672 0.4713   0.344053
 C 0.6675 0.4672 0.5287   0.344053
 C 0.7828 0.4175 0.2787   0.344053
 C 0.1675 0.9672 0.0287   0.344053
 C 0.2828 0.9175 0.7787   0.344053
 C 0.2172 0.0825 0.2787   0.344053
 C 0.8325 0.5328 0.0287   0.344053
 C 0.7172 0.5825 0.7787   0.344053
 C 0.3325 0.0328 0.5287   0.344053
 I 0.62767 0.70682 0.54699   -0.250592
 I 0.04318 0.87767 0.79699   -0.250592
 I 0.12767 0.20682 0.04699   -0.250592
 I 0.54318 0.37767 0.29699   -0.250592
 I 0.95682 0.62233 0.79699   -0.250592
 I 0.87233 0.29318 0.04699   -0.250592
 I 0.45682 0.12233 0.29699   -0.250592
 I 0.37233 0.79318 0.54699   -0.250592
 I 0.37233 0.29318 0.45301   -0.250592
 I 0.95682 0.12233 0.20301   -0.250592
 I 0.87233 0.79318 0.95301   -0.250592
 I 0.45682 0.62233 0.70301   -0.250592
 I 0.04318 0.37767 0.20301   -0.250592
 I 0.12767 0.70682 0.95301   -0.250592
 I 0.54318 0.87767 0.70301   -0.250592
 I 0.62767 0.20682 0.45301   -0.250592
 N 0.4312 0.6024 0.5039   -0.161683
 N 0.1476 0.6812 0.7539   -0.161683
 N 0.9312 0.1024 0.0039   -0.161683
 N 0.6476 0.1812 0.2539   -0.161683
 N 0.8524 0.8188 0.7539   -0.161683
 N 0.0688 0.3976 0.0039   -0.161683
 N 0.3524 0.3188 0.2539   -0.161683
 N 0.5688 0.8976 0.5039   -0.161683
 N 0.5688 0.3976 0.4961   -0.161683
 N 0.8524 0.3188 0.2461   -0.161683
 N 0.0688 0.8976 0.9961   -0.161683
 N 0.3524 0.8188 0.7461   -0.161683
 N 0.1476 0.1812 0.2461   -0.161683
 N 0.9312 0.6024 0.9961   -0.161683
 N 0.6476 0.6812 0.7461   -0.161683
 N 0.4312 0.1024 0.4961   -0.161683
 N 0.356 0.5818 0.5207   -0.263008
 N 0.1682 0.606 0.7707   -0.263008
 N 0.856 0.0818 0.0207   -0.263008
 N 0.6682 0.106 0.2707   -0.263008
 N 0.8318 0.894 0.7707   -0.263008
 N 0.144 0.4182 0.0207   -0.263008
 N 0.3318 0.394 0.2707   -0.263008
 N 0.644 0.9182 0.5207   -0.263008
 N 0.644 0.4182 0.4793   -0.263008
 N 0.8318 0.394 0.2293   -0.263008
 N 0.144 0.9182 0.9793   -0.263008
 N 0.3318 0.894 0.7293   -0.263008
 N 0.1682 0.106 0.2293   -0.263008
 N 0.856 0.5818 0.9793   -0.263008
 N 0.6682 0.606 0.7293   -0.263008
 N 0.356 0.0818 0.4793   -0.263008
 N 0.3883 0.5171 0.4245   -0.414262
 N 0.2329 0.6383 0.6745   -0.414262
 N 0.8883 0.0171 0.9245   -0.414262
 N 0.7329 0.1383 0.1745   -0.414262
 N 0.7671 0.8617 0.6745   -0.414262
 N 0.1117 0.4829 0.9245   -0.414262
 N 0.2671 0.3617 0.1745   -0.414262
 N 0.6117 0.9829 0.4245   -0.414262
 N 0.6117 0.4829 0.5755   -0.414262
 N 0.7671 0.3617 0.3255   -0.414262
 N 0.1117 0.9829 0.0755   -0.414262
 N 0.2671 0.8617 0.8255   -0.414262
 N 0.2329 0.1383 0.3255   -0.414262
 N 0.8883 0.5171 0.0755   -0.414262
 N 0.7329 0.6383 0.8255   -0.414262
 N 0.3883 0.0171 0.5755   -0.414262
 O 0.5101 0.6106 0.3391   -0.606408
 O 0.1394 0.7601 0.5891   -0.606408
 O 0.0101 0.1106 0.8391   -0.606408
 O 0.6394 0.2601 0.0891   -0.606408
 O 0.8606 0.7399 0.5891   -0.606408
 O 0.9899 0.3894 0.8391   -0.606408
 O 0.3606 0.2399 0.0891   -0.606408
 O 0.4899 0.8894 0.3391   -0.606408
 O 0.4899 0.3894 0.6609   -0.606408
 O 0.8606 0.2399 0.4109   -0.606408
 O 0.9899 0.8894 0.1609   -0.606408
 O 0.3606 0.7399 0.9109   -0.606408
 O 0.1394 0.2601 0.4109   -0.606408
 O 0.0101 0.6106 0.1609   -0.606408
 O 0.6394 0.7601 0.9109   -0.606408
 O 0.5101 0.1106 0.6609   -0.606408
 O 0.2119 0.5251 0.4212   -0.593438
 O 0.2249 0.4619 0.6712   -0.593438
 O 0.7119 0.0251 0.9212   -0.593438
 O 0.7249 0.9619 0.1712   -0.593438
 O 0.7751 0.0381 0.6712   -0.593438
 O 0.2881 0.4749 0.9212   -0.593438
 O 0.2751 0.5381 0.1712   -0.593438
 O 0.7881 0.9749 0.4212   -0.593438
 O 0.7881 0.4749 0.5788   -0.593438
 O 0.7751 0.5381 0.3288   -0.593438
 O 0.2881 0.9749 0.0788   -0.593438
 O 0.2751 0.0381 0.8288   -0.593438
 O 0.2249 0.9619 0.3288   -0.593438
 O 0.7119 0.5251 0.0788   -0.593438
 O 0.7249 0.4619 0.8288   -0.593438
 O 0.2119 0.0251 0.5788   -0.593438
