{'_ref': 'TBD', '_srcid': 'CAKYAQ_clean', 'submitters': [{'name': 'Dalar Nazarian Jeff Camp and David Sholl', 'email': 'dalar@gatech.edu jcamp6@gatech.edu'}], '_method': 'VASP DFT with PBE;DDEC'}
data_Cd3H26C28(NO6)2
_symmetry_space_group_name_H-M   'P 1'
_cell_length_a   8.96899987
_cell_length_b   9.41900052
_cell_length_c   17.29000000
_cell_angle_alpha   100.46800143
_cell_angle_beta   92.75399833
_cell_angle_gamma   117.70199922
_symmetry_Int_Tables_number   1
_chemical_formula_structural   Cd3H26C28(NO6)2
_chemical_formula_sum   'Cd3 H26 C28 N2 O12'
_cell_volume   1256.88090385
_cell_formula_units_Z   1
loop_
 _symmetry_equiv_pos_site_id
 _symmetry_equiv_pos_as_xyz
  1  'x, y, z'
loop_
 _atom_site_label
 _atom_site_fract_x
 _atom_site_fract_y
 _atom_site_fract_z
 _atom_site_charge
 Cd 0.45725 0.84964 0.79928   1.001886
 Cd 0.54275 0.15036 0.20072   1.001886
 Cd 0.5 0.0 0.0   1.201004
 H 0.251 0.449 0.992   0.09412
 H 0.4476 0.4131 0.9125   0.081245
 H 0.3135 0.3515 0.8357   0.07209
 H 0.297 0.179 0.965   0.093409
 H 0.015 0.9706 0.884   0.082602
 H 0.0391 0.0668 0.8164   0.075359
 H 0.975 0.166 0.964   0.094134
 H 0.9906 0.4004 0.9342   0.080867
 H 0.0281 0.3455 0.8494   0.077367
 H 0.2332 0.5028 0.6922   0.095376
 H 0.0514 0.3547 0.5757   0.132314
 H 0.1136 0.7739 0.5291   0.131193
 H 0.2932 0.9119 0.6471   0.099631
 H 0.749 0.551 0.008   0.094122
 H 0.5524 0.5869 0.0875   0.081245
 H 0.6865 0.6485 0.1643   0.07209
 H 0.703 0.821 0.035   0.093409
 H 0.985 0.0294 0.116   0.082603
 H 0.9609 0.9332 0.1836   0.075359
 H 0.025 0.834 0.036   0.094134
 H 0.0094 0.5996 0.0658   0.080867
 H 0.9719 0.6545 0.1506   0.077367
 H 0.7668 0.4972 0.3078   0.095376
 H 0.9486 0.6453 0.4243   0.132316
 H 0.8864 0.2261 0.4709   0.131196
 H 0.7068 0.0881 0.3529   0.099631
 C 0.3112 0.6162 0.9249   0.732026
 C 0.2363 0.4402 0.9359   -0.178908
 C 0.3268 0.3526 0.8918   -0.100632
 C 0.2537 0.1756 0.9019   -0.194747
 C 0.3302 0.0821 0.852   0.724987
 C 0.0605 0.0797 0.8735   -0.101774
 C 0.9685 0.167 0.9148   -0.118633
 C 0.7811 0.0646 0.8809   0.683786
 C 0.0467 0.3458 0.9052   -0.115688
 C 0.2085 0.5592 0.6591   0.184528
 C 0.0986 0.4688 0.5887   -0.189786
 C 0.0589 0.5458 0.5382   0.097706
 C 0.1353 0.7149 0.5616   -0.197808
 C 0.2437 0.7976 0.6328   0.186848
 C 0.6888 0.3838 0.0751   0.732026
 C 0.7637 0.5598 0.0641   -0.178908
 C 0.6732 0.6474 0.1082   -0.100632
 C 0.7463 0.8244 0.0981   -0.194747
 C 0.6698 0.9179 0.148   0.724987
 C 0.9395 0.9203 0.1265   -0.101774
 C 0.0315 0.833 0.0852   -0.118632
 C 0.2189 0.9354 0.1191   0.683786
 C 0.9533 0.6542 0.0948   -0.115688
 C 0.7915 0.4408 0.3409   0.184528
 C 0.9014 0.5312 0.4113   -0.189786
 C 0.9411 0.4542 0.4618   0.097705
 C 0.8647 0.2851 0.4384   -0.197808
 C 0.7563 0.2024 0.3672   0.186848
 N 0.2806 0.7214 0.6821   -0.338959
 N 0.7194 0.2786 0.3179   -0.338959
 O 0.3188 0.6339 0.8548   -0.660185
 O 0.3597 0.728 0.9867   -0.623486
 O 0.7292 0.0728 0.8138   -0.606899
 O 0.6841 0.9626 0.9178   -0.669828
 O 0.3587 0.0972 0.7843   -0.627295
 O 0.3516 0.9792 0.8834   -0.697353
 O 0.6812 0.3661 0.1452   -0.660185
 O 0.6403 0.272 0.0133   -0.623486
 O 0.2708 0.9272 0.1862   -0.606899
 O 0.3159 0.0374 0.0822   -0.669828
 O 0.6413 0.9028 0.2157   -0.627295
 O 0.6484 0.0208 0.1166   -0.697353
