{'_ref': 'TBD', '_srcid': 'CAKYAQ_clean', 'submitters': [{'name': 'Dalar Nazarian Jeff Camp and David Sholl', 'email': 'dalar@gatech.edu jcamp6@gatech.edu'}], '_method': 'VASP DFT with PBE;DDEC'}
data_Cu4MoH28C28(S2N3)2
_symmetry_space_group_name_H-M   'P 1'
_cell_length_a   9.67009953
_cell_length_b   11.74200000
_cell_length_c   18.85200000
_cell_angle_alpha   90.00000000
_cell_angle_beta   97.90999908
_cell_angle_gamma   90.00000000
_symmetry_Int_Tables_number   1
_chemical_formula_structural   Cu4MoH28C28(S2N3)2
_chemical_formula_sum   'Cu8 Mo2 H56 C56 S8 N12'
_cell_volume   2120.20842885
_cell_formula_units_Z   2
loop_
 _symmetry_equiv_pos_site_id
 _symmetry_equiv_pos_as_xyz
  1  'x, y, z'
loop_
 _atom_site_label
 _atom_site_fract_x
 _atom_site_fract_y
 _atom_site_fract_z
 _atom_site_charge
 Cu 0.96186 0.62483 0.88966   0.281067
 Cu 0.27939 0.62714 0.78959   0.324662
 Cu 0.03814 0.62483 0.61034   0.281067
 Cu 0.72061 0.62714 0.71041   0.324633
 Cu 0.03814 0.37517 0.11034   0.281038
 Cu 0.72061 0.37286 0.21041   0.324661
 Cu 0.96186 0.37517 0.38966   0.281038
 Cu 0.27939 0.37286 0.28959   0.324632
 Mo 0.0 0.62719 0.75   0.700808
 Mo 0.0 0.37281 0.25   0.700818
 H 0.5713 0.557 0.854   0.084292
 H 0.6878 0.4279 0.9327   0.115898
 H 0.3167 0.3055 0.9682   0.100476
 H 0.2076 0.442 0.892   0.049547
 H 0.5264 0.2404 0.0447   0.097877
 H 0.6744 0.2944 0.0349   0.087408
 H 0.6832 0.176 0.9336   0.067879
 H 0.5376 0.1201 0.9461   0.060102
 H 0.6379 0.0438 0.0546   0.109471
 H 0.7814 0.1075 0.0488   0.10091
 H 0.9051 0.9265 0.0704   0.137995
 H 0.9861 0.7651 0.0226   0.076715
 H 0.7117 0.8018 0.8482   0.085904
 H 0.6228 0.9591 0.8952   0.132537
 H 0.4287 0.557 0.646   0.084292
 H 0.3122 0.4279 0.5673   0.115898
 H 0.6833 0.3055 0.5318   0.100476
 H 0.7924 0.442 0.608   0.049547
 H 0.4736 0.2404 0.4553   0.097876
 H 0.3256 0.2944 0.4651   0.087408
 H 0.3168 0.176 0.5664   0.067879
 H 0.4624 0.1201 0.5539   0.060101
 H 0.3621 0.0438 0.4454   0.109471
 H 0.2186 0.1075 0.4512   0.10091
 H 0.0949 0.9265 0.4296   0.137994
 H 0.0139 0.7651 0.4774   0.076715
 H 0.2883 0.8018 0.6518   0.085908
 H 0.3772 0.9591 0.6048   0.132536
 H 0.4287 0.443 0.146   0.084292
 H 0.3122 0.5721 0.0673   0.115898
 H 0.6833 0.6945 0.0318   0.100476
 H 0.7924 0.558 0.108   0.049545
 H 0.4736 0.7596 0.9553   0.097877
 H 0.3256 0.7056 0.9651   0.087408
 H 0.3168 0.824 0.0664   0.067879
 H 0.4624 0.8799 0.0539   0.060102
 H 0.3621 0.9562 0.9454   0.109472
 H 0.2186 0.8925 0.9512   0.10091
 H 0.0949 0.0735 0.9296   0.137994
 H 0.0139 0.2349 0.9774   0.076714
 H 0.2883 0.1982 0.1518   0.085905
 H 0.3772 0.0409 0.1048   0.132537
 H 0.5713 0.443 0.354   0.084292
 H 0.6878 0.5721 0.4327   0.115898
 H 0.3167 0.6945 0.4682   0.100476
 H 0.2076 0.558 0.392   0.049546
 H 0.5264 0.7596 0.5447   0.097876
 H 0.6744 0.7056 0.5349   0.087408
 H 0.6832 0.824 0.4336   0.067879
 H 0.5376 0.8799 0.4461   0.060102
 H 0.6379 0.9562 0.5546   0.109472
 H 0.7814 0.8925 0.5488   0.10091
 H 0.9051 0.0735 0.5704   0.137994
 H 0.9861 0.2349 0.5226   0.076714
 H 0.7117 0.1982 0.3482   0.085908
 H 0.6228 0.0409 0.3952   0.132537
 C 0.4453 0.6991 0.7599   -0.459788
 C 0.5181 0.5046 0.8775   0.177709
 C 0.5886 0.4275 0.9245   -0.237385
 C 0.5152 0.3504 0.9593   0.165394
 C 0.3719 0.3572 0.9454   -0.228621
 C 0.3067 0.4376 0.8989   0.135029
 C 0.5878 0.2613 0.0089   -0.190205
 C 0.6244 0.155 0.9707   -0.076763
 C 0.7011 0.0687 0.0205   -0.199523
 C 0.7545 0.9651 0.9876   0.169342
 C 0.8636 0.902 0.0243   -0.237695
 C 0.912 0.8056 0.9954   0.136583
 C 0.7521 0.8265 0.8944   0.187215
 C 0.6998 0.9215 0.922   -0.232904
 C 0.5547 0.6991 0.7401   -0.459628
 C 0.4819 0.5046 0.6225   0.177707
 C 0.4114 0.4275 0.5755   -0.237385
 C 0.4848 0.3504 0.5407   0.165394
 C 0.6281 0.3572 0.5546   -0.228621
 C 0.6933 0.4376 0.6011   0.135029
 C 0.4122 0.2613 0.4911   -0.190205
 C 0.3756 0.155 0.5293   -0.076763
 C 0.2989 0.0687 0.4795   -0.199523
 C 0.2455 0.9651 0.5124   0.169342
 C 0.1364 0.902 0.4757   -0.237694
 C 0.088 0.8056 0.5046   0.136583
 C 0.2479 0.8265 0.6056   0.187213
 C 0.3002 0.9215 0.578   -0.232903
 C 0.5547 0.3009 0.2401   -0.459788
 C 0.4819 0.4954 0.1225   0.177709
 C 0.4114 0.5725 0.0755   -0.237385
 C 0.4848 0.6496 0.0407   0.165394
 C 0.6281 0.6428 0.0546   -0.228621
 C 0.6933 0.5624 0.1011   0.13503
 C 0.4122 0.7387 0.9911   -0.190205
 C 0.3756 0.845 0.0293   -0.076763
 C 0.2989 0.9313 0.9795   -0.199524
 C 0.2455 0.0349 0.0124   0.169342
 C 0.1364 0.098 0.9757   -0.237694
 C 0.088 0.1944 0.0046   0.136581
 C 0.2479 0.1735 0.1056   0.187214
 C 0.3002 0.0785 0.078   -0.232904
 C 0.4453 0.3009 0.2599   -0.459628
 C 0.5181 0.4954 0.3775   0.177706
 C 0.5886 0.5725 0.4245   -0.237385
 C 0.5152 0.6496 0.4593   0.165394
 C 0.3719 0.6428 0.4454   -0.228621
 C 0.3067 0.5624 0.3989   0.135029
 C 0.5878 0.7387 0.5089   -0.190205
 C 0.6244 0.845 0.4707   -0.076763
 C 0.7011 0.9313 0.5205   -0.199523
 C 0.7545 0.0349 0.4876   0.169342
 C 0.8636 0.098 0.5243   -0.237694
 C 0.912 0.1944 0.4954   0.136581
 C 0.7521 0.1735 0.3944   0.187212
 C 0.6998 0.0785 0.422   -0.232903
 S 0.1184 0.7328 0.83622   -0.414113
 S 0.8468 0.52 0.79839   -0.408077
 S 0.8816 0.7328 0.66378   -0.41411
 S 0.1532 0.52 0.70161   -0.408081
 S 0.8816 0.2672 0.16378   -0.41411
 S 0.1532 0.48 0.20161   -0.408076
 S 0.1184 0.2672 0.33622   -0.414107
 S 0.8468 0.48 0.29839   -0.40808
 N 0.9962 0.5296 0.9749   -0.019945
 N 0.3792 0.5095 0.8632   -0.245505
 N 0.8598 0.7648 0.9297   -0.284019
 N 0.0038 0.5296 0.5251   -0.019945
 N 0.6208 0.5095 0.6368   -0.2455
 N 0.1402 0.7648 0.5703   -0.284019
 N 0.0038 0.4704 0.0251   -0.019804
 N 0.6208 0.4905 0.1368   -0.245504
 N 0.1402 0.2352 0.0703   -0.284014
 N 0.9962 0.4704 0.4749   -0.019804
 N 0.3792 0.4905 0.3632   -0.245499
 N 0.8598 0.2352 0.4297   -0.284014
