{'_ref': 'TBD', '_srcid': 'CAKYAQ_clean', 'submitters': [{'name': 'Dalar Nazarian Jeff Camp and David Sholl', 'email': 'dalar@gatech.edu jcamp6@gatech.edu'}], '_method': 'VASP DFT with PBE;DDEC'}
data_Cu4MoH28C28(S2N3)2
_symmetry_space_group_name_H-M   'P 1'
_cell_length_a   9.62500016
_cell_length_b   11.78000000
_cell_length_c   18.71400000
_cell_angle_alpha   90.00000000
_cell_angle_beta   98.17999990
_cell_angle_gamma   90.00000000
_symmetry_Int_Tables_number   1
_chemical_formula_structural   Cu4MoH28C28(S2N3)2
_chemical_formula_sum   'Cu8 Mo2 H56 C56 S8 N12'
_cell_volume   2100.25244866
_cell_formula_units_Z   2
loop_
 _symmetry_equiv_pos_site_id
 _symmetry_equiv_pos_as_xyz
  1  'x, y, z'
loop_
 _atom_site_label
 _atom_site_fract_x
 _atom_site_fract_y
 _atom_site_fract_z
 _atom_site_charge
 Cu 0.71963 0.36987 0.2111   0.280168
 Cu 0.03612 0.37256 0.10948   0.295876
 Cu 0.28037 0.36987 0.2889   0.280132
 Cu 0.96388 0.37256 0.39052   0.295876
 Cu 0.28037 0.63013 0.7889   0.280166
 Cu 0.96388 0.62744 0.89052   0.295839
 Cu 0.71963 0.63013 0.7111   0.280131
 Cu 0.03612 0.62744 0.60948   0.295839
 Mo 0.0 0.37149 0.25   0.681398
 Mo 0.0 0.62851 0.75   0.681411
 H 0.4272 0.4471 0.1497   0.039874
 H 0.3101 0.5783 0.0724   0.144637
 H 0.6834 0.6857 0.0278   0.117829
 H 0.7909 0.5544 0.1096   0.071728
 H 0.471 0.7585 0.9551   0.078237
 H 0.3233 0.702 0.9643   0.101118
 H 0.4555 0.8766 0.0566   0.055544
 H 0.3077 0.8203 0.0657   0.072712
 H 0.3614 0.9534 0.9462   0.093636
 H 0.2157 0.8907 0.9497   0.101518
 H 0.3637 0.0332 0.1089   0.125195
 H 0.2713 0.1936 0.1537   0.044294
 H 0.0225 0.2409 0.9731   0.085048
 H 0.089 0.0669 0.9271   0.143481
 H 0.5728 0.4471 0.3503   0.039875
 H 0.6899 0.5783 0.4276   0.144637
 H 0.3166 0.6857 0.4722   0.117829
 H 0.2091 0.5544 0.3904   0.071728
 H 0.529 0.7585 0.5449   0.078236
 H 0.6767 0.702 0.5357   0.101119
 H 0.5445 0.8766 0.4434   0.055544
 H 0.6923 0.8203 0.4343   0.072712
 H 0.6386 0.9534 0.5538   0.093635
 H 0.7843 0.8907 0.5503   0.101518
 H 0.6363 0.0332 0.3911   0.125194
 H 0.7287 0.1936 0.3463   0.044299
 H 0.9775 0.2409 0.5269   0.085048
 H 0.911 0.0669 0.5729   0.143481
 H 0.5728 0.5529 0.8503   0.039874
 H 0.6899 0.4217 0.9276   0.144637
 H 0.3166 0.3143 0.9722   0.117829
 H 0.2091 0.4456 0.8904   0.071725
 H 0.529 0.2415 0.0449   0.078237
 H 0.6767 0.298 0.0357   0.101119
 H 0.5445 0.1234 0.9434   0.055544
 H 0.6923 0.1797 0.9343   0.072713
 H 0.6386 0.0466 0.0538   0.093636
 H 0.7843 0.1093 0.0503   0.101518
 H 0.6363 0.9668 0.8911   0.125195
 H 0.7287 0.8064 0.8463   0.044295
 H 0.9775 0.7591 0.0269   0.085046
 H 0.911 0.9331 0.0729   0.143481
 H 0.4272 0.5529 0.6497   0.039875
 H 0.3101 0.4217 0.5724   0.144637
 H 0.6834 0.3143 0.5278   0.117829
 H 0.7909 0.4456 0.6096   0.071726
 H 0.471 0.2415 0.4551   0.078236
 H 0.3233 0.298 0.4643   0.10112
 H 0.4555 0.1234 0.5566   0.055544
 H 0.3077 0.1797 0.5657   0.072712
 H 0.3614 0.0466 0.4462   0.093636
 H 0.2157 0.1093 0.4497   0.101518
 H 0.3637 0.9668 0.6089   0.125195
 H 0.2713 0.8064 0.6537   0.0443
 H 0.0225 0.7591 0.4731   0.085046
 H 0.089 0.9331 0.4271   0.143481
 C 0.0017 0.4686 0.0243   -0.432304
 C 0.4809 0.4977 0.125   0.152799
 C 0.4097 0.5757 0.0789   -0.214493
 C 0.4843 0.6497 0.0424   0.159706
 C 0.6275 0.6385 0.0535   -0.223176
 C 0.6913 0.5587 0.1018   0.178637
 C 0.4093 0.7366 0.9908   -0.188192
 C 0.3695 0.8423 0.03   -0.073624
 C 0.2957 0.9287 0.9794   -0.196547
 C 0.2405 0.0336 0.0122   0.164579
 C 0.2906 0.0731 0.0798   -0.245409
 C 0.2359 0.1702 0.106   0.150112
 C 0.0898 0.1956 0.0024   0.156718
 C 0.1328 0.0935 0.9727   -0.244911
 C 0.9983 0.4686 0.4757   -0.432304
 C 0.5191 0.4977 0.375   0.152797
 C 0.5903 0.5757 0.4211   -0.214492
 C 0.5157 0.6497 0.4576   0.159706
 C 0.3725 0.6385 0.4465   -0.223176
 C 0.3087 0.5587 0.3982   0.178636
 C 0.5907 0.7366 0.5092   -0.188191
 C 0.6305 0.8423 0.47   -0.073624
 C 0.7043 0.9287 0.5206   -0.196547
 C 0.7595 0.0336 0.4878   0.164579
 C 0.7094 0.0731 0.4202   -0.245409
 C 0.7641 0.1702 0.394   0.150109
 C 0.9102 0.1956 0.4976   0.156718
 C 0.8672 0.0935 0.5273   -0.24491
 C 0.9983 0.5314 0.9757   -0.432117
 C 0.5191 0.5023 0.875   0.152799
 C 0.5903 0.4243 0.9211   -0.214493
 C 0.5157 0.3503 0.9576   0.159706
 C 0.3725 0.3615 0.9465   -0.223176
 C 0.3087 0.4413 0.8982   0.178637
 C 0.5907 0.2634 0.0092   -0.188192
 C 0.6305 0.1577 0.97   -0.073624
 C 0.7043 0.0713 0.0206   -0.196547
 C 0.7595 0.9664 0.9878   0.164579
 C 0.7094 0.9269 0.9202   -0.245409
 C 0.7641 0.8298 0.894   0.150111
 C 0.9102 0.8044 0.9976   0.156716
 C 0.8672 0.9065 0.0273   -0.24491
 C 0.0017 0.5314 0.5243   -0.432117
 C 0.4809 0.5023 0.625   0.152796
 C 0.4097 0.4243 0.5789   -0.214492
 C 0.4843 0.3503 0.5424   0.159706
 C 0.6275 0.3615 0.5535   -0.223176
 C 0.6913 0.4413 0.6018   0.178636
 C 0.4093 0.2634 0.4908   -0.188192
 C 0.3695 0.1577 0.53   -0.073624
 C 0.2957 0.0713 0.4794   -0.196547
 C 0.2405 0.9664 0.5122   0.164579
 C 0.2906 0.9269 0.5798   -0.245409
 C 0.2359 0.8298 0.606   0.150108
 C 0.0898 0.8044 0.5024   0.156716
 C 0.1328 0.9065 0.4727   -0.244909
 S 0.8804 0.26523 0.16362   -0.446273
 S 0.8474 0.4784 0.29901   -0.366134
 S 0.1196 0.26523 0.33638   -0.446268
 S 0.1526 0.4784 0.20099   -0.366128
 S 0.1196 0.73477 0.83638   -0.446269
 S 0.1526 0.5216 0.70099   -0.366132
 S 0.8804 0.73477 0.66362   -0.446265
 S 0.8474 0.5216 0.79901   -0.366127
 N 0.6198 0.4887 0.1374   -0.271807
 N 0.1368 0.2328 0.0684   -0.240668
 N 0.5542 0.2942 0.2409   -0.010776
 N 0.3802 0.4887 0.3626   -0.2718
 N 0.8632 0.2328 0.4316   -0.240668
 N 0.4458 0.2942 0.2591   -0.010581
 N 0.3802 0.5113 0.8626   -0.271806
 N 0.8632 0.7672 0.9316   -0.240662
 N 0.4458 0.7058 0.7591   -0.010776
 N 0.6198 0.5113 0.6374   -0.271799
 N 0.1368 0.7672 0.5684   -0.240662
 N 0.5542 0.7058 0.7409   -0.01058
