{'_ref': 'TBD', '_srcid': 'CAKYAQ_clean', 'submitters': [{'name': 'Dalar Nazarian Jeff Camp and David Sholl', 'email': 'dalar@gatech.edu jcamp6@gatech.edu'}], '_method': 'VASP DFT with PBE;DDEC'}
data_Zn3H22C30(NO6)2
_symmetry_space_group_name_H-M   'P 1'
_cell_length_a   8.95080045
_cell_length_b   9.08919983
_cell_length_c   19.80200000
_cell_angle_alpha   95.63999725
_cell_angle_beta   97.67999813
_cell_angle_gamma   118.24999891
_symmetry_Int_Tables_number   1
_chemical_formula_structural   Zn3H22C30(NO6)2
_chemical_formula_sum   'Zn3 H22 C30 N2 O12'
_cell_volume   1382.10358091
_cell_formula_units_Z   1
loop_
 _symmetry_equiv_pos_site_id
 _symmetry_equiv_pos_as_xyz
  1  'x, y, z'
loop_
 _atom_site_label
 _atom_site_fract_x
 _atom_site_fract_y
 _atom_site_fract_z
 _atom_site_charge
 Zn 0.31388 0.44292 0.77086   0.957444
 Zn 0.44 0.6149 0.93621   1.125432
 Zn 0.56632 0.78625 0.10176   0.949166
 H 0.3844 0.9954 0.8368   0.107977
 H 0.4908 0.0675 0.7793   0.125876
 H 0.775 0.0733 0.7782   0.116695
 H 0.8531 0.0052 0.8352   0.1027
 H 0.8436 0.45 0.886   0.110736
 H 0.7738 0.3486 0.8094   0.122809
 H 0.0377 0.7794 0.9854   0.116323
 H 0.1062 0.8744 0.063   0.119723
 H 0.4898 0.2388 0.0331   0.106146
 H 0.3956 0.1713 0.0939   0.113658
 H 0.1068 0.1561 0.0924   0.11325
 H 0.0343 0.2235 0.0339   0.104075
 H 0.9794 0.2086 0.6731   0.096198
 H 0.9376 0.0354 0.5652   0.130117
 H 0.3009 0.4419 0.5182   0.130101
 H 0.4145 0.5263 0.6345   0.08372
 H 0.0966 0.2532 0.4256   0.088629
 H 0.8259 0.0039 0.4521   0.079241
 H 0.596 0.7704 0.3538   0.132729
 H 0.4868 0.6682 0.2383   0.100302
 H 0.8442 0.102 0.1965   0.122239
 H 0.0164 0.127 0.3098   0.136427
 C 0.5024 0.3368 0.8596   0.696824
 C 0.5966 0.2358 0.8733   -0.075056
 C 0.5002 0.0587 0.828   -0.17432
 C 0.606 0.9662 0.8464   -0.047852
 C 0.511 0.7864 0.8042   0.65815
 C 0.7884 0.0646 0.8268   -0.209272
 C 0.8855 0.245 0.8733   -0.068604
 C 0.0638 0.3466 0.8615   0.697118
 C 0.7829 0.337 0.8578   -0.175223
 C 0.812 0.879 0.0116   0.685792
 C 0.000700000000002 0.9896 0.0012   -0.054896
 C 0.0995 0.8905 0.0152   -0.197432
 C 0.2802 0.9886 0.0014   -0.061049
 C 0.3763 0.8937 0.0166   0.70966
 C 0.3772 0.1754 0.0449   -0.220248
 C 0.2749 0.2653 0.0309   0.00097
 C 0.377 0.4428 0.0736   0.669332
 C 0.099 0.1644 0.0437   -0.197738
 C 0.059 0.238 0.6443   0.196775
 C 0.013 0.152 0.5766   -0.200576
 C 0.082 0.245 0.5266   0.135793
 C 0.237 0.382 0.5494   -0.232991
 C 0.303 0.434 0.6195   0.186839
 C 0.023 0.188 0.4527   -0.092266
 C 0.891 0.068 0.4223   -0.089776
 C 0.8 0.993 0.3457   0.108961
 C 0.651 0.835 0.322   -0.21153
 C 0.586 0.774 0.2527   0.160152
 C 0.806 0.023 0.2258   0.163761
 C 0.897 0.06 0.2973   -0.183501
 N 0.2183 0.3629 0.6663   -0.320789
 N 0.6593 0.863 0.2038   -0.346051
 O 0.4503 0.3377 0.7931   -0.67269
 O 0.4922 0.4198 0.9069   -0.563763
 O 0.455 0.7627 0.7383   -0.630116
 O 0.4303 0.6652 0.8329   -0.596738
 O 0.0917 0.3296 0.8005   -0.633133
 O 0.1768 0.4489 0.9125   -0.605967
 O 0.7051 0.7746 0.9612   -0.59354
 O 0.7862 0.9058 0.0721   -0.631717
 O 0.3841 0.807 0.9649   -0.633494
 O 0.446 0.9091 0.0759   -0.606097
 O 0.4479 0.5633 0.0395   -0.650097
 O 0.3489 0.478 0.1292   -0.585318
