{'_ref': 'TBD', '_srcid': 'CAKYAQ_clean', 'submitters': [{'name': 'Dalar Nazarian Jeff Camp and David Sholl', 'email': 'dalar@gatech.edu jcamp6@gatech.edu'}], '_method': 'VASP DFT with PBE;DDEC'}
data_LiH15C11O2
_symmetry_space_group_name_H-M   'P 1'
_cell_length_a   15.27480000
_cell_length_b   15.27480000
_cell_length_c   24.12900000
_cell_angle_alpha   90.00000000
_cell_angle_beta   90.00000000
_cell_angle_gamma   90.00000000
_symmetry_Int_Tables_number   1
_chemical_formula_structural   LiH15C11O2
_chemical_formula_sum   'Li16 H240 C176 O32'
_cell_volume   5629.7665784
_cell_formula_units_Z   16
loop_
 _symmetry_equiv_pos_site_id
 _symmetry_equiv_pos_as_xyz
  1  'x, y, z'
loop_
 _atom_site_label
 _atom_site_fract_x
 _atom_site_fract_y
 _atom_site_fract_z
 _atom_site_charge
 Li 0.0363 0.6731 0.91556   0.895413
 Li 0.0769 0.2863 0.16556   0.895413
 Li 0.5363 0.1731 0.41556   0.895413
 Li 0.5769 0.7863 0.66556   0.895413
 Li 0.9231 0.2137 0.16556   0.895413
 Li 0.4637 0.3269 0.41556   0.895413
 Li 0.4231 0.7137 0.66556   0.895413
 Li 0.9637 0.8269 0.91556   0.895413
 Li 0.9637 0.3269 0.08444   0.895413
 Li 0.9231 0.7137 0.83444   0.895413
 Li 0.4637 0.8269 0.58444   0.895413
 Li 0.4231 0.2137 0.33444   0.895413
 Li 0.0769 0.7863 0.83444   0.895413
 Li 0.5363 0.6731 0.58444   0.895413
 Li 0.5769 0.2863 0.33444   0.895413
 Li 0.0363 0.1731 0.08444   0.895413
 H 0.2905 0.8469 0.0455   0.104977
 H 0.9031 0.5405 0.2955   0.104977
 H 0.7905 0.3469 0.5455   0.104977
 H 0.4031 0.0405 0.7955   0.104977
 H 0.0969 0.9595 0.2955   0.104977
 H 0.2095 0.1531 0.5455   0.104977
 H 0.5969 0.4595 0.7955   0.104977
 H 0.7095 0.6531 0.0455   0.104977
 H 0.7095 0.1531 0.9545   0.104977
 H 0.0969 0.4595 0.7045   0.104977
 H 0.2095 0.6531 0.4545   0.104977
 H 0.5969 0.9595 0.2045   0.104977
 H 0.9031 0.0405 0.7045   0.104977
 H 0.7905 0.8469 0.4545   0.104977
 H 0.4031 0.5405 0.2045   0.104977
 H 0.2905 0.3469 0.9545   0.104977
 H 0.2634 0.0244 0.9244   0.103273
 H 0.7256 0.5134 0.1744   0.103273
 H 0.7634 0.5244 0.4244   0.103273
 H 0.2256 0.0134 0.6744   0.103273
 H 0.2744 0.9866 0.1744   0.103273
 H 0.2366 0.9756 0.4244   0.103273
 H 0.7744 0.4866 0.6744   0.103273
 H 0.7366 0.4756 0.9244   0.103273
 H 0.7366 0.9756 0.0756   0.103273
 H 0.2744 0.4866 0.8256   0.103273
 H 0.2366 0.4756 0.5756   0.103273
 H 0.7744 0.9866 0.3256   0.103273
 H 0.7256 0.0134 0.8256   0.103273
 H 0.7634 0.0244 0.5756   0.103273
 H 0.2256 0.5134 0.3256   0.103273
 H 0.2634 0.5244 0.0756   0.103273
 H 0.1122 0.7372 0.0342   0.091184
 H 0.0128 0.3622 0.2842   0.091184
 H 0.6122 0.2372 0.5342   0.091184
 H 0.5128 0.8622 0.7842   0.091184
 H 0.9872 0.1378 0.2842   0.091184
 H 0.3878 0.2628 0.5342   0.091184
 H 0.4872 0.6378 0.7842   0.091184
 H 0.8878 0.7628 0.0342   0.091184
 H 0.8878 0.2628 0.9658   0.091184
 H 0.9872 0.6378 0.7158   0.091184
 H 0.3878 0.7628 0.4658   0.091184
 H 0.4872 0.1378 0.2158   0.091184
 H 0.0128 0.8622 0.7158   0.091184
 H 0.6122 0.7372 0.4658   0.091184
 H 0.5128 0.3622 0.2158   0.091184
 H 0.1122 0.2372 0.9658   0.091184
 H 0.1686 0.683 0.9901   0.094101
 H 0.067 0.4186 0.2401   0.094101
 H 0.6686 0.183 0.4901   0.094101
 H 0.567 0.9186 0.7401   0.094101
 H 0.933 0.0814 0.2401   0.094101
 H 0.3314 0.317 0.4901   0.094101
 H 0.433 0.5814 0.7401   0.094101
 H 0.8314 0.817 0.9901   0.094101
 H 0.8314 0.317 0.0099   0.094101
 H 0.933 0.5814 0.7599   0.094101
 H 0.3314 0.817 0.5099   0.094101
 H 0.433 0.0814 0.2599   0.094101
 H 0.067 0.9186 0.7599   0.094101
 H 0.6686 0.683 0.5099   0.094101
 H 0.567 0.4186 0.2599   0.094101
 H 0.1686 0.183 0.0099   0.094101
 H 0.213 0.7161 0.0464   0.108703
 H 0.0339 0.463 0.2964   0.108703
 H 0.713 0.2161 0.5464   0.108703
 H 0.5339 0.963 0.7964   0.108703
 H 0.9661 0.037 0.2964   0.108703
 H 0.287 0.2839 0.5464   0.108703
 H 0.4661 0.537 0.7964   0.108703
 H 0.787 0.7839 0.0464   0.108703
 H 0.787 0.2839 0.9536   0.108703
 H 0.9661 0.537 0.7036   0.108703
 H 0.287 0.7839 0.4536   0.108703
 H 0.4661 0.037 0.2036   0.108703
 H 0.0339 0.963 0.7036   0.108703
 H 0.713 0.7161 0.4536   0.108703
 H 0.5339 0.463 0.2036   0.108703
 H 0.213 0.2161 0.9536   0.108703
 H 0.4172 0.984 0.9991   0.10737
 H 0.766 0.6672 0.2491   0.10737
 H 0.9172 0.484 0.4991   0.10737
 H 0.266 0.1672 0.7491   0.10737
 H 0.234 0.8328 0.2491   0.10737
 H 0.0828 0.016 0.4991   0.10737
 H 0.734 0.3328 0.7491   0.10737
 H 0.5828 0.516 0.9991   0.10737
 H 0.5828 0.016 0.000900000000001   0.10737
 H 0.234 0.3328 0.7509   0.10737
 H 0.0828 0.516 0.5009   0.10737
 H 0.734 0.8328 0.2509   0.10737
 H 0.766 0.1672 0.7509   0.10737
 H 0.9172 0.984 0.5009   0.10737
 H 0.266 0.6672 0.2509   0.10737
 H 0.4172 0.484 0.000900000000001   0.10737
 H 0.349 0.0622 0.0084   0.113245
 H 0.6878 0.599 0.2584   0.113245
 H 0.849 0.5622 0.5084   0.113245
 H 0.1878 0.099 0.7584   0.113245
 H 0.3122 0.901 0.2584   0.113245
 H 0.151 0.9378 0.5084   0.113245
 H 0.8122 0.401 0.7584   0.113245
 H 0.651 0.4378 0.0084   0.113245
 H 0.651 0.9378 0.9916   0.113245
 H 0.3122 0.401 0.7416   0.113245
 H 0.151 0.4378 0.4916   0.113245
 H 0.8122 0.901 0.2416   0.113245
 H 0.6878 0.099 0.7416   0.113245
 H 0.849 0.0622 0.4916   0.113245
 H 0.1878 0.599 0.2416   0.113245
 H 0.349 0.5622 0.9916   0.113245
 H 0.3624 0.9896 0.0555   0.109236
 H 0.7604 0.6124 0.3055   0.109236
 H 0.8624 0.4896 0.5555   0.109236
 H 0.2604 0.1124 0.8055   0.109236
 H 0.2396 0.8876 0.3055   0.109236
 H 0.1376 0.0104 0.5555   0.109236
 H 0.7396 0.3876 0.8055   0.109236
 H 0.6376 0.5104 0.0555   0.109236
 H 0.6376 0.0104 0.9445   0.109236
 H 0.2396 0.3876 0.6945   0.109236
 H 0.1376 0.5104 0.4445   0.109236
 H 0.7396 0.8876 0.1945   0.109236
 H 0.7604 0.1124 0.6945   0.109236
 H 0.8624 0.9896 0.4445   0.109236
 H 0.2604 0.6124 0.1945   0.109236
 H 0.3624 0.4896 0.9445   0.109236
 H 0.1623 0.9379 0.833   0.101244
 H 0.8121 0.4123 0.083   0.101244
 H 0.6623 0.4379 0.333   0.101244
 H 0.3121 0.9123 0.583   0.101244
 H 0.1879 0.0877 0.083   0.101244
 H 0.3377 0.0621 0.333   0.101244
 H 0.6879 0.5877 0.583   0.101244
 H 0.8377 0.5621 0.833   0.101244
 H 0.8377 0.0621 0.167   0.101244
 H 0.1879 0.5877 0.917   0.101244
 H 0.3377 0.5621 0.667   0.101244
 H 0.6879 0.0877 0.417   0.101244
 H 0.8121 0.9123 0.917   0.101244
 H 0.6623 0.9379 0.667   0.101244
 H 0.3121 0.4123 0.417   0.101244
 H 0.1623 0.4379 0.167   0.101244
 H 0.072 0.9408 0.8666   0.101816
 H 0.8092 0.322 0.1166   0.101816
 H 0.572 0.4408 0.3666   0.101816
 H 0.3092 0.822 0.6166   0.101816
 H 0.1908 0.178 0.1166   0.101816
 H 0.428 0.0592 0.3666   0.101816
 H 0.6908 0.678 0.6166   0.101816
 H 0.928 0.5592 0.8666   0.101816
 H 0.928 0.0592 0.1334   0.101816
 H 0.1908 0.678 0.8834   0.101816
 H 0.428 0.5592 0.6334   0.101816
 H 0.6908 0.178 0.3834   0.101816
 H 0.8092 0.822 0.8834   0.101816
 H 0.572 0.9408 0.6334   0.101816
 H 0.3092 0.322 0.3834   0.101816
 H 0.072 0.4408 0.1334   0.101816
 H 0.1361 0.0236 0.8673   0.114508
 H 0.7264 0.3861 0.1173   0.114508
 H 0.6361 0.5236 0.3673   0.114508
 H 0.2264 0.8861 0.6173   0.114508
 H 0.2736 0.1139 0.1173   0.114508
 H 0.3639 0.9764 0.3673   0.114508
 H 0.7736 0.6139 0.6173   0.114508
 H 0.8639 0.4764 0.8673   0.114508
 H 0.8639 0.9764 0.1327   0.114508
 H 0.2736 0.6139 0.8827   0.114508
 H 0.3639 0.4764 0.6327   0.114508
 H 0.7736 0.1139 0.3827   0.114508
 H 0.7264 0.8861 0.8827   0.114508
 H 0.6361 0.0236 0.6327   0.114508
 H 0.2264 0.3861 0.3827   0.114508
 H 0.1361 0.5236 0.1327   0.114508
 H 0.9401 0.4247 0.9523   0.061128
 H 0.3253 0.1901 0.2023   0.061128
 H 0.4401 0.9247 0.4523   0.061128
 H 0.8253 0.6901 0.7023   0.061128
 H 0.6747 0.3099 0.2023   0.061128
 H 0.5599 0.5753 0.4523   0.061128
 H 0.1747 0.8099 0.7023   0.061128
 H 0.0599 0.0753 0.9523   0.061128
 H 0.0599 0.5753 0.0477   0.061128
 H 0.6747 0.8099 0.7977   0.061128
 H 0.5599 0.0753 0.5477   0.061128
 H 0.1747 0.3099 0.2977   0.061128
 H 0.3253 0.6901 0.7977   0.061128
 H 0.4401 0.4247 0.5477   0.061128
 H 0.8253 0.1901 0.2977   0.061128
 H 0.9401 0.9247 0.0477   0.061128
 H 0.016 0.3578 0.9696   0.075273
 H 0.3922 0.266 0.2196   0.075273
 H 0.516 0.8578 0.4696   0.075273
 H 0.8922 0.766 0.7196   0.075273
 H 0.6078 0.234 0.2196   0.075273
 H 0.484 0.6422 0.4696   0.075273
 H 0.1078 0.734 0.7196   0.075273
 H 0.984 0.1422 0.9696   0.075273
 H 0.984 0.6422 0.0304   0.075273
 H 0.6078 0.734 0.7804   0.075273
 H 0.484 0.1422 0.5304   0.075273
 H 0.1078 0.234 0.2804   0.075273
 H 0.3922 0.766 0.7804   0.075273
 H 0.516 0.3578 0.5304   0.075273
 H 0.8922 0.266 0.2804   0.075273
 H 0.016 0.8578 0.0304   0.075273
 H 0.9252 0.5245 0.082   0.087073
 H 0.2255 0.1752 0.332   0.087073
 H 0.4252 0.0245 0.582   0.087073
 H 0.7255 0.6752 0.832   0.087073
 H 0.7745 0.3248 0.332   0.087073
 H 0.5748 0.4755 0.582   0.087073
 H 0.2745 0.8248 0.832   0.087073
 H 0.0748 0.9755 0.082   0.087073
 H 0.0748 0.4755 0.918   0.087073
 H 0.7745 0.8248 0.668   0.087073
 H 0.5748 0.9755 0.418   0.087073
 H 0.2745 0.3248 0.168   0.087073
 H 0.2255 0.6752 0.668   0.087073
 H 0.4252 0.5245 0.418   0.087073
 H 0.7255 0.1752 0.168   0.087073
 H 0.9252 0.0245 0.918   0.087073
 H 0.8843 0.5258 0.0208   0.038737
 H 0.2242 0.1343 0.2708   0.038737
 H 0.3843 0.0258 0.5208   0.038737
 H 0.7242 0.6343 0.7708   0.038737
 H 0.7758 0.3657 0.2708   0.038737
 H 0.6157 0.4742 0.5208   0.038737
 H 0.2758 0.8657 0.7708   0.038737
 H 0.1157 0.9742 0.0208   0.038737
 H 0.1157 0.4742 0.9792   0.038737
 H 0.7758 0.8657 0.7292   0.038737
 H 0.6157 0.9742 0.4792   0.038737
 H 0.2758 0.3657 0.2292   0.038737
 H 0.2242 0.6343 0.7292   0.038737
 H 0.3843 0.5258 0.4792   0.038737
 H 0.7242 0.1343 0.2292   0.038737
 H 0.8843 0.0258 0.9792   0.038737
 C 0.15291 0.84176 0.94041   0.293733
 C 0.90824 0.40291 0.19041   0.293733
 C 0.65291 0.34176 0.44041   0.293733
 C 0.40824 0.90291 0.69041   0.293733
 C 0.09176 0.09709 0.19041   0.293733
 C 0.34709 0.15824 0.44041   0.293733
 C 0.59176 0.59709 0.69041   0.293733
 C 0.84709 0.65824 0.94041   0.293733
 C 0.84709 0.15824 0.05959   0.293733
 C 0.09176 0.59709 0.80959   0.293733
 C 0.34709 0.65824 0.55959   0.293733
 C 0.59176 0.09709 0.30959   0.293733
 C 0.90824 0.90291 0.80959   0.293733
 C 0.65291 0.84176 0.55959   0.293733
 C 0.40824 0.40291 0.30959   0.293733
 C 0.15291 0.34176 0.05959   0.293733
 C 0.19627 0.81431 0.98949   -0.0034
 C 0.93569 0.44627 0.23949   -0.0034
 C 0.69627 0.31431 0.48949   -0.0034
 C 0.43569 0.94627 0.73949   -0.0034
 C 0.06431 0.05373 0.23949   -0.0034
 C 0.30373 0.18569 0.48949   -0.0034
 C 0.56431 0.55373 0.73949   -0.0034
 C 0.80373 0.68569 0.98949   -0.0034
 C 0.80373 0.18569 0.01051   -0.0034
 C 0.06431 0.55373 0.76051   -0.0034
 C 0.30373 0.68569 0.51051   -0.0034
 C 0.56431 0.05373 0.26051   -0.0034
 C 0.93569 0.94627 0.76051   -0.0034
 C 0.69627 0.81431 0.51051   -0.0034
 C 0.43569 0.44627 0.26051   -0.0034
 C 0.19627 0.31431 0.01051   -0.0034
 C 0.26246 0.8664 0.01261   -0.241296
 C 0.8836 0.51246 0.26261   -0.241296
 C 0.76246 0.3664 0.51261   -0.241296
 C 0.3836 0.01246 0.76261   -0.241296
 C 0.1164 0.98754 0.26261   -0.241296
 C 0.23754 0.1336 0.51261   -0.241296
 C 0.6164 0.48754 0.76261   -0.241296
 C 0.73754 0.6336 0.01261   -0.241296
 C 0.73754 0.1336 0.98739   -0.241296
 C 0.1164 0.48754 0.73739   -0.241296
 C 0.23754 0.6336 0.48739   -0.241296
 C 0.6164 0.98754 0.23739   -0.241296
 C 0.8836 0.01246 0.73739   -0.241296
 C 0.76246 0.8664 0.48739   -0.241296
 C 0.3836 0.51246 0.23739   -0.241296
 C 0.26246 0.3664 0.98739   -0.241296
 C 0.28848 0.94479 0.98959   0.106436
 C 0.80521 0.53848 0.23959   0.106436
 C 0.78848 0.44479 0.48959   0.106436
 C 0.30521 0.03848 0.73959   0.106436
 C 0.19479 0.96152 0.23959   0.106436
 C 0.21152 0.05521 0.48959   0.106436
 C 0.69479 0.46152 0.73959   0.106436
 C 0.71152 0.55521 0.98959   0.106436
 C 0.71152 0.05521 0.01041   0.106436
 C 0.19479 0.46152 0.76041   0.106436
 C 0.21152 0.55521 0.51041   0.106436
 C 0.69479 0.96152 0.26041   0.106436
 C 0.80521 0.03848 0.76041   0.106436
 C 0.78848 0.94479 0.51041   0.106436
 C 0.30521 0.53848 0.26041   0.106436
 C 0.28848 0.44479 0.01041   0.106436
 C 0.2459 0.97107 0.94141   -0.23764
 C 0.77893 0.4959 0.19141   -0.23764
 C 0.7459 0.47107 0.44141   -0.23764
 C 0.27893 0.9959 0.69141   -0.23764
 C 0.22107 0.0041 0.19141   -0.23764
 C 0.2541 0.02893 0.44141   -0.23764
 C 0.72107 0.5041 0.69141   -0.23764
 C 0.7541 0.52893 0.94141   -0.23764
 C 0.7541 0.02893 0.05859   -0.23764
 C 0.22107 0.5041 0.80859   -0.23764
 C 0.2541 0.52893 0.55859   -0.23764
 C 0.72107 0.0041 0.30859   -0.23764
 C 0.77893 0.9959 0.80859   -0.23764
 C 0.7459 0.97107 0.55859   -0.23764
 C 0.27893 0.4959 0.30859   -0.23764
 C 0.2459 0.47107 0.05859   -0.23764
 C 0.17917 0.92304 0.91704   -0.016102
 C 0.82696 0.42917 0.16704   -0.016102
 C 0.67917 0.42304 0.41704   -0.016102
 C 0.32696 0.92917 0.66704   -0.016102
 C 0.17304 0.07083 0.16704   -0.016102
 C 0.32083 0.07696 0.41704   -0.016102
 C 0.67304 0.57083 0.66704   -0.016102
 C 0.82083 0.57696 0.91704   -0.016102
 C 0.82083 0.07696 0.08296   -0.016102
 C 0.17304 0.57083 0.83296   -0.016102
 C 0.32083 0.57696 0.58296   -0.016102
 C 0.67304 0.07083 0.33296   -0.016102
 C 0.82696 0.92917 0.83296   -0.016102
 C 0.67917 0.92304 0.58296   -0.016102
 C 0.32696 0.42917 0.33296   -0.016102
 C 0.17917 0.42304 0.08296   -0.016102
 C 0.17024 0.73034 0.01752   -0.299457
 C 0.01966 0.42024 0.26752   -0.299457
 C 0.67024 0.23034 0.51752   -0.299457
 C 0.51966 0.92024 0.76752   -0.299457
 C 0.98034 0.07976 0.26752   -0.299457
 C 0.32976 0.26966 0.51752   -0.299457
 C 0.48034 0.57976 0.76752   -0.299457
 C 0.82976 0.76966 0.01752   -0.299457
 C 0.82976 0.26966 0.98248   -0.299457
 C 0.98034 0.57976 0.73248   -0.299457
 C 0.32976 0.76966 0.48248   -0.299457
 C 0.48034 0.07976 0.23248   -0.299457
 C 0.01966 0.92024 0.73248   -0.299457
 C 0.67024 0.73034 0.48248   -0.299457
 C 0.51966 0.42024 0.23248   -0.299457
 C 0.17024 0.23034 0.98248   -0.299457
 C 0.36073 0.000100000000003 0.01549   -0.336925
 C 0.7499 0.61073 0.26549   -0.336925
 C 0.86073 0.5001 0.51549   -0.336925
 C 0.2499 0.11073 0.76549   -0.336925
 C 0.2501 0.88927 0.26549   -0.336925
 C 0.13927 0.9999 0.51549   -0.336925
 C 0.7501 0.38927 0.76549   -0.336925
 C 0.63927 0.4999 0.01549   -0.336925
 C 0.63927 0.9999 0.98451   -0.336925
 C 0.2501 0.38927 0.73451   -0.336925
 C 0.13927 0.4999 0.48451   -0.336925
 C 0.7501 0.88927 0.23451   -0.336925
 C 0.7499 0.11073 0.73451   -0.336925
 C 0.86073 0.000100000000003 0.48451   -0.336925
 C 0.2499 0.61073 0.23451   -0.336925
 C 0.36073 0.5001 0.98451   -0.336925
 C 0.13339 0.95954 0.86654   -0.329388
 C 0.79046 0.38339 0.11654   -0.329388
 C 0.63339 0.45954 0.36654   -0.329388
 C 0.29046 0.88339 0.61654   -0.329388
 C 0.20954 0.11661 0.11654   -0.329388
 C 0.36661 0.04046 0.36654   -0.329388
 C 0.70954 0.61661 0.61654   -0.329388
 C 0.86661 0.54046 0.86654   -0.329388
 C 0.86661 0.04046 0.13346   -0.329388
 C 0.20954 0.61661 0.88346   -0.329388
 C 0.36661 0.54046 0.63346   -0.329388
 C 0.70954 0.11661 0.38346   -0.329388
 C 0.79046 0.88339 0.88346   -0.329388
 C 0.63339 0.95954 0.63346   -0.329388
 C 0.29046 0.38339 0.38346   -0.329388
 C 0.13339 0.45954 0.13346   -0.329388
 C 0.99312 0.4177 0.97544   0.074357
 C 0.3323 0.24312 0.22544   0.074357
 C 0.49312 0.9177 0.47544   0.074357
 C 0.8323 0.74312 0.72544   0.074357
 C 0.6677 0.25688 0.22544   0.074357
 C 0.50688 0.5823 0.47544   0.074357
 C 0.1677 0.75688 0.72544   0.074357
 C 0.00688 0.0823 0.97544   0.074357
 C 0.00688 0.5823 0.02456   0.074357
 C 0.6677 0.75688 0.77456   0.074357
 C 0.50688 0.0823 0.52456   0.074357
 C 0.1677 0.25688 0.27456   0.074357
 C 0.3323 0.74312 0.77456   0.074357
 C 0.49312 0.4177 0.52456   0.074357
 C 0.8323 0.24312 0.27456   0.074357
 C 0.99312 0.9177 0.02456   0.074357
 C 0.9388 0.51642 0.04222   0.071831
 C 0.23358 0.1888 0.29222   0.071831
 C 0.4388 0.01642 0.54222   0.071831
 C 0.73358 0.6888 0.79222   0.071831
 C 0.76642 0.3112 0.29222   0.071831
 C 0.5612 0.48358 0.54222   0.071831
 C 0.26642 0.8112 0.79222   0.071831
 C 0.0612 0.98358 0.04222   0.071831
 C 0.0612 0.48358 0.95778   0.071831
 C 0.76642 0.8112 0.70778   0.071831
 C 0.5612 0.98358 0.45778   0.071831
 C 0.26642 0.3112 0.20778   0.071831
 C 0.23358 0.6888 0.70778   0.071831
 C 0.4388 0.51642 0.45778   0.071831
 C 0.73358 0.1888 0.20778   0.071831
 C 0.9388 0.01642 0.95778   0.071831
 O 0.911 0.70694 0.91708   -0.969088
 O 0.04306 0.161 0.16708   -0.969088
 O 0.411 0.20694 0.41708   -0.969088
 O 0.54306 0.661 0.66708   -0.969088
 O 0.95694 0.339 0.16708   -0.969088
 O 0.589 0.29306 0.41708   -0.969088
 O 0.45694 0.839 0.66708   -0.969088
 O 0.089 0.79306 0.91708   -0.969088
 O 0.089 0.29306 0.08292   -0.969088
 O 0.95694 0.839 0.83292   -0.969088
 O 0.589 0.79306 0.58292   -0.969088
 O 0.45694 0.339 0.33292   -0.969088
 O 0.04306 0.661 0.83292   -0.969088
 O 0.411 0.70694 0.58292   -0.969088
 O 0.54306 0.161 0.33292   -0.969088
 O 0.911 0.20694 0.08292   -0.969088
 O 0.97031 0.42894 0.03304   -0.420343
 O 0.32106 0.22031 0.28304   -0.420343
 O 0.47031 0.92894 0.53304   -0.420343
 O 0.82106 0.72031 0.78304   -0.420343
 O 0.67894 0.27969 0.28304   -0.420343
 O 0.52969 0.57106 0.53304   -0.420343
 O 0.17894 0.77969 0.78304   -0.420343
 O 0.02969 0.07106 0.03304   -0.420343
 O 0.02969 0.57106 0.96696   -0.420343
 O 0.67894 0.77969 0.71696   -0.420343
 O 0.52969 0.07106 0.46696   -0.420343
 O 0.17894 0.27969 0.21696   -0.420343
 O 0.32106 0.72031 0.71696   -0.420343
 O 0.47031 0.42894 0.46696   -0.420343
 O 0.82106 0.22031 0.21696   -0.420343
 O 0.97031 0.92894 0.96696   -0.420343
