{'_ref': 'TBD', '_srcid': 'CAKYAQ_clean', 'submitters': [{'name': 'Dalar Nazarian Jeff Camp and David Sholl', 'email': 'dalar@gatech.edu jcamp6@gatech.edu'}], '_method': 'VASP DFT with PBE;DDEC'}
data_ZnH2C8S2(NO)4
_symmetry_space_group_name_H-M   'P 1'
_cell_length_a   7.55710044
_cell_length_b   12.57099968
_cell_length_c   12.57100000
_cell_angle_alpha   84.81649909
_cell_angle_beta   72.50779788
_cell_angle_gamma   72.50780018
_symmetry_Int_Tables_number   1
_chemical_formula_structural   ZnH2C8S2(NO)4
_chemical_formula_sum   'Zn2 H4 C16 S4 N8 O8'
_cell_volume   1086.3533515
_cell_formula_units_Z   2
loop_
 _symmetry_equiv_pos_site_id
 _symmetry_equiv_pos_as_xyz
  1  'x, y, z'
loop_
 _atom_site_label
 _atom_site_fract_x
 _atom_site_fract_y
 _atom_site_fract_z
 _atom_site_charge
 Zn 0.5 0.0 0.0   1.139642
 Zn 0.75 0.5 0.5   1.139641
 H 0.625 0.852 0.648   0.156026
 H 0.125 0.148 0.352   0.156697
 H 0.727 0.648 0.148   0.15668
 H 0.523 0.352 0.852   0.15668
 C 0.6113 0.8237 0.8089   0.605909
 C 0.2439 0.1763 0.1911   0.607884
 C 0.5798 0.8089 0.1763   0.606134
 C 0.565 0.1911 0.8237   0.606704
 C 0.0061 0.3089 0.3237   0.607883
 C 0.6387 0.6911 0.6763   0.605908
 C 0.685 0.6763 0.3089   0.606703
 C 0.6702 0.3237 0.6911   0.606134
 C 0.625 0.7972 0.7028   -0.392214
 C 0.625 0.632 0.868   0.358152
 C 0.125 0.2028 0.2972   -0.395842
 C 0.125 0.368 0.132   0.358559
 C 0.6722 0.7028 0.2028   -0.394672
 C 0.507 0.868 0.368   0.36021
 C 0.5778 0.2972 0.7972   -0.394672
 C 0.743 0.132 0.632   0.36021
 S 0.625 0.53406 0.96594   -0.066309
 S 0.125 0.46594 0.03406   -0.066424
 S 0.40906 0.96594 0.46594   -0.066726
 S 0.84094 0.03406 0.53406   -0.066724
 N 0.6138 0.7375 0.8901   -0.348598
 N 0.2414 0.2625 0.1099   -0.34853
 N 0.4961 0.8901 0.2625   -0.348875
 N 0.6487 0.1099 0.7375   -0.34933
 N 0.0086 0.3901 0.2375   -0.34853
 N 0.6362 0.6099 0.7625   -0.348598
 N 0.6013 0.7625 0.3901   -0.34933
 N 0.7539 0.2375 0.6099   -0.348875
 O 0.60332 0.91619 0.84397   -0.570019
 O 0.36348 0.08381 0.15603   -0.570918
 O 0.55271 0.84397 0.08381   -0.569756
 O 0.48049 0.15603 0.91619   -0.570061
 O 0.88652 0.34397 0.41619   -0.570918
 O 0.64668 0.65603 0.58381   -0.570019
 O 0.76951 0.58381 0.34397   -0.570061
 O 0.69729 0.41619 0.65603   -0.569756
