{'_ref': 'TBD', '_srcid': 'CAKYAQ_clean', 'submitters': [{'name': 'Dalar Nazarian Jeff Camp and David Sholl', 'email': 'dalar@gatech.edu jcamp6@gatech.edu'}], '_method': 'VASP DFT with PBE;DDEC'}
data_UH2(CO)4
_symmetry_space_group_name_H-M   'P 1'
_cell_length_a   6.60590005
_cell_length_b   9.86380039
_cell_length_c   13.18700000
_cell_angle_alpha   79.31699758
_cell_angle_beta   86.34900137
_cell_angle_gamma   83.79399873
_symmetry_Int_Tables_number   1
_chemical_formula_structural   UH2(CO)4
_chemical_formula_sum   'U4 H8 C16 O16'
_cell_volume   838.576467661
_cell_formula_units_Z   4
loop_
 _symmetry_equiv_pos_site_id
 _symmetry_equiv_pos_as_xyz
  1  'x, y, z'
loop_
 _atom_site_label
 _atom_site_fract_x
 _atom_site_fract_y
 _atom_site_fract_z
 _atom_site_charge
 U 0.61684 0.3864 0.19348   1.062707
 U 0.94876 0.83166 0.25478   1.549746
 U 0.38316 0.6136 0.80652   1.062702
 U 0.05124 0.16834 0.74522   1.549745
 H 0.3398 0.398 0.4482   0.095202
 H 0.6806 0.3595 0.4689   0.088511
 H 0.773 0.9645 0.9762   0.11922
 H 0.5436 0.8183 0.0516   0.060116
 H 0.6602 0.602 0.5518   0.095202
 H 0.3194 0.6405 0.5311   0.088511
 H 0.227 0.0355 0.0238   0.11922
 H 0.4564 0.1817 0.9484   0.060116
 C 0.3284 0.5828 0.3442   0.717174
 C 0.3992 0.4863 0.4413   -0.170074
 C 0.6339 0.4587 0.4575   -0.152878
 C 0.7587 0.5411 0.3721   0.720945
 C 0.7404 0.1001 0.0796   0.724158
 C 0.6612 0.0136 0.0116   -0.178282
 C 0.5022 0.9118 0.0654   -0.147538
 C 0.4478 0.9052 0.1777   0.732044
 C 0.6716 0.4172 0.6558   0.717174
 C 0.6008 0.5137 0.5587   -0.170074
 C 0.3661 0.5413 0.5425   -0.152878
 C 0.2413 0.4589 0.6279   0.720945
 C 0.2596 0.8999 0.9204   0.724158
 C 0.3388 0.9864 0.9884   -0.178283
 C 0.4978 0.0882 0.9346   -0.14754
 C 0.5522 0.0948 0.8223   0.732044
 O 0.4068 0.5627 0.2575   -0.661538
 O 0.1942 0.6791 0.355   -0.592784
 O 0.8175 0.4857 0.2954   -0.702715
 O 0.7852 0.6618 0.3789   -0.578092
 O 0.6553 0.2181 0.084   -0.673302
 O 0.8941 0.0463 0.1321   -0.697488
 O 0.5877 0.8875 0.2414   -0.67109
 O 0.2636 0.9227 0.2085   -0.644038
 O 0.5932 0.4373 0.7425   -0.661538
 O 0.8058 0.3209 0.645   -0.592784
 O 0.1825 0.5143 0.7046   -0.702714
 O 0.2148 0.3382 0.6211   -0.578092
 O 0.3447 0.7819 0.916   -0.673302
 O 0.1059 0.9537 0.8679   -0.697488
 O 0.4123 0.1125 0.7586   -0.67109
 O 0.7364 0.0773 0.7915   -0.644038
