{'_ref': 'TBD', '_srcid': 'CAKYAQ_clean', 'submitters': [{'name': 'Dalar Nazarian Jeff Camp and David Sholl', 'email': 'dalar@gatech.edu jcamp6@gatech.edu'}], '_method': 'VASP DFT with PBE;DDEC'}
data_CuH3C2O3
_symmetry_space_group_name_H-M   'P 1'
_cell_length_a   9.73199981
_cell_length_b   10.59600024
_cell_length_c   12.59200000
_cell_angle_alpha   111.36999757
_cell_angle_beta   106.05000337
_cell_angle_gamma   96.36000099
_symmetry_Int_Tables_number   1
_chemical_formula_structural   CuH3C2O3
_chemical_formula_sum   'Cu8 H24 C16 O24'
_cell_volume   1129.15692347
_cell_formula_units_Z   8
loop_
 _symmetry_equiv_pos_site_id
 _symmetry_equiv_pos_as_xyz
  1  'x, y, z'
loop_
 _atom_site_label
 _atom_site_fract_x
 _atom_site_fract_y
 _atom_site_fract_z
 _atom_site_charge
 Cu 0.64387 0.99288 0.59566   0.981465
 Cu 0.93302 0.10931 0.58779   1.079291
 Cu 0.75785 0.79397 0.41454   1.092646
 Cu 0.34029 0.8934 0.60589   1.086692
 Cu 0.35613 0.00712 0.40434   0.981465
 Cu 0.06698 0.89069 0.41221   1.079291
 Cu 0.24215 0.20603 0.58546   1.092646
 Cu 0.65971 0.1066 0.39411   1.086691
 H 0.64 0.487 0.0433   0.110801
 H 0.5974 0.6006 0.9973   0.121636
 H 0.1241 0.4419 0.4983   0.119368
 H 0.9946 0.4179 0.3808   0.13398
 H 0.3658 0.0096 0.0171   0.123881
 H 0.4801 0.1349 0.0298   0.127043
 H 0.3794 0.5601 0.4972   0.133416
 H 0.5086 0.5894 0.6159   0.151688
 H 0.8489 0.891 0.6293   0.471934
 H 0.1655 0.0477 0.6753   0.399749
 H 0.7012 0.1973 0.5982   0.488608
 H 0.4846 0.1271 0.6688   0.41115
 H 0.36 0.513 0.9567   0.110801
 H 0.4026 0.3994 0.0027   0.121636
 H 0.8759 0.5581 0.5017   0.119368
 H 0.0054 0.5821 0.6192   0.133981
 H 0.6342 0.9904 0.9829   0.123882
 H 0.5199 0.8651 0.9702   0.127043
 H 0.6206 0.4399 0.5028   0.133416
 H 0.4914 0.4106 0.3841   0.151687
 H 0.1511 0.109 0.3707   0.471934
 H 0.8345 0.9523 0.3247   0.399749
 H 0.2988 0.8027 0.4018   0.488608
 H 0.5154 0.8729 0.3312   0.41115
 C 0.5841 0.6419 0.1651   0.705501
 C 0.5696 0.5444 0.0373   -0.255732
 C 0.9354 0.3099 0.4743   0.751411
 C 0.0192 0.4333 0.4653   -0.26804
 C 0.3656 0.0032 0.8533   0.713284
 C 0.4403 0.0349 0.986   -0.270112
 C 0.5655 0.6883 0.5177   0.749728
 C 0.4842 0.5681 0.5302   -0.289239
 C 0.4159 0.3581 0.8349   0.705501
 C 0.4304 0.4556 0.9627   -0.255731
 C 0.0646 0.6901 0.5257   0.751411
 C 0.9808 0.5667 0.5347   -0.268041
 C 0.6344 0.9968 0.1467   0.713284
 C 0.5597 0.9651 0.014   -0.270114
 C 0.4345 0.3117 0.4823   0.749728
 C 0.5158 0.4319 0.4698   -0.289239
 O 0.7035 0.6581 0.2469   -0.580281
 O 0.4822 0.6995 0.1815   -0.604351
 O 0.0052 0.2628 0.5453   -0.654203
 O 0.8007 0.2661 0.4111   -0.601907
 O 0.2474 0.037 0.8248   -0.611437
 O 0.4272 0.9426 0.7795   -0.58206
 O 0.6434 0.6638 0.4516   -0.593978
 O 0.5464 0.8066 0.5753   -0.665693
 O 0.8252 0.9358 0.584   -0.97519
 O 0.1254 0.0688 0.6133   -0.986709
 O 0.7402 0.1508 0.5695   -1.002863
 O 0.4684 0.0545 0.6153   -1.011476
 O 0.2965 0.3419 0.7531   -0.580281
 O 0.5178 0.3005 0.8185   -0.604351
 O 0.9948 0.7372 0.4547   -0.654203
 O 0.1993 0.7339 0.5889   -0.601907
 O 0.7526 0.963 0.1752   -0.611437
 O 0.5728 0.0574 0.2205   -0.58206
 O 0.3566 0.3362 0.5484   -0.593978
 O 0.4536 0.1934 0.4247   -0.665693
 O 0.1748 0.0642 0.416   -0.97519
 O 0.8746 0.9312 0.3867   -0.986709
 O 0.2598 0.8492 0.4305   -1.002863
 O 0.5316 0.9455 0.3847   -1.011476
