{'_ref': 'TBD', '_srcid': 'CAKYAQ_clean', 'submitters': [{'name': 'Dalar Nazarian Jeff Camp and David Sholl', 'email': 'dalar@gatech.edu jcamp6@gatech.edu'}], '_method': 'VASP DFT with PBE;DDEC'}
data_NdAgH8C14(NO4)2
_symmetry_space_group_name_H-M   'P 1'
_cell_length_a   9.20500000
_cell_length_b   9.74409998
_cell_length_c   22.40150000
_cell_angle_alpha   90.00000000
_cell_angle_beta   90.00000000
_cell_angle_gamma   116.99200309
_symmetry_Int_Tables_number   1
_chemical_formula_structural   NdAgH8C14(NO4)2
_chemical_formula_sum   'Nd4 Ag4 H32 C56 N8 O32'
_cell_volume   1790.41780343
_cell_formula_units_Z   4
loop_
 _symmetry_equiv_pos_site_id
 _symmetry_equiv_pos_as_xyz
  1  'x, y, z'
loop_
 _atom_site_label
 _atom_site_fract_x
 _atom_site_fract_y
 _atom_site_fract_z
 _atom_site_charge
 Nd 0.38289 0.14173 0.00887   2.292011
 Nd 0.11711 0.85827 0.50887   2.292011
 Nd 0.61711 0.85827 0.99113   2.29201
 Nd 0.88289 0.14173 0.49113   2.29201
 Ag 0.98122 0.82112 0.85263   0.39468
 Ag 0.51878 0.17888 0.35263   0.39468
 Ag 0.01878 0.17888 0.14737   0.39468
 Ag 0.48122 0.82112 0.64737   0.39468
 H 0.8172 0.5286 0.9329   0.088629
 H 0.2194 0.6804 0.8403   0.06139
 H 0.2597 0.4745 0.869   0.142381
 H 0.0633 0.2838 0.9264   0.099268
 H 0.0087 0.8586 0.7196   0.079463
 H 0.8869 0.0935 0.8313   0.082922
 H 0.8545 0.2342 0.7559   0.138389
 H 0.8983 0.1844 0.6581   0.1147
 H 0.6828 0.4714 0.4329   0.088629
 H 0.2806 0.3196 0.3403   0.06139
 H 0.2403 0.5255 0.369   0.142381
 H 0.4367 0.7162 0.4264   0.099268
 H 0.4913 0.1414 0.2196   0.079463
 H 0.6131 0.9065 0.3313   0.082922
 H 0.6455 0.7658 0.2559   0.138389
 H 0.6017 0.8156 0.1581   0.1147
 H 0.1828 0.4714 0.0671   0.08863
 H 0.7806 0.3196 0.1597   0.06139
 H 0.7403 0.5255 0.131   0.142381
 H 0.9367 0.7162 0.0736   0.099268
 H 0.9913 0.1414 0.2804   0.079463
 H 0.1131 0.9065 0.1687   0.082922
 H 0.1455 0.7658 0.2441   0.138388
 H 0.1017 0.8156 0.3419   0.114701
 H 0.3172 0.5286 0.5671   0.08863
 H 0.7194 0.6804 0.6597   0.06139
 H 0.7597 0.4745 0.631   0.142381
 H 0.5633 0.2838 0.5736   0.099268
 H 0.5087 0.8586 0.7804   0.079463
 H 0.3869 0.0935 0.6687   0.082922
 H 0.3545 0.2342 0.7441   0.138388
 H 0.3983 0.1844 0.8419   0.114701
 C 0.9171 0.3858 0.9354   -0.226173
 C 0.9055 0.5159 0.9191   0.18648
 C 0.1434 0.6065 0.8653   0.163993
 C 0.1673 0.4824 0.8813   -0.158086
 C 0.0515 0.3706 0.9159   0.059276
 C 0.7832 0.26 0.9712   0.772317
 C 0.9599 0.0146 0.6784   -0.218491
 C 0.9776 0.9355 0.7267   0.156678
 C 0.9062 0.0735 0.7923   0.179114
 C 0.8858 0.158 0.7474   -0.195408
 C 0.9122 0.1288 0.6895   0.059457
 C 0.9942 0.9743 0.6171   0.758607
 C 0.0029 0.9793 0.9671   0.547873
 C 0.509 0.5076 0.0349   0.554823
 C 0.5829 0.6142 0.4354   -0.226173
 C 0.5945 0.4841 0.4191   0.18648
 C 0.3566 0.3935 0.3653   0.163993
 C 0.3327 0.5176 0.3813   -0.158086
 C 0.4485 0.6294 0.4159   0.059276
 C 0.7168 0.74 0.4712   0.772317
 C 0.5401 0.9854 0.1784   -0.218491
 C 0.5224 0.0645 0.2267   0.156678
 C 0.5938 0.9265 0.2923   0.179114
 C 0.6142 0.842 0.2474   -0.195408
 C 0.5878 0.8712 0.1895   0.059457
 C 0.5058 0.0257 0.1171   0.758607
 C 0.4971 0.0207 0.4671   0.547873
 C 0.991 0.4924 0.5349   0.554823
 C 0.0829 0.6142 0.0646   -0.226173
 C 0.0945 0.4841 0.0809   0.186481
 C 0.8566 0.3935 0.1347   0.163993
 C 0.8327 0.5176 0.1187   -0.158086
 C 0.9485 0.6294 0.0841   0.059276
 C 0.2168 0.74 0.0288   0.772317
 C 0.0401 0.9854 0.3216   -0.218491
 C 0.0224 0.0645 0.2733   0.156677
 C 0.0938 0.9265 0.2077   0.179113
 C 0.1142 0.842 0.2526   -0.195409
 C 0.0878 0.8712 0.3105   0.059458
 C 0.0058 0.0257 0.3829   0.758607
 C 0.9971 0.0207 0.0329   0.547872
 C 0.491 0.4924 0.9651   0.554824
 C 0.4171 0.3858 0.5646   -0.226173
 C 0.4055 0.5159 0.5809   0.186481
 C 0.6434 0.6065 0.6347   0.163993
 C 0.6673 0.4824 0.6187   -0.158086
 C 0.5515 0.3706 0.5841   0.059276
 C 0.2832 0.26 0.5288   0.772317
 C 0.4599 0.0146 0.8216   -0.218491
 C 0.4776 0.9355 0.7733   0.156677
 C 0.4062 0.0735 0.7077   0.179113
 C 0.3858 0.158 0.7526   -0.195409
 C 0.4122 0.1288 0.8105   0.059458
 C 0.4942 0.9743 0.8829   0.758607
 C 0.5029 0.9793 0.5329   0.547872
 C 0.009 0.5076 0.4651   0.554824
 N 0.0156 0.6264 0.8839   -0.312905
 N 0.9526 0.9636 0.7832   -0.303324
 N 0.4844 0.3736 0.3839   -0.312905
 N 0.5474 0.0364 0.2832   -0.303324
 N 0.9844 0.3736 0.1161   -0.312905
 N 0.0474 0.0364 0.2168   -0.303323
 N 0.5156 0.6264 0.6161   -0.312905
 N 0.4526 0.9636 0.7168   -0.303323
 O 0.6779 0.2914 0.99527   -0.736269
 O 0.7871 0.1337 0.97272   -0.727837
 O 0.0591 0.8866 0.61362   -0.67124
 O 0.9571 0.0282 0.57248   -0.80567
 O 0.8704 0.8831 0.94454   -0.635213
 O 0.137 0.0401 0.94104   -0.622201
 O 0.4497 0.3853 0.06386   -0.642413
 O 0.5788 0.6416 0.05526   -0.67722
 O 0.8221 0.7086 0.49527   -0.736269
 O 0.7129 0.8663 0.47272   -0.727837
 O 0.4409 0.1134 0.11362   -0.67124
 O 0.5429 0.9718 0.07248   -0.80567
 O 0.6296 0.1169 0.44454   -0.635213
 O 0.363 0.9599 0.44104   -0.622201
 O 0.0503 0.6147 0.56386   -0.642413
 O 0.9212 0.3584 0.55526   -0.67722
 O 0.3221 0.7086 0.00473   -0.736269
 O 0.2129 0.8663 0.02728   -0.727837
 O 0.9409 0.1134 0.38638   -0.67124
 O 0.0429 0.9718 0.42752   -0.80567
 O 0.1296 0.1169 0.05546   -0.635213
 O 0.863 0.9599 0.05896   -0.622201
 O 0.5503 0.6147 0.93614   -0.642413
 O 0.4212 0.3584 0.94474   -0.677221
 O 0.1779 0.2914 0.50473   -0.736269
 O 0.2871 0.1337 0.52728   -0.727837
 O 0.5591 0.8866 0.88638   -0.67124
 O 0.4571 0.0282 0.92752   -0.80567
 O 0.3704 0.8831 0.55546   -0.635213
 O 0.637 0.0401 0.55896   -0.622201
 O 0.9497 0.3853 0.43614   -0.642413
 O 0.0788 0.6416 0.44474   -0.677221
