{'_ref': 'TBD', '_srcid': 'CAKYAQ_clean', 'submitters': [{'name': 'Dalar Nazarian Jeff Camp and David Sholl', 'email': 'dalar@gatech.edu jcamp6@gatech.edu'}], '_method': 'VASP DFT with PBE;DDEC'}
data_La2P5H40C23N5O19
_symmetry_space_group_name_H-M   'P 1'
_cell_length_a   13.32990016
_cell_length_b   13.63619995
_cell_length_c   15.29000000
_cell_angle_alpha   108.91599933
_cell_angle_beta   101.89800043
_cell_angle_gamma   111.69100174
_symmetry_Int_Tables_number   1
_chemical_formula_structural   La2P5H40C23N5O19
_chemical_formula_sum   'La4 P10 H80 C46 N10 O38'
_cell_volume   2268.77746997
_cell_formula_units_Z   2
loop_
 _symmetry_equiv_pos_site_id
 _symmetry_equiv_pos_as_xyz
  1  'x, y, z'
loop_
 _atom_site_label
 _atom_site_fract_x
 _atom_site_fract_y
 _atom_site_fract_z
 _atom_site_charge
 La 0.31604 0.35235 0.5735   2.288052
 La 0.09936 0.10653 0.65392   2.302947
 La 0.68396 0.64765 0.4265   2.288053
 La 0.90064 0.89347 0.34607   2.302948
 P 0.9874 0.17602 0.44251   1.46934
 P 0.41857 0.22557 0.7346   1.567282
 P 0.21765 0.07775 0.43968   1.535802
 P 0.38499 0.40817 0.36889   1.521363
 P 0.81688 0.82315 0.07088   1.504215
 P 0.0126 0.82398 0.55749   1.469351
 P 0.58143 0.77443 0.2654   1.567291
 P 0.78235 0.92225 0.56032   1.535765
 P 0.61501 0.59183 0.63111   1.521366
 P 0.18312 0.17685 0.92912   1.504199
 H 0.0669 0.4152 0.5333   0.245302
 H 0.4163 0.3386 0.9325   0.263742
 H 0.41 0.0561 0.5591   0.251938
 H 0.158 0.237 0.1258   0.237485
 H 0.9654 0.0833 0.2278   0.25938
 H 0.0611 0.4437 0.869   0.115905
 H 0.1153 0.6378 0.9731   0.117012
 H 0.2453 0.7899 0.9534   0.100559
 H 0.3249 0.7503 0.8358   0.114864
 H 0.9212 0.2709 0.5578   0.16719
 H 0.8424 0.2348 0.4494   0.162724
 H 0.8818 0.4545 0.5519   0.133229
 H 0.9829 0.4763 0.6417   0.12428
 H 0.984 0.3454 0.3651   0.122707
 H 0.8834 0.3742 0.3802   0.108397
 H 0.5968 0.3616 0.8656   0.155298
 H 0.5317 0.2582 0.8902   0.168396
 H 0.5839 0.4006 0.0582   0.115289
 H 0.6465 0.5045 0.0331   0.102876
 H 0.5314 0.5192 0.8895   0.125086
 H 0.4002 0.4248 0.83   0.118338
 H 0.253 0.9232 0.3659   0.171948
 H 0.2182 0.9149 0.4555   0.179948
 H 0.4513 0.0193 0.3841   0.123097
 H 0.4708 0.1408 0.4597   0.148964
 H 0.3513 0.8614 0.5183   0.119604
 H 0.3783 0.8466 0.4211   0.116465
 H 0.344 0.3475 0.2006   0.205087
 H 0.292 0.4312 0.238   0.187847
 H 0.2345 0.1401 0.1939   0.140133
 H 0.1892 0.1766 0.2798   0.123147
 H 0.1056 0.3047 0.2922   0.116602
 H 0.0938 0.3565 0.2149   0.117532
 H 0.9542 0.1702 0.0895   0.116347
 H 0.9127 0.2009 0.1788   0.101626
 H 0.0555 0.9861 0.1631   0.155656
 H 0.0461 0.0258 0.0776   0.09115
 H 0.7829 0.9854 0.1212   0.185098
 H 0.8229 0.9764 0.031   0.143585
 H 0.3924 0.269 0.3827   0.432482
 H 0.9331 0.5848 0.4667   0.245302
 H 0.5837 0.6614 0.0675   0.263741
 H 0.59 0.9439 0.4409   0.251937
 H 0.842 0.763 0.8742   0.237485
 H 0.0346 0.9167 0.7722   0.259385
 H 0.9389 0.5563 0.131   0.115902
 H 0.8847 0.3622 0.0269   0.117008
 H 0.7547 0.2101 0.0466   0.100565
 H 0.6751 0.2497 0.1642   0.114874
 H 0.0788 0.7291 0.4422   0.167189
 H 0.1576 0.7652 0.5506   0.162725
 H 0.1182 0.5455 0.4481   0.133223
 H 0.0171 0.5237 0.3583   0.124276
 H 0.016 0.6546 0.6349   0.122708
 H 0.1166 0.6258 0.6198   0.108398
 H 0.4032 0.6384 0.1344   0.155296
 H 0.4683 0.7418 0.1098   0.168405
 H 0.4161 0.5994 0.9418   0.115289
 H 0.3535 0.4955 0.9669   0.102878
 H 0.4686 0.4808 0.1105   0.125091
 H 0.5998 0.5752 0.17   0.118338
 H 0.747 0.0768 0.6341   0.171944
 H 0.7818 0.0851 0.5445   0.179945
 H 0.5487 0.9807 0.6159   0.1231
 H 0.5292 0.8592 0.5403   0.148963
 H 0.6487 0.1386 0.4817   0.119601
 H 0.6217 0.1534 0.5789   0.116461
 H 0.656 0.6525 0.7994   0.205088
 H 0.708 0.5688 0.762   0.187844
 H 0.7655 0.8599 0.8061   0.140131
 H 0.8108 0.8234 0.7202   0.123149
 H 0.8944 0.6953 0.7078   0.116603
 H 0.9062 0.6435 0.7851   0.117526
 H 0.0458 0.8298 0.9105   0.116344
 H 0.0873 0.7991 0.8212   0.101627
 H 0.9445 0.0139 0.8369   0.155655
 H 0.9539 0.9742 0.9224   0.091141
 H 0.2171 0.0146 0.8788   0.185104
 H 0.1771 0.0236 0.969   0.143578
 H 0.6076 0.731 0.6173   0.432483
 C 0.294 0.5472 0.705   0.627715
 C 0.1296 0.3548 0.7288   0.685797
 C 0.2412 0.5734 0.7808   -0.04831
 C 0.1617 0.4806 0.7906   -0.1476
 C 0.1145 0.505 0.862   -0.051159
 C 0.1465 0.6217 0.9244   -0.136707
 C 0.2247 0.7124 0.913   -0.072637
 C 0.2718 0.6887 0.8425   -0.115608
 C 0.9221 0.2689 0.4939   -0.475275
 C 0.964 0.4777 0.5775   -0.106923
 C 0.9656 0.399 0.4099   -0.10027
 C 0.5219 0.3115 0.8641   -0.493473
 C 0.5729 0.455 0.0342   -0.091931
 C 0.4617 0.4693 0.8954   -0.112152
 C 0.2675 0.9685 0.4351   -0.500462
 C 0.4743 0.0693 0.4541   -0.1066
 C 0.4026 0.9007 0.4901   -0.094643
 C 0.2996 0.3641 0.2409   -0.518145
 C 0.1743 0.1573 0.21   -0.127437
 C 0.0905 0.2877 0.2227   -0.105252
 C 0.9705 0.183 0.1583   -0.118253
 C 0.0572 0.05 0.1474   -0.107937
 C 0.8392 0.9726 0.0943   -0.500375
 C 0.706 0.4528 0.295   0.62771
 C 0.8704 0.6452 0.2712   0.685791
 C 0.7588 0.4266 0.2192   -0.048305
 C 0.8383 0.5194 0.2094   -0.147601
 C 0.8855 0.495 0.138   -0.051163
 C 0.8535 0.3783 0.0756   -0.136704
 C 0.7753 0.2876 0.087   -0.072638
 C 0.7282 0.3113 0.1575   -0.115614
 C 0.0779 0.7311 0.5061   -0.47528
 C 0.036 0.5223 0.4225   -0.106918
 C 0.0344 0.601 0.5901   -0.100269
 C 0.4781 0.6885 0.1359   -0.493479
 C 0.4271 0.545 0.9658   -0.091934
 C 0.5383 0.5307 0.1046   -0.112156
 C 0.7325 0.0315 0.5649   -0.500457
 C 0.5257 0.9307 0.5459   -0.106602
 C 0.5974 0.0993 0.5099   -0.094643
 C 0.7004 0.6359 0.7591   -0.518146
 C 0.8257 0.8427 0.79   -0.12744
 C 0.9095 0.7123 0.7773   -0.10525
 C 0.0295 0.817 0.8417   -0.118253
 C 0.9428 0.95 0.8526   -0.107932
 C 0.1608 0.0274 0.9057   -0.50037
 N 0.9898 0.3927 0.507   0.140611
 N 0.4837 0.387 0.9306   0.139684
 N 0.3915 0.0072 0.4947   0.149288
 N 0.1797 0.2604 0.1926   0.165733
 N 0.9599 0.0728 0.1648   0.149802
 N 0.0102 0.6073 0.493   0.140611
 N 0.5163 0.613 0.0694   0.139686
 N 0.6085 0.9928 0.5053   0.149286
 N 0.8203 0.7396 0.8074   0.165732
 N 0.0401 0.9272 0.8352   0.149801
 O 0.2299 0.501 0.6145   -0.690251
 O 0.3968 0.5634 0.7327   -0.606592
 O 0.202 0.3325 0.694   -0.773302
 O 0.0344 0.2744 0.7142   -0.622843
 O 0.9765 0.0987 0.497   -0.979744
 O 0.109 0.264 0.4629   -0.90591
 O 0.9142 0.0944 0.332   -0.895204
 O 0.4351 0.3117 0.6891   -0.963807
 O 0.4547 0.1339 0.6883   -0.915382
 O 0.3019 0.1738 0.7442   -0.94451
 O 0.2117 0.1313 0.5414   -1.019066
 O 0.3068 0.1796 0.4302   -0.933646
 O 0.1017 0.0054 0.3555   -0.893976
 O 0.3096 0.4031 0.4291   -0.910164
 O 0.4285 0.3135 0.3619   -0.732842
 O 0.4839 0.5269 0.3995   -0.890949
 O 0.6865 0.746 0.0255   -0.871551
 O 0.875 0.792 0.9971   -0.920462
 O 0.8777 0.8328 0.1705   -0.932601
 O 0.7701 0.499 0.3855   -0.690251
 O 0.6032 0.4366 0.2673   -0.606591
 O 0.798 0.6675 0.306   -0.77328
 O 0.9656 0.7256 0.2858   -0.622844
 O 0.0235 0.9013 0.503   -0.979755
 O 0.891 0.736 0.5371   -0.90591
 O 0.0858 0.9056 0.668   -0.895206
 O 0.5649 0.6883 0.3109   -0.963804
 O 0.5453 0.8661 0.3117   -0.915377
 O 0.6981 0.8262 0.2558   -0.944536
 O 0.7883 0.8687 0.4586   -1.019044
 O 0.6932 0.8204 0.5698   -0.933645
 O 0.8983 0.9946 0.6445   -0.893934
 O 0.6904 0.5969 0.5709   -0.910163
 O 0.5715 0.6865 0.6381   -0.732841
 O 0.5161 0.4731 0.6005   -0.890953
 O 0.3135 0.254 0.9745   -0.871557
 O 0.125 0.208 0.0029   -0.920468
 O 0.1223 0.1672 0.8295   -0.932576
