{'_ref': 'TBD', '_srcid': 'CAKYAQ_clean', 'submitters': [{'name': 'Dalar Nazarian Jeff Camp and David Sholl', 'email': 'dalar@gatech.edu jcamp6@gatech.edu'}], '_method': 'VASP DFT with PBE;DDEC'}
data_Cu2Mo2H8C11(NO3)2
_symmetry_space_group_name_H-M   'P 1'
_cell_length_a   5.88210000
_cell_length_b   10.73669967
_cell_length_c   27.79200000
_cell_angle_alpha   97.81100247
_cell_angle_beta   90.00000000
_cell_angle_gamma   90.00000000
_symmetry_Int_Tables_number   1
_chemical_formula_structural   Cu2Mo2H8C11(NO3)2
_chemical_formula_sum   'Cu8 Mo8 H32 C44 N8 O24'
_cell_volume   1738.90041785
_cell_formula_units_Z   4
loop_
 _symmetry_equiv_pos_site_id
 _symmetry_equiv_pos_as_xyz
  1  'x, y, z'
loop_
 _atom_site_label
 _atom_site_fract_x
 _atom_site_fract_y
 _atom_site_fract_z
 _atom_site_charge
 Cu 0.62419 0.70816 0.29391   0.943647
 Cu 0.39501 0.80296 0.2102   0.741778
 Cu 0.62419 0.29184 0.20609   0.943648
 Cu 0.39501 0.19704 0.2898   0.741777
 Cu 0.37581 0.29184 0.70609   0.943647
 Cu 0.60499 0.19704 0.7898   0.741778
 Cu 0.37581 0.70816 0.79391   0.943648
 Cu 0.60499 0.80296 0.7102   0.741777
 Mo 0.86317 0.57913 0.19713   0.859405
 Mo 0.15473 0.07635 0.18369   1.376309
 Mo 0.86317 0.42087 0.30287   0.859406
 Mo 0.15473 0.92365 0.31631   1.376308
 Mo 0.13683 0.42087 0.80287   0.859405
 Mo 0.84527 0.92365 0.81631   1.376309
 Mo 0.13683 0.57913 0.69713   0.859406
 Mo 0.84527 0.07635 0.68369   1.376308
 H 0.244 0.8938 0.6536   0.079366
 H 0.0888 0.8547 0.5762   0.107076
 H 0.6378 0.6374 0.5346   0.133831
 H 0.7759 0.6804 0.6137   0.007452
 H 0.7841 0.7882 0.3966   0.057074
 H 0.6394 0.7851 0.4746   0.125028
 H 0.0981 0.5875 0.4144   0.096863
 H 0.2565 0.5961 0.3385   0.045341
 H 0.244 0.1062 0.8464   0.079366
 H 0.0888 0.1453 0.9238   0.107076
 H 0.6378 0.3626 0.9654   0.133831
 H 0.7759 0.3196 0.8863   0.007452
 H 0.7841 0.2118 0.1034   0.057074
 H 0.6394 0.2149 0.0254   0.125028
 H 0.0981 0.4125 0.0856   0.096863
 H 0.2565 0.4039 0.1615   0.045341
 H 0.756 0.1062 0.3464   0.079366
 H 0.9112 0.1453 0.4238   0.107078
 H 0.3622 0.3626 0.4654   0.13383
 H 0.2241 0.3196 0.3863   0.007452
 H 0.2159 0.2118 0.6034   0.057074
 H 0.3606 0.2149 0.5254   0.125029
 H 0.9019 0.4125 0.5856   0.096863
 H 0.7435 0.4039 0.6615   0.045341
 H 0.756 0.8938 0.1536   0.079366
 H 0.9112 0.8547 0.0762   0.107078
 H 0.3622 0.6374 0.0346   0.13383
 H 0.2241 0.6804 0.1137   0.007452
 H 0.2159 0.7882 0.8966   0.057074
 H 0.3606 0.7851 0.9746   0.125029
 H 0.9019 0.5875 0.9144   0.096863
 H 0.7435 0.5961 0.8385   0.045341
 C 0.3221 0.8397 0.6292   0.128703
 C 0.2287 0.8169 0.58333   -0.16949
 C 0.3438 0.7374 0.54757   0.013994
 C 0.5524 0.6884 0.5588   -0.169761
 C 0.6342 0.715 0.60583   0.179877
 C 0.6424 0.7483 0.40049   0.171514
 C 0.557 0.7472 0.44703   -0.164558
 C 0.3487 0.6897 0.4525   -0.018101
 C 0.2374 0.6306 0.4115   -0.139786
 C 0.3331 0.6357 0.36658   0.129379
 C 0.2247 0.6982 0.50012   0.35141
 C 0.3221 0.1603 0.8708   0.128703
 C 0.2287 0.1831 0.91667   -0.16949
 C 0.3438 0.2626 0.95243   0.013994
 C 0.5524 0.3116 0.9412   -0.169761
 C 0.6342 0.285 0.89417   0.179877
 C 0.6424 0.2517 0.09951   0.171514
 C 0.557 0.2528 0.05297   -0.164558
 C 0.3487 0.3103 0.0475   -0.018101
 C 0.2374 0.3694 0.0885   -0.139786
 C 0.3331 0.3643 0.13342   0.129379
 C 0.2247 0.3018 0.99988   0.35141
 C 0.6779 0.1603 0.3708   0.128703
 C 0.7713 0.1831 0.41667   -0.169489
 C 0.6562 0.2626 0.45243   0.013994
 C 0.4476 0.3116 0.4412   -0.169761
 C 0.3658 0.285 0.39417   0.179877
 C 0.3576 0.2517 0.59951   0.171514
 C 0.443 0.2528 0.55297   -0.164558
 C 0.6513 0.3103 0.5475   -0.018101
 C 0.7626 0.3694 0.5885   -0.139787
 C 0.6669 0.3643 0.63342   0.129379
 C 0.7753 0.3018 0.49988   0.35141
 C 0.6779 0.8397 0.1292   0.128703
 C 0.7713 0.8169 0.08333   -0.169489
 C 0.6562 0.7374 0.04757   0.013994
 C 0.4476 0.6884 0.0588   -0.169761
 C 0.3658 0.715 0.10583   0.179877
 C 0.3576 0.7483 0.90049   0.171514
 C 0.443 0.7472 0.94703   -0.164558
 C 0.6513 0.6897 0.9525   -0.018101
 C 0.7626 0.6306 0.9115   -0.139787
 C 0.6669 0.6357 0.86658   0.129379
 C 0.7753 0.6982 0.000120000000003   0.35141
 N 0.5194 0.78811 0.64058   -0.385764
 N 0.5311 0.6948 0.36106   -0.43494
 N 0.5194 0.21189 0.85942   -0.385764
 N 0.5311 0.3052 0.13894   -0.43494
 N 0.4806 0.21189 0.35942   -0.385764
 N 0.4689 0.3052 0.63894   -0.43494
 N 0.4806 0.78811 0.14058   -0.385765
 N 0.4689 0.6948 0.86106   -0.43494
 O 0.6593 0.70154 0.22403   -0.763232
 O 0.8667 0.4176 0.21062   -0.698781
 O 0.1572 0.92511 0.20274   -0.707227
 O 0.875 0.8681 0.31121   -0.658883
 O 0.3521 0.8124 0.28215   -0.82029
 O 0.0233 0.6745 0.50052   -0.417235
 O 0.6593 0.29846 0.27597   -0.763232
 O 0.8667 0.5824 0.28938   -0.698781
 O 0.1572 0.07489 0.29726   -0.707226
 O 0.875 0.1319 0.18879   -0.658884
 O 0.3521 0.1876 0.21785   -0.82029
 O 0.0233 0.3255 0.99948   -0.417235
 O 0.3407 0.29846 0.77597   -0.763232
 O 0.1333 0.5824 0.78938   -0.698781
 O 0.8428 0.07489 0.79726   -0.707227
 O 0.125 0.1319 0.68879   -0.658883
 O 0.6479 0.1876 0.71785   -0.82029
 O 0.9767 0.3255 0.49948   -0.417235
 O 0.3407 0.70154 0.72403   -0.763232
 O 0.1333 0.4176 0.71062   -0.698781
 O 0.8428 0.92511 0.70274   -0.707226
 O 0.125 0.8681 0.81121   -0.658884
 O 0.6479 0.8124 0.78215   -0.82029
 O 0.9767 0.6745 0.000520000000002   -0.417235
