{'_ref': 'TBD', '_srcid': 'CAKYAQ_clean', 'submitters': [{'name': 'Dalar Nazarian Jeff Camp and David Sholl', 'email': 'dalar@gatech.edu jcamp6@gatech.edu'}], '_method': 'VASP DFT with PBE;DDEC'}
data_CePC6SNO7
_symmetry_space_group_name_H-M   'P 1'
_cell_length_a   6.80789960
_cell_length_b   7.30869999
_cell_length_c   14.56400000
_cell_angle_alpha   78.15399686
_cell_angle_beta   88.39900410
_cell_angle_gamma   86.28299849
_symmetry_Int_Tables_number   1
_chemical_formula_structural   CePC6SNO7
_chemical_formula_sum   'Ce2 P2 C12 S2 N2 O14'
_cell_volume   707.654940971
_cell_formula_units_Z   2
loop_
 _symmetry_equiv_pos_site_id
 _symmetry_equiv_pos_as_xyz
  1  'x, y, z'
loop_
 _atom_site_label
 _atom_site_fract_x
 _atom_site_fract_y
 _atom_site_fract_z
 _atom_site_charge
 Ce 0.8247 0.7578 0.4996   2.45581
 Ce 0.1753 0.2422 0.5004   2.455811
 P 0.2959 0.7936 0.429   1.61812
 P 0.7041 0.2064 0.571   1.61812
 C 0.335 0.869 0.3061   -0.186697
 C 0.343 0.846 0.143   0.016879
 C 0.275 0.02 0.0704   0.006981
 C 0.0729 0.978 0.0411   0.087721
 C 0.9417 0.983 0.1273   -0.01037
 C 0.076 0.021 0.2022   0.037942
 C 0.665 0.131 0.6939   -0.186697
 C 0.657 0.154 0.857   0.016876
 C 0.725 0.98 0.9296   0.006979
 C 0.9271 0.022 0.9589   0.087716
 C 0.0583 0.017 0.8727   -0.010372
 C 0.924 0.979 0.7978   0.037942
 S 0.144 0.517 0.7032   1.696232
 S 0.856 0.483 0.2968   1.696232
 N 0.212 0.849 0.2263   0.118334
 N 0.788 0.151 0.7737   0.118334
 O 0.1463 0.9353 0.4611   -1.041845
 O 0.21 0.6028 0.4453   -0.993051
 O 0.4912 0.786 0.4784   -0.97869
 O 0.034 0.476 0.7889   -0.540894
 O 0.334 0.565 0.7278   -0.583495
 O 0.01 0.661 0.6466   -0.853397
 O 0.166 0.345 0.668   -0.849576
 O 0.8537 0.0647 0.5389   -1.041845
 O 0.79 0.3972 0.5547   -0.993051
 O 0.5088 0.214 0.5216   -0.97869
 O 0.966 0.524 0.2111   -0.540894
 O 0.666 0.435 0.2722   -0.583495
 O 0.99 0.339 0.3534   -0.853397
 O 0.834 0.655 0.332   -0.849576
