{'_ref': 'TBD', '_srcid': 'CAKYAQ_clean', 'submitters': [{'name': 'Dalar Nazarian Jeff Camp and David Sholl', 'email': 'dalar@gatech.edu jcamp6@gatech.edu'}], '_method': 'VASP DFT with PBE;DDEC'}
data_MnCr(CO2)6
_symmetry_space_group_name_H-M   'P 1'
_cell_length_a   15.49010000
_cell_length_b   15.49010000
_cell_length_c   15.49010000
_cell_angle_alpha   90.00000000
_cell_angle_beta   90.00000000
_cell_angle_gamma   90.00000000
_symmetry_Int_Tables_number   1
_chemical_formula_structural   MnCr(CO2)6
_chemical_formula_sum   'Mn4 Cr4 C24 O48'
_cell_volume   3716.74413149
_cell_formula_units_Z   4
loop_
 _symmetry_equiv_pos_site_id
 _symmetry_equiv_pos_as_xyz
  1  'x, y, z'
loop_
 _atom_site_label
 _atom_site_fract_x
 _atom_site_fract_y
 _atom_site_fract_z
 _atom_site_charge
 Mn 0.8535 0.3535 0.1465   1.098792
 Mn 0.6465 0.6465 0.6465   1.098792
 Mn 0.1465 0.8535 0.3535   1.098792
 Mn 0.3535 0.1465 0.8535   1.098792
 Cr 0.5973 0.4027 0.9027   1.180555
 Cr 0.9027 0.5973 0.4027   1.180555
 Cr 0.4027 0.9027 0.5973   1.180555
 Cr 0.0973 0.0973 0.0973   1.180556
 C 0.763 0.378 0.993   0.525653
 C 0.695 0.375 0.066   0.500889
 C 0.737 0.622 0.493   0.525652
 C 0.805 0.625 0.566   0.500888
 C 0.237 0.878 0.507   0.525652
 C 0.305 0.875 0.434   0.500889
 C 0.263 0.122 0.007   0.525652
 C 0.195 0.125 0.934   0.500888
 C 0.993 0.763 0.378   0.52565
 C 0.066 0.695 0.375   0.500889
 C 0.493 0.737 0.622   0.52565
 C 0.566 0.805 0.625   0.500888
 C 0.507 0.237 0.878   0.52565
 C 0.434 0.305 0.875   0.500888
 C 0.007 0.263 0.122   0.525649
 C 0.934 0.195 0.125   0.500887
 C 0.378 0.993 0.763   0.525649
 C 0.375 0.066 0.695   0.500886
 C 0.622 0.493 0.737   0.525648
 C 0.625 0.566 0.805   0.500886
 C 0.878 0.507 0.237   0.525649
 C 0.875 0.434 0.305   0.500886
 C 0.122 0.007 0.263   0.525648
 C 0.125 0.934 0.195   0.500885
 O 0.8421 0.3658 0.0203   -0.448684
 O 0.726 0.3593 0.1433   -0.429207
 O 0.74 0.3873 0.9198   -0.443194
 O 0.618 0.3896 0.0474   -0.465232
 O 0.6579 0.6342 0.5203   -0.448685
 O 0.774 0.6407 0.6433   -0.429207
 O 0.76 0.6127 0.4198   -0.443194
 O 0.882 0.6104 0.5474   -0.465232
 O 0.1579 0.8658 0.4797   -0.448685
 O 0.274 0.8593 0.3567   -0.429207
 O 0.26 0.8873 0.5802   -0.443194
 O 0.382 0.8896 0.4526   -0.465232
 O 0.3421 0.1342 0.9797   -0.448685
 O 0.226 0.1407 0.8567   -0.429208
 O 0.24 0.1127 0.0802   -0.443194
 O 0.118 0.1104 0.9526   -0.465232
 O 0.0203 0.8421 0.3658   -0.448684
 O 0.1433 0.726 0.3593   -0.429208
 O 0.9198 0.74 0.3873   -0.443194
 O 0.0474 0.618 0.3896   -0.465233
 O 0.5203 0.6579 0.6342   -0.448685
 O 0.6433 0.774 0.6407   -0.429208
 O 0.4198 0.76 0.6127   -0.443194
 O 0.5474 0.882 0.6104   -0.465233
 O 0.4797 0.1579 0.8658   -0.448685
 O 0.3567 0.274 0.8593   -0.429208
 O 0.5802 0.26 0.8873   -0.443194
 O 0.4526 0.382 0.8896   -0.465233
 O 0.9797 0.3421 0.1342   -0.448685
 O 0.8567 0.226 0.1407   -0.429208
 O 0.0802 0.24 0.1127   -0.443195
 O 0.9526 0.118 0.1104   -0.465233
 O 0.3658 0.0203 0.8421   -0.448685
 O 0.3593 0.1433 0.726   -0.429209
 O 0.3873 0.9198 0.74   -0.443194
 O 0.3896 0.0474 0.618   -0.465233
 O 0.6342 0.5203 0.6579   -0.448685
 O 0.6407 0.6433 0.774   -0.429209
 O 0.6127 0.4198 0.76   -0.443195
 O 0.6104 0.5474 0.882   -0.465234
 O 0.8658 0.4797 0.1579   -0.448685
 O 0.8593 0.3567 0.274   -0.429209
 O 0.8873 0.5802 0.26   -0.443195
 O 0.8896 0.4526 0.382   -0.465233
 O 0.1342 0.9797 0.3421   -0.448685
 O 0.1407 0.8567 0.226   -0.429209
 O 0.1127 0.0802 0.24   -0.443195
 O 0.1104 0.9526 0.118   -0.465234
