{'_ref': 'TBD', '_srcid': 'CAKYAQ_clean', 'submitters': [{'name': 'Dalar Nazarian Jeff Camp and David Sholl', 'email': 'dalar@gatech.edu jcamp6@gatech.edu'}], '_method': 'VASP DFT with PBE;DDEC'}
data_CdCuH4(C3O4)2
_symmetry_space_group_name_H-M   'P 1'
_cell_length_a   6.62600000
_cell_length_b   13.05200000
_cell_length_c   13.95800000
_cell_angle_alpha   90.00000000
_cell_angle_beta   90.00000000
_cell_angle_gamma   90.00000000
_symmetry_Int_Tables_number   1
_chemical_formula_structural   CdCuH4(C3O4)2
_chemical_formula_sum   'Cd4 Cu4 H16 C24 O32'
_cell_volume   1207.12346082
_cell_formula_units_Z   4
loop_
 _symmetry_equiv_pos_site_id
 _symmetry_equiv_pos_as_xyz
  1  'x, y, z'
loop_
 _atom_site_label
 _atom_site_fract_x
 _atom_site_fract_y
 _atom_site_fract_z
 _atom_site_charge
 Cd 0.0 0.25 0.77423   1.109522
 Cd 0.5 0.75 0.72577   1.109522
 Cd 0.0 0.75 0.22577   1.109522
 Cd 0.5 0.25 0.27423   1.109522
 Cu 0.5 0.5 0.5   1.009662
 Cu 0.0 0.0 0.0   1.009662
 Cu 0.5 0.0 0.5   1.009662
 Cu 0.0 0.5 0.0   1.009662
 H 0.4336 0.3815 0.7236   0.193342
 H 0.6441 0.3976 0.7714   0.162343
 H 0.0664 0.8815 0.7764   0.193342
 H 0.8559 0.8976 0.7286   0.162343
 H 0.5664 0.1185 0.7236   0.193342
 H 0.3559 0.1024 0.7714   0.162343
 H 0.9336 0.6185 0.7764   0.193342
 H 0.1441 0.6024 0.7286   0.162343
 H 0.5664 0.6185 0.2764   0.193342
 H 0.3559 0.6024 0.2286   0.162343
 H 0.9336 0.1185 0.2236   0.193342
 H 0.1441 0.1024 0.2714   0.162343
 H 0.4336 0.8815 0.2764   0.193342
 H 0.6441 0.8976 0.2286   0.162343
 H 0.0664 0.3815 0.2236   0.193342
 H 0.8559 0.3976 0.2714   0.162343
 C 0.6657 0.3507 0.63298   0.782458
 C 0.5669 0.4101 0.7135   -0.579516
 C 0.544 0.5245 0.7025   0.765682
 C 0.8343 0.8507 0.86702   0.782458
 C 0.9331 0.9101 0.7865   -0.579516
 C 0.956 0.0245 0.7975   0.765682
 C 0.3343 0.1493 0.63298   0.782458
 C 0.4331 0.0899 0.7135   -0.579516
 C 0.456 0.9755 0.7025   0.765683
 C 0.1657 0.6493 0.86702   0.782458
 C 0.0669 0.5899 0.7865   -0.579516
 C 0.044 0.4755 0.7975   0.765683
 C 0.3343 0.6493 0.36702   0.782458
 C 0.4331 0.5899 0.2865   -0.579516
 C 0.456 0.4755 0.2975   0.765682
 C 0.1657 0.1493 0.13298   0.782458
 C 0.0669 0.0899 0.2135   -0.579516
 C 0.044 0.9755 0.2025   0.765682
 C 0.6657 0.8507 0.36702   0.782458
 C 0.5669 0.9101 0.2865   -0.579516
 C 0.544 0.0245 0.2975   0.765683
 C 0.8343 0.3507 0.13298   0.782458
 C 0.9331 0.4101 0.2135   -0.579516
 C 0.956 0.5245 0.2025   0.765682
 O 0.7631 0.27235 0.6535   -0.585486
 O 0.6376 0.37808 0.54691   -0.601425
 O 0.4933 0.56341 0.62323   -0.660097
 O 0.566 0.58042 0.77397   -0.536893
 O 0.7369 0.77235 0.8465   -0.585486
 O 0.8624 0.87808 0.95309   -0.601425
 O 0.0067 0.06341 0.87677   -0.660097
 O 0.934 0.08042 0.72603   -0.536893
 O 0.2369 0.22765 0.6535   -0.585487
 O 0.3624 0.12192 0.54691   -0.601424
 O 0.5067 0.93659 0.62323   -0.660097
 O 0.434 0.91958 0.77397   -0.536893
 O 0.2631 0.72765 0.8465   -0.585487
 O 0.1376 0.62192 0.95309   -0.601424
 O 0.9933 0.43659 0.87677   -0.660097
 O 0.066 0.41958 0.72603   -0.536893
 O 0.2369 0.72765 0.3465   -0.585486
 O 0.3624 0.62192 0.45309   -0.601424
 O 0.5067 0.43659 0.37677   -0.660096
 O 0.434 0.41958 0.22603   -0.536893
 O 0.2631 0.22765 0.1535   -0.585486
 O 0.1376 0.12192 0.04691   -0.601424
 O 0.9933 0.93659 0.12323   -0.660096
 O 0.066 0.91958 0.27397   -0.536893
 O 0.7631 0.77235 0.3465   -0.585487
 O 0.6376 0.87808 0.45309   -0.601424
 O 0.4933 0.06341 0.37677   -0.660096
 O 0.566 0.08042 0.22603   -0.536893
 O 0.7369 0.27235 0.1535   -0.585487
 O 0.8624 0.37808 0.04691   -0.601424
 O 0.0067 0.56341 0.12323   -0.660096
 O 0.934 0.58042 0.27397   -0.536893
