{'_ref': 'TBD', '_srcid': 'CAKYAQ_clean', 'submitters': [{'name': 'Dalar Nazarian Jeff Camp and David Sholl', 'email': 'dalar@gatech.edu jcamp6@gatech.edu'}], '_method': 'VASP DFT with PBE;DDEC'}
data_AlPH2CO3F
_symmetry_space_group_name_H-M   'P 1'
_cell_length_a   4.93870000
_cell_length_b   8.18560033
_cell_length_c   12.06000000
_cell_angle_alpha   90.00000000
_cell_angle_beta   90.00000000
_cell_angle_gamma   92.04499803
_symmetry_Int_Tables_number   1
_chemical_formula_structural   AlPH2CO3F
_chemical_formula_sum   'Al4 P4 H8 C4 O12 F4'
_cell_volume   487.229755959
_cell_formula_units_Z   4
loop_
 _symmetry_equiv_pos_site_id
 _symmetry_equiv_pos_as_xyz
  1  'x, y, z'
loop_
 _atom_site_label
 _atom_site_fract_x
 _atom_site_fract_y
 _atom_site_fract_z
 _atom_site_charge
 Al 0.7544 0.8618 0.25   2.012737
 Al 0.2456 0.1382 0.75   2.012737
 Al 0.5 0.0 0.5   1.936584
 Al 0.5 0.0 0.0   1.936582
 P 0.991 0.7659 0.48247   1.700021
 P 0.009 0.2341 0.98247   1.700021
 P 0.009 0.2341 0.51753   1.700021
 P 0.991 0.7659 0.01753   1.700021
 H 0.696 0.551 0.528   0.154337
 H 0.937 0.565 0.618   0.172149
 H 0.304 0.449 0.028   0.154337
 H 0.063 0.435 0.118   0.172149
 H 0.304 0.449 0.472   0.154339
 H 0.063 0.435 0.382   0.17215
 H 0.696 0.551 0.972   0.154339
 H 0.937 0.565 0.882   0.17215
 C 0.918 0.5644 0.5314   -0.48194
 C 0.082 0.4356 0.0314   -0.48194
 C 0.082 0.4356 0.4686   -0.48194
 C 0.918 0.5644 0.9686   -0.48194
 O 0.7972 0.8782 0.5418   -0.964299
 O 0.282 0.8077 0.5083   -0.932915
 O 0.9464 0.7629 0.3571   -0.99821
 O 0.2028 0.1218 0.0418   -0.964298
 O 0.718 0.1923 0.0083   -0.932915
 O 0.0536 0.2371 0.8571   -0.99821
 O 0.2028 0.1218 0.4582   -0.964299
 O 0.718 0.1923 0.4917   -0.932915
 O 0.0536 0.2371 0.6429   -0.998209
 O 0.7972 0.8782 0.9582   -0.964298
 O 0.282 0.8077 0.9917   -0.932915
 O 0.9464 0.7629 0.1429   -0.998209
 F 0.5572 0.9642 0.3528   -0.623806
 F 0.4428 0.0358 0.8528   -0.623805
 F 0.4428 0.0358 0.6472   -0.623806
 F 0.5572 0.9642 0.1472   -0.623806
