{'_ref': 'TBD', '_srcid': 'CAKYAQ_clean', 'submitters': [{'name': 'Dalar Nazarian Jeff Camp and David Sholl', 'email': 'dalar@gatech.edu jcamp6@gatech.edu'}], '_method': 'VASP DFT with PBE;DDEC'}
data_VH2(CO)5
_symmetry_space_group_name_H-M   'P 1'
_cell_length_a   6.37579978
_cell_length_b   6.88399996
_cell_length_c   9.02540000
_cell_angle_alpha   69.01000207
_cell_angle_beta   85.19699856
_cell_angle_gamma   79.45200121
_symmetry_Int_Tables_number   1
_chemical_formula_structural   VH2(CO)5
_chemical_formula_sum   'V2 H4 C10 O10'
_cell_volume   363.526740197
_cell_formula_units_Z   2
loop_
 _symmetry_equiv_pos_site_id
 _symmetry_equiv_pos_as_xyz
  1  'x, y, z'
loop_
 _atom_site_label
 _atom_site_fract_x
 _atom_site_fract_y
 _atom_site_fract_z
 _atom_site_charge
 V 0.0 0.5 0.5   1.699432
 V 0.0 0.0 0.5   1.664032
 H 0.8244 0.6086 0.9943   0.106791
 H 0.0657 0.8374 0.3166   0.504868
 H 0.1756 0.3914 0.0057   0.106785
 H 0.9343 0.1626 0.6834   0.504869
 C 0.3961 0.5439 0.8586   -0.07386
 C 0.2677 0.6188 0.7113   0.716977
 C 0.594 0.6064 0.8557   -0.083385
 C 0.7174 0.6859 0.7031   0.725438
 C 0.6945 0.5641 0.9966   -0.05133
 C 0.6039 0.4561 0.1414   -0.073824
 C 0.7323 0.3812 0.2887   0.716972
 C 0.406 0.3936 0.1443   -0.083399
 C 0.2826 0.3141 0.2969   0.725439
 C 0.3055 0.4359 0.0034   -0.051293
 O 0.0107 0.7989 0.3924   -1.025567
 O 0.8067 0.8427 0.6791   -0.632624
 O 0.1746 0.4887 0.6848   -0.631223
 O 0.252 0.813 0.631   -0.614264
 O 0.7317 0.5779 0.6144   -0.623576
 O 0.9893 0.2011 0.6076   -1.025568
 O 0.1933 0.1573 0.3209   -0.632624
 O 0.8254 0.5113 0.3152   -0.631223
 O 0.748 0.187 0.369   -0.614264
 O 0.2683 0.4221 0.3856   -0.623576
