{'_ref': 'TBD', '_srcid': 'CAKYAQ_clean', 'submitters': [{'name': 'Dalar Nazarian Jeff Camp and David Sholl', 'email': 'dalar@gatech.edu jcamp6@gatech.edu'}], '_method': 'VASP DFT with PBE;DDEC'}
data_ZnH8C15S2NO4
_symmetry_space_group_name_H-M   'P 1'
_cell_length_a   14.00300044
_cell_length_b   14.10459978
_cell_length_c   14.10460000
_cell_angle_alpha   103.26300108
_cell_angle_beta   105.66200137
_cell_angle_gamma   105.66199853
_symmetry_Int_Tables_number   1
_chemical_formula_structural   ZnH8C15S2NO4
_chemical_formula_sum   'Zn4 H32 C60 S8 N4 O16'
_cell_volume   2441.5769948
_cell_formula_units_Z   4
loop_
 _symmetry_equiv_pos_site_id
 _symmetry_equiv_pos_as_xyz
  1  'x, y, z'
loop_
 _atom_site_label
 _atom_site_fract_x
 _atom_site_fract_y
 _atom_site_fract_z
 _atom_site_charge
 Zn 0.3637 0.66363 0.37553   0.836161
 Zn 0.1363 0.62447 0.33637   0.836161
 Zn 0.6363 0.33637 0.62447   0.836161
 Zn 0.8637 0.37553 0.66363   0.836161
 H 0.65 0.524 0.411   0.127498
 H 0.4859 0.0274 0.4118   0.154551
 H 0.4843 0.5315 0.4047   0.083208
 H 0.4697 0.7039 0.7379   0.127436
 H 0.4219 0.6962 0.8958   0.112612
 H 0.6886 0.7697 0.3043   0.136066
 H 0.4204 0.1771 0.3857   0.099162
 H 0.5595 0.7957 0.3667   0.093242
 H 0.85 0.589 0.476   0.127498
 H 0.0141 0.5882 0.9726   0.15455
 H 0.0157 0.5953 0.4685   0.083208
 H 0.0303 0.2621 0.2961   0.127436
 H 0.0781 0.1042 0.3038   0.112612
 H 0.8114 0.6957 0.2303   0.136064
 H 0.0796 0.6143 0.8229   0.09916
 H 0.9405 0.6333 0.2043   0.093242
 H 0.35 0.476 0.589   0.127498
 H 0.5141 0.9726 0.5882   0.154551
 H 0.5157 0.4685 0.5953   0.083208
 H 0.5303 0.2961 0.2621   0.127436
 H 0.5781 0.3038 0.1042   0.112612
 H 0.3114 0.2303 0.6957   0.136066
 H 0.5796 0.8229 0.6143   0.099162
 H 0.4405 0.2043 0.6333   0.093242
 H 0.15 0.411 0.524   0.127498
 H 0.9859 0.4118 0.0274   0.15455
 H 0.9843 0.4047 0.5315   0.083208
 H 0.9697 0.7379 0.7039   0.127436
 H 0.9219 0.8958 0.6962   0.112612
 H 0.1886 0.3043 0.7697   0.136064
 H 0.9204 0.3857 0.1771   0.09916
 H 0.0595 0.3667 0.7957   0.093242
 C 0.3135 0.6832 0.666   -0.190342
 C 0.3019 0.8374 0.3832   0.63612
 C 0.7004 0.6433 0.3559   0.093703
 C 0.2893 0.6711 0.5461   0.594199
 C 0.2716 0.0988 0.3472   -0.006794
 C 0.3113 0.9444 0.3734   -0.21154
 C 0.2681 0.6634 0.8212   0.017145
 C 0.63 0.5753 0.3891   -0.198023
 C 0.4171 0.028 0.394   -0.080633
 C 0.5298 0.5829 0.3901   0.167107
 C 0.4026 0.6938 0.742   -0.050689
 C 0.3715 0.6859 0.8323   -0.175234
 C 0.6569 0.7241 0.3345   -0.191176
 C 0.3728 0.1122 0.3758   -0.136338
 C 0.5701 0.7324 0.3588   0.148111
 C 0.1865 0.334 0.3168   -0.190342
 C 0.1981 0.6168 0.1626   0.636117
 C 0.7996 0.6441 0.3567   0.093704
 C 0.2107 0.4539 0.3289   0.594198
 C 0.2284 0.6528 0.9012   -0.006789
 C 0.1887 0.6266 0.0556   -0.211538
 C 0.2319 0.1788 0.3366   0.017149
 C 0.87 0.6109 0.4247   -0.198023
 C 0.0829 0.606 0.972   -0.080629
 C 0.9702 0.6099 0.4171   0.167107
 C 0.0974 0.258 0.3062   -0.050689
 C 0.1285 0.1677 0.3141   -0.175235
 C 0.8431 0.6655 0.2759   -0.191172
 C 0.1272 0.6242 0.8878   -0.136339
 C 0.9299 0.6412 0.2676   0.148106
 C 0.6865 0.3168 0.334   -0.190342
 C 0.6981 0.1626 0.6168   0.63612
 C 0.2996 0.3567 0.6441   0.093703
 C 0.7107 0.3289 0.4539   0.594199
 C 0.7284 0.9012 0.6528   -0.006794
 C 0.6887 0.0556 0.6266   -0.21154
 C 0.7319 0.3366 0.1788   0.017145
 C 0.37 0.4247 0.6109   -0.198024
 C 0.5829 0.972 0.606   -0.080633
 C 0.4702 0.4171 0.6099   0.167107
 C 0.5974 0.3062 0.258   -0.050688
 C 0.6285 0.3141 0.1677   -0.175235
 C 0.3431 0.2759 0.6655   -0.191176
 C 0.6272 0.8878 0.6242   -0.136338
 C 0.4299 0.2676 0.6412   0.148111
 C 0.8135 0.666 0.6832   -0.190342
 C 0.8019 0.3832 0.8374   0.636117
 C 0.2004 0.3559 0.6433   0.093704
 C 0.7893 0.5461 0.6711   0.594198
 C 0.7716 0.3472 0.0988   -0.006789
 C 0.8113 0.3734 0.9444   -0.211538
 C 0.7681 0.8212 0.6634   0.017149
 C 0.13 0.3891 0.5753   -0.198024
 C 0.9171 0.394 0.028   -0.080629
 C 0.0298 0.3901 0.5829   0.167107
 C 0.9026 0.742 0.6938   -0.050688
 C 0.8715 0.8323 0.6859   -0.175235
 C 0.1569 0.3345 0.7241   -0.191172
 C 0.8728 0.3758 0.1122   -0.136338
 C 0.0701 0.3588 0.7324   0.148106
 S 0.2025 0.97903 0.34297   0.125312
 S 0.2038 0.65858 0.7002   0.094364
 S 0.2975 0.65703 0.02097   0.12531
 S 0.2962 0.2998 0.34142   0.094364
 S 0.7975 0.02097 0.65703   0.125312
 S 0.7962 0.34142 0.2998   0.094364
 S 0.7025 0.34297 0.97903   0.12531
 S 0.7038 0.7002 0.65858   0.094364
 N 0.5008 0.6568 0.3716   -0.243518
 N 0.9992 0.6284 0.3432   -0.243517
 N 0.4992 0.3432 0.6284   -0.243518
 N 0.000799999999998 0.3716 0.6568   -0.243517
 O 0.385 0.8159 0.3969   -0.510583
 O 0.3821 0.6848 0.5288   -0.542444
 O 0.2002 0.7777 0.3593   -0.593645
 O 0.1935 0.6482 0.4896   -0.515041
 O 0.115 0.6031 0.1841   -0.510581
 O 0.1179 0.4712 0.3152   -0.542444
 O 0.2998 0.6407 0.2223   -0.593645
 O 0.3065 0.5104 0.3518   -0.515041
 O 0.615 0.1841 0.6031   -0.510583
 O 0.6179 0.3152 0.4712   -0.542444
 O 0.7998 0.2223 0.6407   -0.593645
 O 0.8065 0.3518 0.5104   -0.515041
 O 0.885 0.3969 0.8159   -0.510581
 O 0.8821 0.5288 0.6848   -0.542444
 O 0.7002 0.3593 0.7777   -0.593645
 O 0.6935 0.4896 0.6482   -0.515041
