{'_ref': 'TBD', '_srcid': 'CAKYAQ_clean', 'submitters': [{'name': 'Dalar Nazarian Jeff Camp and David Sholl', 'email': 'dalar@gatech.edu jcamp6@gatech.edu'}], '_method': 'VASP DFT with PBE;DDEC'}
data_Co3H6C18O13
_symmetry_space_group_name_H-M   'P 1'
_cell_length_a   7.17950000
_cell_length_b   11.48399995
_cell_length_c   14.79400000
_cell_angle_alpha   93.95999834
_cell_angle_beta   90.00000000
_cell_angle_gamma   90.00000000
_symmetry_Int_Tables_number   1
_chemical_formula_structural   Co3H6C18O13
_chemical_formula_sum   'Co6 H12 C36 O26'
_cell_volume   1216.84393576
_cell_formula_units_Z   2
loop_
 _symmetry_equiv_pos_site_id
 _symmetry_equiv_pos_as_xyz
  1  'x, y, z'
loop_
 _atom_site_label
 _atom_site_fract_x
 _atom_site_fract_y
 _atom_site_fract_z
 _atom_site_charge
 Co 0.42477 0.24406 0.85767   1.218216
 Co 0.82636 0.82222 0.34314   1.237332
 Co 0.59001 0.60576 0.19818   1.241094
 Co 0.92477 0.75594 0.14233   1.218217
 Co 0.32636 0.17778 0.65686   1.237332
 Co 0.09001 0.39424 0.80182   1.241094
 H 0.5659 0.899 0.9338   0.119658
 H 0.3259 0.7935 0.6975   0.107892
 H 0.3416 0.6013 0.7369   0.092056
 H 0.6538 0.3502 0.4073   0.112059
 H 0.7068 0.6437 0.5675   0.123771
 H 0.7175 0.5348 0.6926   0.103729
 H 0.0659 0.101 0.0662   0.119654
 H 0.8259 0.2065 0.3025   0.107887
 H 0.8416 0.3987 0.2631   0.092057
 H 0.1538 0.6498 0.5927   0.112046
 H 0.2068 0.3563 0.4325   0.123764
 H 0.2175 0.4652 0.3074   0.103726
 C 0.4657 0.6339 0.8597   -0.097539
 C 0.5349 0.7251 0.9184   -0.062135
 C 0.5208 0.8388 0.8945   -0.032912
 C 0.4402 0.8656 0.8123   -0.116782
 C 0.3762 0.7767 0.753   -0.027717
 C 0.387 0.661 0.7766   -0.084331
 C 0.4938 0.5088 0.8825   0.691606
 C 0.6205 0.7079 0.0108   0.712372
 C 0.4229 0.9915 0.7904   0.705421
 C 0.685 0.3758 0.6258   -0.124228
 C 0.6626 0.3205 0.5402   -0.085825
 C 0.6628 0.3873 0.465   -0.017237
 C 0.6764 0.508 0.4747   -0.148131
 C 0.6968 0.5629 0.5603   -0.034063
 C 0.7022 0.4976 0.6352   -0.054206
 C 0.6889 0.3168 0.714   0.752131
 C 0.6455 0.1886 0.5205   0.640752
 C 0.6795 0.5816 0.3945   0.720516
 C 0.9657 0.3661 0.1403   -0.097539
 C 0.0349 0.2749 0.0816   -0.062136
 C 0.0208 0.1612 0.1055   -0.032911
 C 0.9402 0.1344 0.1877   -0.116784
 C 0.8762 0.2233 0.247   -0.027714
 C 0.887 0.339 0.2234   -0.084332
 C 0.9938 0.4912 0.1175   0.691606
 C 0.1205 0.2921 0.9892   0.712372
 C 0.9229 0.0085 0.2096   0.705421
 C 0.185 0.6242 0.3742   -0.124224
 C 0.1626 0.6795 0.4598   -0.085827
 C 0.1628 0.6127 0.535   -0.017229
 C 0.1764 0.492 0.5253   -0.148132
 C 0.1968 0.4371 0.4397   -0.034056
 C 0.2022 0.5024 0.3648   -0.054206
 C 0.1889 0.6832 0.286   0.75213
 C 0.1455 0.8114 0.4795   0.640751
 C 0.1795 0.4184 0.6055   0.72052
 O 0.7277 0.6853 0.4095   -0.602343
 O 0.6332 0.5323 0.31802   -0.617212
 O 0.7608 0.1419 0.466   -0.458436
 O 0.5165 0.1326 0.5556   -0.531109
 O 0.5582 0.2468 0.73068   -0.664059
 O 0.8141 0.3428 0.7705   -0.574334
 O 0.4397 0.0651 0.8579   -0.579877
 O 0.3961 0.0137 0.71039   -0.532242
 O 0.5224 0.6638 0.0687   -0.547887
 O 0.7831 0.7471 0.02184   -0.566257
 O 0.632 0.4875 0.9299   -0.510111
 O 0.381 0.4302 0.84967   -0.703066
 O 0.1919 0.2309 0.77373   -0.806549
 O 0.2277 0.3147 0.5905   -0.602344
 O 0.1332 0.4677 0.68198   -0.617213
 O 0.2608 0.8581 0.534   -0.458449
 O 0.0165 0.8674 0.4444   -0.531118
 O 0.0582 0.7532 0.26932   -0.664059
 O 0.3141 0.6572 0.2295   -0.574333
 O 0.9397 0.9349 0.1421   -0.579876
 O 0.8961 0.9863 0.28961   -0.532245
 O 0.0224 0.3362 0.9313   -0.547885
 O 0.2831 0.2529 0.97816   -0.566256
 O 0.132 0.5125 0.0701   -0.51011
 O 0.881 0.5698 0.15033   -0.703066
 O 0.6919 0.7691 0.22627   -0.806548
