{'_ref': 'TBD', '_srcid': 'CAKYAQ_clean', 'submitters': [{'name': 'Dalar Nazarian Jeff Camp and David Sholl', 'email': 'dalar@gatech.edu jcamp6@gatech.edu'}], '_method': 'VASP DFT with PBE;DDEC'}
data_AlH5C8O5
_symmetry_space_group_name_H-M   'P 1'
_cell_length_a   6.64390000
_cell_length_b   14.95400013
_cell_length_c   15.08900000
_cell_angle_alpha   90.00000000
_cell_angle_beta   90.00000000
_cell_angle_gamma   90.89100175
_symmetry_Int_Tables_number   1
_chemical_formula_structural   AlH5C8O5
_chemical_formula_sum   'Al4 H20 C32 O20'
_cell_volume   1498.95436372
_cell_formula_units_Z   4
loop_
 _symmetry_equiv_pos_site_id
 _symmetry_equiv_pos_as_xyz
  1  'x, y, z'
loop_
 _atom_site_label
 _atom_site_fract_x
 _atom_site_fract_y
 _atom_site_fract_z
 _atom_site_charge
 Al 0.0 0.0 0.0   1.82835
 Al 0.5 0.5 0.5   1.82835
 Al 0.5 0.0 0.0   1.810501
 Al 0.0 0.5 0.5   1.810501
 H 0.74914 0.89654 0.02753   0.522716
 H 0.56869 0.21458 0.37471   0.10615
 H 0.57627 0.11246 0.25942   0.110687
 H 0.93498 0.37892 0.23834   0.107175
 H 0.94267 0.27686 0.123   0.111923
 H 0.75086 0.60346 0.52753   0.522716
 H 0.93131 0.28542 0.87471   0.106152
 H 0.92373 0.38754 0.75942   0.110687
 H 0.56502 0.12108 0.73834   0.107175
 H 0.55733 0.22314 0.623   0.111924
 H 0.25086 0.10346 0.97247   0.522719
 H 0.43131 0.78542 0.62529   0.106152
 H 0.42373 0.88754 0.74058   0.11069
 H 0.06502 0.62108 0.76166   0.107178
 H 0.05733 0.72314 0.877   0.111924
 H 0.24914 0.39654 0.47247   0.522719
 H 0.06869 0.71458 0.12529   0.106153
 H 0.07627 0.61246 0.24058   0.11069
 H 0.43498 0.87892 0.26166   0.107178
 H 0.44267 0.77686 0.377   0.111925
 C 0.73591 0.37493 0.38966   0.6984
 C 0.74728 0.30753 0.31677   -0.132832
 C 0.64274 0.22737 0.3238   -0.059385
 C 0.75777 0.12059 0.10382   0.756615
 C 0.76078 0.18445 0.17995   -0.112065
 C 0.64829 0.16604 0.2551   -0.076556
 C 0.86166 0.3256 0.24229   -0.058709
 C 0.86734 0.26432 0.17354   -0.078828
 C 0.76409 0.12507 0.88966   0.6984
 C 0.75272 0.19247 0.81677   -0.132832
 C 0.85726 0.27263 0.8238   -0.059385
 C 0.74223 0.37941 0.60382   0.756615
 C 0.73922 0.31555 0.67995   -0.112065
 C 0.85171 0.33396 0.7551   -0.076556
 C 0.63834 0.1744 0.74229   -0.058709
 C 0.63266 0.23568 0.67354   -0.078829
 C 0.26409 0.62507 0.61034   0.6984
 C 0.25272 0.69247 0.68323   -0.132832
 C 0.35726 0.77263 0.6762   -0.059385
 C 0.24223 0.87941 0.89618   0.756615
 C 0.23922 0.81555 0.82005   -0.112064
 C 0.35171 0.83396 0.7449   -0.076557
 C 0.13834 0.6744 0.75771   -0.05871
 C 0.13266 0.73568 0.82646   -0.078828
 C 0.23591 0.87493 0.11034   0.6984
 C 0.24728 0.80753 0.18323   -0.132832
 C 0.14274 0.72737 0.1762   -0.059386
 C 0.25777 0.62059 0.39618   0.756615
 C 0.26078 0.68445 0.32005   -0.112064
 C 0.14829 0.66604 0.2449   -0.076557
 C 0.36166 0.8256 0.25771   -0.05871
 C 0.36734 0.76432 0.32646   -0.078829
 O 0.75077 0.94799 0.01019   -1.138713
 O 0.925 0.09544 0.07478   -0.650346
 O 0.88399 0.42765 0.39896   -0.667898
 O 0.58819 0.09544 0.07545   -0.657686
 O 0.57943 0.37391 0.43677   -0.600077
 O 0.74923 0.55201 0.51019   -1.138713
 O 0.575 0.40456 0.57478   -0.650347
 O 0.61601 0.07235 0.89896   -0.667898
 O 0.91181 0.40456 0.57545   -0.657686
 O 0.92057 0.12609 0.93677   -0.600078
 O 0.24923 0.05201 0.98981   -1.138715
 O 0.075 0.90456 0.92522   -0.650346
 O 0.11601 0.57235 0.60104   -0.667898
 O 0.41181 0.90456 0.92455   -0.657686
 O 0.42057 0.62609 0.56323   -0.600077
 O 0.25077 0.44799 0.48981   -1.138715
 O 0.425 0.59544 0.42522   -0.650347
 O 0.38399 0.92765 0.10104   -0.667898
 O 0.08819 0.59544 0.42455   -0.657686
 O 0.07943 0.87391 0.06323   -0.600078
