{'_ref': 'TBD', '_srcid': 'CAKYAQ_clean', 'submitters': [{'name': 'Dalar Nazarian Jeff Camp and David Sholl', 'email': 'dalar@gatech.edu jcamp6@gatech.edu'}], '_method': 'VASP DFT with PBE;DDEC'}
data_Ni2H6(C5N2)3
_symmetry_space_group_name_H-M   'P 1'
_cell_length_a   18.73180030
_cell_length_b   18.73180031
_cell_length_c   18.73180000
_cell_angle_alpha   60.00000056
_cell_angle_beta   60.00000052
_cell_angle_gamma   60.00000038
_symmetry_Int_Tables_number   1
_chemical_formula_structural   Ni2H6(C5N2)3
_chemical_formula_sum   'Ni8 H24 C60 N24'
_cell_volume   4647.54450836
_cell_formula_units_Z   4
loop_
 _symmetry_equiv_pos_site_id
 _symmetry_equiv_pos_as_xyz
  1  'x, y, z'
loop_
 _atom_site_label
 _atom_site_fract_x
 _atom_site_fract_y
 _atom_site_fract_z
 _atom_site_charge
 Ni 0.84004 0.05332 0.05332   0.134502
 Ni 0.05332 0.84004 0.05332   0.134502
 Ni 0.05332 0.05332 0.84004   0.134502
 Ni 0.05332 0.05332 0.05332   0.134502
 Ni 0.94668 0.15996 0.94668   0.134487
 Ni 0.15996 0.94668 0.94668   0.134487
 Ni 0.94668 0.94668 0.15996   0.134487
 Ni 0.94668 0.94668 0.94668   0.134487
 H 0.6294 0.07564 0.07564   0.117134
 H 0.07564 0.6294 0.21932   0.117134
 H 0.07564 0.21932 0.6294   0.117134
 H 0.21932 0.07564 0.07564   0.117134
 H 0.6294 0.07564 0.21932   0.117134
 H 0.07564 0.21932 0.07564   0.117134
 H 0.07564 0.6294 0.07564   0.117134
 H 0.21932 0.07564 0.6294   0.117134
 H 0.6294 0.21932 0.07564   0.117134
 H 0.07564 0.07564 0.6294   0.117135
 H 0.07564 0.07564 0.21932   0.117134
 H 0.21932 0.6294 0.07564   0.117134
 H 0.92436 0.3706 0.92436   0.117135
 H 0.3706 0.92436 0.78068   0.117135
 H 0.78068 0.92436 0.3706   0.117135
 H 0.92436 0.78068 0.92436   0.117135
 H 0.92436 0.3706 0.78068   0.117135
 H 0.78068 0.92436 0.92436   0.117135
 H 0.3706 0.92436 0.92436   0.117135
 H 0.92436 0.78068 0.3706   0.117135
 H 0.78068 0.3706 0.92436   0.117135
 H 0.92436 0.92436 0.3706   0.117135
 H 0.92436 0.92436 0.78068   0.117135
 H 0.3706 0.78068 0.92436   0.117135
 C 0.5371 0.0 0.0   -0.056623
 C 0.60384 0.0 0.0   -0.031328
 C 0.67804 0.0 0.0   -0.005686
 C 0.0 0.5371 0.4629   -0.056623
 C 0.0 0.60384 0.39616   -0.031328
 C 0.0 0.67804 0.32196   -0.005687
 C 0.0 0.4629 0.5371   -0.056628
 C 0.0 0.39616 0.60384   -0.031327
 C 0.0 0.32196 0.67804   -0.005687
 C 0.4629 0.0 0.0   -0.056629
 C 0.39616 0.0 0.0   -0.031327
 C 0.32196 0.0 0.0   -0.005687
 C 0.5371 0.0 0.4629   -0.056623
 C 0.60384 0.0 0.39616   -0.031328
 C 0.67804 0.0 0.32196   -0.005687
 C 0.0 0.4629 0.0   -0.056623
 C 0.0 0.39616 0.0   -0.031328
 C 0.0 0.32196 0.0   -0.005686
 C 0.0 0.5371 0.0   -0.056629
 C 0.0 0.60384 0.0   -0.031327
 C 0.0 0.67804 0.0   -0.005687
 C 0.4629 0.0 0.5371   -0.056628
 C 0.39616 0.0 0.60384   -0.031327
 C 0.32196 0.0 0.67804   -0.005687
 C 0.5371 0.4629 0.0   -0.056623
 C 0.60384 0.39616 0.0   -0.031328
 C 0.67804 0.32196 0.0   -0.005687
 C 0.0 0.0 0.5371   -0.056623
 C 0.0 0.0 0.60384   -0.031328
 C 0.0 0.0 0.67804   -0.005686
 C 0.0 0.0 0.4629   -0.056629
 C 0.0 0.0 0.39616   -0.031327
 C 0.0 0.0 0.32196   -0.005687
 C 0.4629 0.5371 0.0   -0.056629
 C 0.39616 0.60384 0.0   -0.031327
 C 0.32196 0.67804 0.0   -0.005687
 C 0.67919 0.04153 0.04153   -0.021756
 C 0.04153 0.67919 0.23775   -0.021756
 C 0.04153 0.23775 0.67919   -0.021755
 C 0.23775 0.04153 0.04153   -0.021755
 C 0.67919 0.04153 0.23775   -0.021755
 C 0.04153 0.23775 0.04153   -0.021755
 C 0.04153 0.67919 0.04153   -0.021755
 C 0.23775 0.04153 0.67919   -0.021755
 C 0.67919 0.23775 0.04153   -0.021755
 C 0.04153 0.04153 0.67919   -0.021755
 C 0.04153 0.04153 0.23775   -0.021754
 C 0.23775 0.67919 0.04153   -0.021755
 C 0.95847 0.32081 0.95847   -0.021761
 C 0.32081 0.95847 0.76225   -0.021761
 C 0.76225 0.95847 0.32081   -0.021761
 C 0.95847 0.76225 0.95847   -0.021761
 C 0.95847 0.32081 0.76225   -0.021761
 C 0.76225 0.95847 0.95847   -0.02176
 C 0.32081 0.95847 0.95847   -0.021761
 C 0.95847 0.76225 0.32081   -0.021761
 C 0.76225 0.32081 0.95847   -0.021761
 C 0.95847 0.95847 0.32081   -0.02176
 C 0.95847 0.95847 0.76225   -0.02176
 C 0.32081 0.76225 0.95847   -0.021761
 N 0.76409 0.02567 0.02567   -0.093404
 N 0.02567 0.76409 0.18457   -0.093404
 N 0.02567 0.18457 0.76409   -0.093404
 N 0.18457 0.02567 0.02567   -0.093403
 N 0.76409 0.02567 0.18457   -0.093404
 N 0.02567 0.18457 0.02567   -0.093403
 N 0.02567 0.76409 0.02567   -0.093404
 N 0.18457 0.02567 0.76409   -0.093404
 N 0.76409 0.18457 0.02567   -0.093404
 N 0.02567 0.02567 0.76409   -0.093404
 N 0.02567 0.02567 0.18457   -0.093403
 N 0.18457 0.76409 0.02567   -0.093404
 N 0.97433 0.23591 0.97433   -0.093373
 N 0.23591 0.97433 0.81543   -0.093373
 N 0.81543 0.97433 0.23591   -0.093373
 N 0.97433 0.81543 0.97433   -0.093372
 N 0.97433 0.23591 0.81543   -0.093373
 N 0.81543 0.97433 0.97433   -0.093372
 N 0.23591 0.97433 0.97433   -0.093373
 N 0.97433 0.81543 0.23591   -0.093373
 N 0.81543 0.23591 0.97433   -0.093373
 N 0.97433 0.97433 0.23591   -0.093373
 N 0.97433 0.97433 0.81543   -0.093372
 N 0.23591 0.81543 0.97433   -0.093373
