{'_ref': 'TBD', '_srcid': 'CAKYAQ_clean', 'submitters': [{'name': 'Dalar Nazarian Jeff Camp and David Sholl', 'email': 'dalar@gatech.edu jcamp6@gatech.edu'}], '_method': 'VASP DFT with PBE;DDEC'}
data_Ca3P2H24C42O13
_symmetry_space_group_name_H-M   'P 1'
_cell_length_a   9.50540000
_cell_length_b   23.47600000
_cell_length_c   27.62900000
_cell_angle_alpha   90.00000000
_cell_angle_beta   90.00000000
_cell_angle_gamma   90.00000000
_symmetry_Int_Tables_number   1
_chemical_formula_structural   Ca3P2H24C42O13
_chemical_formula_sum   'Ca12 P8 H96 C168 O52'
_cell_volume   6165.37737738
_cell_formula_units_Z   4
loop_
 _symmetry_equiv_pos_site_id
 _symmetry_equiv_pos_as_xyz
  1  'x, y, z'
loop_
 _atom_site_label
 _atom_site_fract_x
 _atom_site_fract_y
 _atom_site_fract_z
 _atom_site_charge
 Ca 0.34928 0.70144 0.87208   1.529099
 Ca 0.65072 0.79856 0.87208   1.529095
 Ca 0.34928 0.29856 0.62792   1.529099
 Ca 0.65072 0.20144 0.62792   1.529095
 Ca 0.65072 0.29856 0.12792   1.529099
 Ca 0.34928 0.20144 0.12792   1.529095
 Ca 0.65072 0.70144 0.37208   1.529099
 Ca 0.34928 0.79856 0.37208   1.529095
 Ca 0.0 0.75 0.8933   1.506406
 Ca 0.0 0.25 0.6067   1.506406
 Ca 0.0 0.25 0.1067   1.506406
 Ca 0.0 0.75 0.3933   1.506406
 P 0.3116 0.08372 0.8389   0.109923
 P 0.6884 0.41628 0.8389   0.109923
 P 0.3116 0.91628 0.6611   0.109923
 P 0.6884 0.58372 0.6611   0.109923
 P 0.6884 0.91628 0.1611   0.109923
 P 0.3116 0.58372 0.1611   0.109923
 P 0.6884 0.08372 0.3389   0.109923
 P 0.3116 0.41628 0.3389   0.109923
 H 0.4479 0.9939 0.794   0.100642
 H 0.4537 0.8943 0.7994   0.113222
 H 0.1453 0.8996 0.8985   0.111376
 H 0.1492 0.9974 0.8976   0.099927
 H 0.4329 0.1296 0.9225   0.106281
 H 0.3594 0.1635 0.9972   0.10331
 H 0.9534 0.1331 0.9595   0.116155
 H 0.0317 0.0988 0.8851   0.098503
 H 0.259 0.1776 0.7792   0.109867
 H 0.0906 0.2068 0.7239   0.105824
 H 0.8766 0.0602 0.7438   0.112687
 H 0.0545 0.0292 0.7984   0.086697
 H 0.5521 0.5061 0.794   0.100642
 H 0.5463 0.6057 0.7994   0.113222
 H 0.8547 0.6004 0.8985   0.111376
 H 0.8508 0.5026 0.8976   0.099927
 H 0.5671 0.3704 0.9225   0.106281
 H 0.6406 0.3365 0.9972   0.10331
 H 0.0466 0.3669 0.9595   0.116154
 H 0.9683 0.4012 0.8851   0.098503
 H 0.741 0.3224 0.7792   0.109867
 H 0.9094 0.2932 0.7239   0.105824
 H 0.1234 0.4398 0.7438   0.112687
 H 0.9455 0.4708 0.7984   0.086697
 H 0.4479 0.0061 0.706   0.100648
 H 0.4537 0.1057 0.7006   0.113223
 H 0.1453 0.1004 0.6015   0.111376
 H 0.1492 0.0026 0.6024   0.099927
 H 0.4329 0.8704 0.5775   0.106281
 H 0.3594 0.8365 0.5028   0.10331
 H 0.9534 0.8669 0.5405   0.116155
 H 0.0317 0.9012 0.6149   0.098503
 H 0.259 0.8224 0.7208   0.109867
 H 0.0906 0.7932 0.7761   0.105823
 H 0.8766 0.9398 0.7562   0.112694
 H 0.0545 0.9708 0.7016   0.086698
 H 0.5521 0.4939 0.706   0.100648
 H 0.5463 0.3943 0.7006   0.113223
 H 0.8547 0.3996 0.6015   0.111376
 H 0.8508 0.4974 0.6024   0.099927
 H 0.5671 0.6296 0.5775   0.106281
 H 0.6406 0.6635 0.5028   0.10331
 H 0.0466 0.6331 0.5405   0.116154
 H 0.9683 0.5988 0.6149   0.098503
 H 0.741 0.6776 0.7208   0.109867
 H 0.9094 0.7068 0.7761   0.105824
 H 0.1234 0.5602 0.7562   0.112694
 H 0.9455 0.5292 0.7016   0.086698
 H 0.5521 0.0061 0.206   0.100642
 H 0.5463 0.1057 0.2006   0.113222
 H 0.8547 0.1004 0.1015   0.111376
 H 0.8508 0.0026 0.1024   0.099927
 H 0.5671 0.8704 0.0775   0.106281
 H 0.6406 0.8365 0.0028   0.10331
 H 0.0466 0.8669 0.0405   0.116154
 H 0.9683 0.9012 0.1149   0.098503
 H 0.741 0.8224 0.2208   0.109867
 H 0.9094 0.7932 0.2761   0.105824
 H 0.1234 0.9398 0.2562   0.112687
 H 0.9455 0.9708 0.2016   0.086697
 H 0.4479 0.4939 0.206   0.100642
 H 0.4537 0.3943 0.2006   0.113222
 H 0.1453 0.3996 0.1015   0.111376
 H 0.1492 0.4974 0.1024   0.099927
 H 0.4329 0.6296 0.0775   0.106281
 H 0.3594 0.6635 0.0028   0.10331
 H 0.9534 0.6331 0.0405   0.116154
 H 0.0317 0.5988 0.1149   0.098503
 H 0.259 0.6776 0.2208   0.109867
 H 0.0906 0.7068 0.2761   0.105824
 H 0.8766 0.5602 0.2562   0.112687
 H 0.0545 0.5292 0.2016   0.086697
 H 0.5521 0.9939 0.294   0.100648
 H 0.5463 0.8943 0.2994   0.113223
 H 0.8547 0.8996 0.3985   0.111376
 H 0.8508 0.9974 0.3976   0.099927
 H 0.5671 0.1296 0.4225   0.106281
 H 0.6406 0.1635 0.4972   0.10331
 H 0.0466 0.1331 0.4595   0.116154
 H 0.9683 0.0988 0.3851   0.098503
 H 0.741 0.1776 0.2792   0.109867
 H 0.9094 0.2068 0.2239   0.105823
 H 0.1234 0.0602 0.2438   0.112694
 H 0.9455 0.0292 0.2984   0.086698
 H 0.4479 0.5061 0.294   0.100648
 H 0.4537 0.6057 0.2994   0.113223
 H 0.1453 0.6004 0.3985   0.111376
 H 0.1492 0.5026 0.3976   0.099927
 H 0.4329 0.3704 0.4225   0.106281
 H 0.3594 0.3365 0.4972   0.10331
 H 0.9534 0.3669 0.4595   0.116154
 H 0.0317 0.4012 0.3851   0.098503
 H 0.259 0.3224 0.2792   0.109867
 H 0.0906 0.2932 0.2239   0.105824
 H 0.8766 0.4398 0.2438   0.112694
 H 0.0545 0.4708 0.2984   0.086698
 C 0.2991 0.0063 0.84458   -0.040112
 C 0.3873 0.9749 0.81612   -0.083255
 C 0.3899 0.9153 0.81889   -0.057057
 C 0.2996 0.8873 0.85008   -0.14381
 C 0.2097 0.9187 0.8778   -0.0184
 C 0.2098 0.9767 0.8766   -0.095493
 C 0.3108 0.8244 0.8549   0.712605
 C 0.2386 0.11 0.89669   -0.039338
 C 0.3354 0.1301 0.9301   -0.098035
 C 0.2917 0.1509 0.9743   -0.039275
 C 0.148 0.1536 0.98571   -0.11839
 C 0.051 0.133 0.9522   -0.046282
 C 0.0985 0.1121 0.9081   -0.090805
 C 0.0994 0.1795 0.0313   0.693865
 C 0.1709 0.1008 0.79534   -0.047398
 C 0.1815 0.1534 0.7722   -0.081053
 C 0.0813 0.1708 0.73935   -0.045808
 C 0.9682 0.1367 0.72868   -0.112759
 C 0.9549 0.0839 0.7507   -0.055906
 C 0.0607 0.0659 0.784   -0.085418
 C 0.8576 0.1574 0.69459   0.724976
 C 0.7009 0.4937 0.84458   -0.040112
 C 0.6127 0.5251 0.81612   -0.083255
 C 0.6101 0.5847 0.81889   -0.057057
 C 0.7004 0.6127 0.85008   -0.14381
 C 0.7903 0.5813 0.8778   -0.0184
 C 0.7902 0.5233 0.8766   -0.095493
 C 0.6892 0.6756 0.8549   0.712605
 C 0.7614 0.39 0.89669   -0.039338
 C 0.6646 0.3699 0.9301   -0.098035
 C 0.7083 0.3491 0.9743   -0.039273
 C 0.852 0.3464 0.98571   -0.118391
 C 0.949 0.367 0.9522   -0.04628
 C 0.9015 0.3879 0.9081   -0.090805
 C 0.9006 0.3205 0.0313   0.693865
 C 0.8291 0.3992 0.79534   -0.047398
 C 0.8185 0.3466 0.7722   -0.081052
 C 0.9187 0.3292 0.73935   -0.045807
 C 0.0318 0.3633 0.72868   -0.11276
 C 0.0451 0.4161 0.7507   -0.055906
 C 0.9393 0.4341 0.784   -0.085418
 C 0.1424 0.3426 0.69459   0.724976
 C 0.2991 0.9937 0.65542   -0.040111
 C 0.3873 0.0251 0.68388   -0.083257
 C 0.3899 0.0847 0.68111   -0.057056
 C 0.2996 0.1127 0.64992   -0.143809
 C 0.2097 0.0813 0.6222   -0.0184
 C 0.2098 0.0233 0.6234   -0.095493
 C 0.3108 0.1756 0.6451   0.712605
 C 0.2386 0.89 0.60331   -0.039338
 C 0.3354 0.8699 0.5699   -0.098035
 C 0.2917 0.8491 0.5257   -0.039275
 C 0.148 0.8464 0.51429   -0.11839
 C 0.051 0.867 0.5478   -0.046282
 C 0.0985 0.8879 0.5919   -0.090805
 C 0.0994 0.8205 0.4687   0.693865
 C 0.1709 0.8992 0.70466   -0.047398
 C 0.1815 0.8466 0.7278   -0.081052
 C 0.0813 0.8292 0.76065   -0.045808
 C 0.9682 0.8633 0.77132   -0.112758
 C 0.9549 0.9161 0.7493   -0.055908
 C 0.0607 0.9341 0.716   -0.085417
 C 0.8576 0.8426 0.80541   0.724976
 C 0.7009 0.5063 0.65542   -0.040111
 C 0.6127 0.4749 0.68388   -0.083257
 C 0.6101 0.4153 0.68111   -0.057056
 C 0.7004 0.3873 0.64992   -0.143809
 C 0.7903 0.4187 0.6222   -0.0184
 C 0.7902 0.4767 0.6234   -0.095493
 C 0.6892 0.3244 0.6451   0.712605
 C 0.7614 0.61 0.60331   -0.039338
 C 0.6646 0.6301 0.5699   -0.098035
 C 0.7083 0.6509 0.5257   -0.039273
 C 0.852 0.6536 0.51429   -0.118391
 C 0.949 0.633 0.5478   -0.04628
 C 0.9015 0.6121 0.5919   -0.090805
 C 0.9006 0.6795 0.4687   0.693865
 C 0.8291 0.6008 0.70466   -0.047398
 C 0.8185 0.6534 0.7278   -0.081051
 C 0.9187 0.6708 0.76065   -0.045807
 C 0.0318 0.6367 0.77132   -0.112758
 C 0.0451 0.5839 0.7493   -0.055908
 C 0.9393 0.5659 0.716   -0.085417
 C 0.1424 0.6574 0.80541   0.724976
 C 0.7009 0.9937 0.15542   -0.040112
 C 0.6127 0.0251 0.18388   -0.083255
 C 0.6101 0.0847 0.18111   -0.057057
 C 0.7004 0.1127 0.14992   -0.14381
 C 0.7903 0.0813 0.1222   -0.0184
 C 0.7902 0.0233 0.1234   -0.095494
 C 0.6892 0.1756 0.1451   0.712605
 C 0.7614 0.89 0.10331   -0.039338
 C 0.6646 0.8699 0.0699   -0.098036
 C 0.7083 0.8491 0.0257   -0.039275
 C 0.852 0.8464 0.01429   -0.11839
 C 0.949 0.867 0.0478   -0.046282
 C 0.9015 0.8879 0.0919   -0.090806
 C 0.9006 0.8205 0.9687   0.693865
 C 0.8291 0.8992 0.20466   -0.047398
 C 0.8185 0.8466 0.2278   -0.081053
 C 0.9187 0.8292 0.26065   -0.045808
 C 0.0318 0.8633 0.27132   -0.112759
 C 0.0451 0.9161 0.2493   -0.055906
 C 0.9393 0.9341 0.216   -0.085418
 C 0.1424 0.8426 0.30541   0.724976
 C 0.2991 0.5063 0.15542   -0.040112
 C 0.3873 0.4749 0.18388   -0.083255
 C 0.3899 0.4153 0.18111   -0.057057
 C 0.2996 0.3873 0.14992   -0.14381
 C 0.2097 0.4187 0.1222   -0.0184
 C 0.2098 0.4767 0.1234   -0.095494
 C 0.3108 0.3244 0.1451   0.712605
 C 0.2386 0.61 0.10331   -0.039337
 C 0.3354 0.6301 0.0699   -0.098037
 C 0.2917 0.6509 0.0257   -0.039274
 C 0.148 0.6536 0.01429   -0.118391
 C 0.051 0.633 0.0478   -0.04628
 C 0.0985 0.6121 0.0919   -0.090805
 C 0.0994 0.6795 0.9687   0.693865
 C 0.1709 0.6008 0.20466   -0.047398
 C 0.1815 0.6534 0.2278   -0.081052
 C 0.0813 0.6708 0.26065   -0.045807
 C 0.9682 0.6367 0.27132   -0.11276
 C 0.9549 0.5839 0.2493   -0.055906
 C 0.0607 0.5659 0.216   -0.085418
 C 0.8576 0.6574 0.30541   0.724976
 C 0.7009 0.0063 0.34458   -0.040111
 C 0.6127 0.9749 0.31612   -0.083257
 C 0.6101 0.9153 0.31889   -0.057056
 C 0.7004 0.8873 0.35008   -0.143809
 C 0.7903 0.9187 0.3778   -0.0184
 C 0.7902 0.9767 0.3766   -0.095494
 C 0.6892 0.8244 0.3549   0.712605
 C 0.7614 0.11 0.39669   -0.039338
 C 0.6646 0.1301 0.4301   -0.098036
 C 0.7083 0.1509 0.4743   -0.039275
 C 0.852 0.1536 0.48571   -0.11839
 C 0.949 0.133 0.4522   -0.046282
 C 0.9015 0.1121 0.4081   -0.090806
 C 0.9006 0.1795 0.5313   0.693865
 C 0.8291 0.1008 0.29534   -0.047398
 C 0.8185 0.1534 0.2722   -0.081052
 C 0.9187 0.1708 0.23935   -0.045808
 C 0.0318 0.1367 0.22868   -0.112758
 C 0.0451 0.0839 0.2507   -0.055908
 C 0.9393 0.0659 0.284   -0.085417
 C 0.1424 0.1574 0.19459   0.724976
 C 0.2991 0.4937 0.34458   -0.040111
 C 0.3873 0.5251 0.31612   -0.083257
 C 0.3899 0.5847 0.31889   -0.057056
 C 0.2996 0.6127 0.35008   -0.143809
 C 0.2097 0.5813 0.3778   -0.0184
 C 0.2098 0.5233 0.3766   -0.095494
 C 0.3108 0.6756 0.3549   0.712605
 C 0.2386 0.39 0.39669   -0.039337
 C 0.3354 0.3699 0.4301   -0.098037
 C 0.2917 0.3491 0.4743   -0.039274
 C 0.148 0.3464 0.48571   -0.118391
 C 0.051 0.367 0.4522   -0.04628
 C 0.0985 0.3879 0.4081   -0.090805
 C 0.0994 0.3205 0.5313   0.693865
 C 0.1709 0.3992 0.29534   -0.047398
 C 0.1815 0.3466 0.2722   -0.081051
 C 0.0813 0.3292 0.23935   -0.045807
 C 0.9682 0.3633 0.22868   -0.112758
 C 0.9549 0.4161 0.2507   -0.055908
 C 0.0607 0.4341 0.284   -0.085417
 C 0.8576 0.3426 0.19459   0.724976
 O 0.214 0.79779 0.87628   -0.687206
 O 0.4181 0.79905 0.83877   -0.735483
 O 0.9691 0.1836 0.03907   -0.592965
 O 0.1888 0.19751 0.06219   -0.768819
 O 0.8877 0.19655 0.66583   -0.766312
 O 0.7365 0.136 0.69505   -0.681888
 O 0.786 0.70221 0.87628   -0.687206
 O 0.5819 0.70095 0.83877   -0.735483
 O 0.0309 0.3164 0.03907   -0.592965
 O 0.8112 0.30249 0.06219   -0.768819
 O 0.1123 0.30345 0.66583   -0.766313
 O 0.2635 0.364 0.69505   -0.681888
 O 0.214 0.20221 0.62372   -0.687205
 O 0.4181 0.20095 0.66123   -0.735483
 O 0.9691 0.8164 0.46093   -0.592965
 O 0.1888 0.80249 0.43781   -0.768819
 O 0.8877 0.80345 0.83417   -0.766312
 O 0.7365 0.864 0.80495   -0.681888
 O 0.786 0.29779 0.62372   -0.687205
 O 0.5819 0.29905 0.66123   -0.735483
 O 0.0309 0.6836 0.46093   -0.592965
 O 0.8112 0.69751 0.43781   -0.768819
 O 0.1123 0.69655 0.83417   -0.766312
 O 0.2635 0.636 0.80495   -0.681888
 O 0.786 0.20221 0.12372   -0.687206
 O 0.5819 0.20095 0.16123   -0.735483
 O 0.0309 0.8164 0.96093   -0.592966
 O 0.8112 0.80249 0.93781   -0.768819
 O 0.1123 0.80345 0.33417   -0.766312
 O 0.2635 0.864 0.30495   -0.681888
 O 0.214 0.29779 0.12372   -0.687206
 O 0.4181 0.29905 0.16123   -0.735483
 O 0.9691 0.6836 0.96093   -0.592966
 O 0.1888 0.69751 0.93781   -0.768819
 O 0.8877 0.69655 0.33417   -0.766313
 O 0.7365 0.636 0.30495   -0.681888
 O 0.786 0.79779 0.37628   -0.687206
 O 0.5819 0.79905 0.33877   -0.735483
 O 0.0309 0.1836 0.53907   -0.592966
 O 0.8112 0.19751 0.56219   -0.768819
 O 0.1123 0.19655 0.16583   -0.766312
 O 0.2635 0.136 0.19505   -0.681888
 O 0.214 0.70221 0.37628   -0.687206
 O 0.4181 0.70095 0.33877   -0.735483
 O 0.9691 0.3164 0.53907   -0.592966
 O 0.1888 0.30249 0.56219   -0.768819
 O 0.8877 0.30345 0.16583   -0.766312
 O 0.7365 0.364 0.19505   -0.681888
 O 0.5 0.75 0.93304   -0.513804
 O 0.5 0.25 0.56696   -0.513804
 O 0.5 0.25 0.06696   -0.513804
 O 0.5 0.75 0.43304   -0.513804
