{'_ref': 'TBD', '_srcid': 'CAKYAQ_clean', 'submitters': [{'name': 'Dalar Nazarian Jeff Camp and David Sholl', 'email': 'dalar@gatech.edu jcamp6@gatech.edu'}], '_method': 'VASP DFT with PBE;DDEC'}
data_FeH28C22(SN5)2
_symmetry_space_group_name_H-M   'P 1'
_cell_length_a   10.98599959
_cell_length_b   15.10940000
_cell_length_c   15.10940039
_cell_angle_alpha   114.32350085
_cell_angle_beta   104.02599955
_cell_angle_gamma   104.02620011
_symmetry_Int_Tables_number   1
_chemical_formula_structural   FeH28C22(SN5)2
_chemical_formula_sum   'Fe3 H84 C66 S6 N30'
_cell_volume   2044.44110865
_cell_formula_units_Z   3
loop_
 _symmetry_equiv_pos_site_id
 _symmetry_equiv_pos_as_xyz
  1  'x, y, z'
loop_
 _atom_site_label
 _atom_site_fract_x
 _atom_site_fract_y
 _atom_site_fract_z
 _atom_site_charge
 Fe 0.5 0.5 0.5   0.483791
 Fe 0.0 0.0 0.5   0.483777
 Fe 0.0 0.5 0.0   0.484014
 H 0.233 0.468 0.3448   0.241053
 H 0.4774 0.708 0.6874   0.126834
 H 0.3519 0.7309 0.7071   0.12112
 H 0.4454 0.7993 0.6762   0.127211
 H 0.0343 0.4703 0.2417   0.123784
 H 0.0439 0.5857 0.2757   0.1277
 H 0.9554 0.5181 0.31   0.131587
 H 0.0263 0.7576 0.711   0.12378
 H 0.1596 0.7363 0.7134   0.128559
 H 0.018 0.6483 0.6286   0.133598
 H 0.135 0.8555 0.3752   0.131352
 H 0.1278 0.7397 0.3308   0.113799
 H 0.2628 0.834 0.4186   0.126878
 H 0.991 0.8605 0.6285   0.224578
 H 0.767 0.532 0.6552   0.241053
 H 0.5226 0.292 0.3126   0.126834
 H 0.6481 0.2691 0.2929   0.12112
 H 0.5546 0.2007 0.3238   0.127211
 H 0.9657 0.5297 0.7583   0.123784
 H 0.9561 0.4143 0.7243   0.1277
 H 0.0446 0.4819 0.69   0.131588
 H 0.9737 0.2424 0.289   0.12378
 H 0.8404 0.2637 0.2866   0.128559
 H 0.982 0.3517 0.3714   0.133599
 H 0.865 0.1445 0.6248   0.131352
 H 0.8722 0.2603 0.6692   0.113799
 H 0.7372 0.166 0.5814   0.126878
 H 0.009 0.1395 0.3715   0.224578
 H 0.765 0.8768 0.532   0.241447
 H 0.7694 0.9794 0.292   0.127778
 H 0.621 0.9762 0.2691   0.122168
 H 0.6461 0.8769 0.2007   0.128327
 H 0.564 0.7714 0.5297   0.123681
 H 0.4582 0.69 0.4143   0.127447
 H 0.4373 0.7919 0.4819   0.130656
 H 0.2687 0.9534 0.2424   0.122771
 H 0.4233 0.9771 0.2637   0.128365
 H 0.3697 0.9803 0.3517   0.133576
 H 0.2795 0.5197 0.1445   0.131456
 H 0.3881 0.5911 0.2603   0.114074
 H 0.4288 0.5846 0.166   0.127919
 H 0.1305 0.768 0.1395   0.226281
 H 0.235 0.1232 0.468   0.241447
 H 0.2306 0.0206 0.708   0.127778
 H 0.379 0.0238 0.7309   0.122168
 H 0.3539 0.1231 0.7993   0.128327
 H 0.436 0.2286 0.4703   0.123681
 H 0.5418 0.31 0.5857   0.127447
 H 0.5627 0.2081 0.5181   0.130656
 H 0.7313 0.0466 0.7576   0.122771
 H 0.5767 0.0229 0.7363   0.128365
 H 0.6303 0.0197 0.6483   0.133577
 H 0.7205 0.4803 0.8555   0.131456
 H 0.6119 0.4089 0.7397   0.114074
 H 0.5712 0.4154 0.834   0.127919
 H 0.8695 0.232 0.8605   0.226281
 H 0.8882 0.6552 0.1232   0.241664
 H 0.79 0.3126 0.0206   0.128221
 H 0.6448 0.2929 0.0238   0.122143
 H 0.7692 0.3238 0.1231   0.128501
 H 0.7926 0.7583 0.2286   0.123388
 H 0.7682 0.7243 0.31   0.127089
 H 0.6454 0.69 0.2081   0.130717
 H 0.3153 0.289 0.0466   0.124033
 H 0.4462 0.2866 0.0229   0.12886
 H 0.3894 0.3714 0.0197   0.132922
 H 0.7598 0.6248 0.4803   0.131623
 H 0.797 0.6692 0.4089   0.113446
 H 0.8442 0.5814 0.4154   0.126645
 H 0.3625 0.3715 0.232   0.226537
 H 0.1118 0.3448 0.8768   0.241664
 H 0.21 0.6874 0.9794   0.128221
 H 0.3552 0.7071 0.9762   0.122143
 H 0.2308 0.6762 0.8769   0.128501
 H 0.2074 0.2417 0.7714   0.123388
 H 0.2318 0.2757 0.69   0.127089
 H 0.3546 0.31 0.7919   0.130717
 H 0.6847 0.711 0.9534   0.124033
 H 0.5538 0.7134 0.9771   0.12886
 H 0.6106 0.6286 0.9803   0.132922
 H 0.2402 0.3752 0.5197   0.131623
 H 0.203 0.3308 0.5911   0.113446
 H 0.1558 0.4186 0.5846   0.126645
 H 0.6375 0.6285 0.768   0.226537
 C 0.27546 0.26436 0.34882   0.308357
 C 0.3189 0.6553 0.5526   0.224683
 C 0.20211 0.66031 0.49242   -0.181495
 C 0.1558 0.5735 0.3935   0.180148
 C 0.4061 0.7299 0.6658   -0.362724
 C 0.037 0.5334 0.2968   -0.37403
 C 0.0838 0.7636 0.5958   0.172671
 C 0.14229 0.73976 0.52241   -0.189512
 C 0.1195 0.8002 0.4746   0.237649
 C 0.0708 0.7229 0.6686   -0.360357
 C 0.1652 0.8079 0.3925   -0.382303
 C 0.72454 0.73564 0.65118   0.308357
 C 0.6811 0.3447 0.4474   0.224683
 C 0.79789 0.33969 0.50758   -0.181495
 C 0.8442 0.4265 0.6065   0.180148
 C 0.5939 0.2701 0.3342   -0.362724
 C 0.963 0.4666 0.7032   -0.37403
 C 0.9162 0.2364 0.4042   0.172671
 C 0.85771 0.26024 0.47759   -0.189512
 C 0.8805 0.1998 0.5254   0.237649
 C 0.9292 0.2771 0.3314   -0.360358
 C 0.8348 0.1921 0.6075   -0.382303
 C 0.0111 0.08446 0.73564   0.309536
 C 0.6636 0.8973 0.3447   0.225121
 C 0.5418 0.83211 0.33969   -0.181847
 C 0.5823 0.82 0.4265   0.180347
 C 0.6762 0.9359 0.2701   -0.365936
 C 0.5036 0.7634 0.4666   -0.373346
 C 0.3202 0.8322 0.2364   0.172607
 C 0.40253 0.78265 0.26024   -0.189108
 C 0.3193 0.6744 0.1998   0.237809
 C 0.3479 0.9457 0.2771   -0.358948
 C 0.3573 0.5846 0.1921   -0.382585
 C 0.9889 0.91554 0.26436   0.309536
 C 0.3364 0.1027 0.6553   0.225121
 C 0.4582 0.16789 0.66031   -0.181847
 C 0.4177 0.18 0.5735   0.180347
 C 0.3238 0.0641 0.7299   -0.365936
 C 0.4964 0.2366 0.5334   -0.373346
 C 0.6798 0.1678 0.7636   0.172607
 C 0.59747 0.21735 0.73976   -0.189108
 C 0.6807 0.3256 0.8002   0.237809
 C 0.6521 0.0543 0.7229   -0.358949
 C 0.6427 0.4154 0.8079   -0.382585
 C 0.92664 0.65118 0.91554   0.310331
 C 0.7663 0.4474 0.1027   0.224596
 C 0.70969 0.50758 0.16789   -0.181765
 C 0.7623 0.6065 0.18   0.179522
 C 0.7403 0.3342 0.0641   -0.366403
 C 0.7402 0.7032 0.2366   -0.37156
 C 0.488 0.4042 0.1678   0.172274
 C 0.61988 0.47759 0.21735   -0.189196
 C 0.6449 0.5254 0.3256   0.237125
 C 0.4022 0.3314 0.0543   -0.36075
 C 0.7727 0.6075 0.4154   -0.38202
 C 0.07336 0.34882 0.08446   0.31033
 C 0.2337 0.5526 0.8973   0.224596
 C 0.29031 0.49242 0.83211   -0.181765
 C 0.2377 0.3935 0.82   0.179522
 C 0.2597 0.6658 0.9359   -0.366404
 C 0.2598 0.2968 0.7634   -0.37156
 C 0.512 0.5958 0.8322   0.172274
 C 0.38012 0.52241 0.78265   -0.189196
 C 0.3551 0.4746 0.6744   0.237125
 C 0.5978 0.6686 0.9457   -0.36075
 C 0.2273 0.3925 0.5846   -0.38202
 S 0.1842 0.13928 0.28247   -0.373347
 S 0.8158 0.86072 0.71753   -0.373347
 S 0.04492 0.14319 0.86072   -0.37697
 S 0.95508 0.85681 0.13928   -0.37697
 S 0.90173 0.71753 0.85681   -0.378768
 S 0.09827 0.28247 0.14319   -0.378768
 N 0.34377 0.35277 0.39634   -0.457023
 N 0.34173 0.57162 0.49387   -0.229396
 N 0.24121 0.52419 0.39784   -0.094397
 N 0.05103 0.8577 0.51529   -0.273769
 N 0.03216 0.83354 0.58934   -0.065327
 N 0.65623 0.64723 0.60366   -0.457023
 N 0.65827 0.42838 0.50613   -0.229396
 N 0.75879 0.47581 0.60216   -0.094397
 N 0.94897 0.1423 0.48471   -0.273769
 N 0.96784 0.16646 0.41066   -0.065327
 N 0.991 0.04357 0.64723   -0.458803
 N 0.77011 0.92225 0.42838   -0.228382
 N 0.71702 0.87365 0.47581   -0.094516
 N 0.19333 0.65759 0.1423   -0.273161
 N 0.19862 0.7558 0.16646   -0.068074
 N 0.009 0.95643 0.35277   -0.458803
 N 0.22989 0.07775 0.57162   -0.228382
 N 0.28298 0.12635 0.52419   -0.094516
 N 0.80667 0.34241 0.8577   -0.273161
 N 0.80138 0.2442 0.83354   -0.068074
 N 0.94743 0.60366 0.95643   -0.459611
 N 0.84786 0.50613 0.07775   -0.22685
 N 0.84337 0.60216 0.12635   -0.09506
 N 0.53574 0.48471 0.34241   -0.275375
 N 0.44282 0.41066 0.2442   -0.069418
 N 0.05257 0.39634 0.04357   -0.459611
 N 0.15214 0.49387 0.92225   -0.22685
 N 0.15663 0.39784 0.87365   -0.09506
 N 0.46426 0.51529 0.65759   -0.275375
 N 0.55718 0.58934 0.7558   -0.069418
