{'_ref': 'TBD', '_srcid': 'CAKYAQ_clean', 'submitters': [{'name': 'Dalar Nazarian Jeff Camp and David Sholl', 'email': 'dalar@gatech.edu jcamp6@gatech.edu'}], '_method': 'VASP DFT with PBE;DDEC'}
data_FeH28C22(SN5)2
_symmetry_space_group_name_H-M   'P 1'
_cell_length_a   10.96719982
_cell_length_b   15.05870000
_cell_length_c   15.05870038
_cell_angle_alpha   114.30519998
_cell_angle_beta   104.04999981
_cell_angle_gamma   104.04979991
_symmetry_Int_Tables_number   1
_chemical_formula_structural   FeH28C22(SN5)2
_chemical_formula_sum   'Fe3 H84 C66 S6 N30'
_cell_volume   2026.84448697
_cell_formula_units_Z   3
loop_
 _symmetry_equiv_pos_site_id
 _symmetry_equiv_pos_as_xyz
  1  'x, y, z'
loop_
 _atom_site_label
 _atom_site_fract_x
 _atom_site_fract_y
 _atom_site_fract_z
 _atom_site_charge
 Fe 0.5 0.5 0.5   0.435028
 Fe 0.0 0.0 0.5   0.433848
 Fe 0.0 0.5 0.0   0.442373
 H 0.2308 0.464 0.3416   0.241184
 H 0.4764 0.706 0.6891   0.125761
 H 0.3478 0.7291 0.7092   0.120364
 H 0.4435 0.7996 0.678   0.129261
 H 0.0317 0.4681 0.2373   0.123487
 H 0.0432 0.5867 0.2729   0.126145
 H 0.9509 0.5171 0.3068   0.131766
 H 0.0283 0.7633 0.7158   0.12432
 H 0.1654 0.7429 0.7188   0.128023
 H 0.0208 0.6511 0.633   0.134366
 H 0.129 0.8534 0.3692   0.133253
 H 0.1188 0.734 0.3248   0.113165
 H 0.2591 0.8301 0.4123   0.128415
 H 0.9913 0.8658 0.6313   0.230909
 H 0.7692 0.536 0.6584   0.241184
 H 0.5236 0.294 0.3109   0.125762
 H 0.6522 0.2709 0.2908   0.120365
 H 0.5565 0.2004 0.322   0.129261
 H 0.9683 0.5319 0.7627   0.123487
 H 0.9568 0.4133 0.7271   0.126145
 H 0.0491 0.4829 0.6932   0.131769
 H 0.9717 0.2367 0.2842   0.12432
 H 0.8346 0.2571 0.2812   0.128024
 H 0.9792 0.3489 0.367   0.134369
 H 0.871 0.1466 0.6308   0.133253
 H 0.8812 0.266 0.6752   0.113165
 H 0.7409 0.1699 0.5877   0.128415
 H 0.0087 0.1342 0.3687   0.230909
 H 0.7668 0.8776 0.536   0.240842
 H 0.7704 0.9831 0.294   0.126652
 H 0.6187 0.9801 0.2709   0.121152
 H 0.6439 0.8784 0.2004   0.128643
 H 0.5636 0.7692 0.5319   0.123859
 H 0.4565 0.6862 0.4133   0.126339
 H 0.4338 0.7897 0.4829   0.131646
 H 0.265 0.9525 0.2367   0.125024
 H 0.4225 0.9759 0.2571   0.127957
 H 0.3697 0.9819 0.3489   0.134838
 H 0.2756 0.5158 0.1466   0.131955
 H 0.3848 0.5908 0.266   0.112164
 H 0.429 0.5822 0.1699   0.12772
 H 0.1255 0.7655 0.1342   0.229673
 H 0.2332 0.1224 0.464   0.240842
 H 0.2296 0.0169 0.706   0.126652
 H 0.3813 0.0199 0.7291   0.121152
 H 0.3561 0.1216 0.7996   0.128643
 H 0.4364 0.2308 0.4681   0.123859
 H 0.5435 0.3138 0.5867   0.126339
 H 0.5662 0.2103 0.5171   0.131647
 H 0.735 0.0475 0.7633   0.125024
 H 0.5775 0.0241 0.7429   0.127958
 H 0.6303 0.0181 0.6511   0.134842
 H 0.7244 0.4842 0.8534   0.131955
 H 0.6152 0.4092 0.734   0.112164
 H 0.571 0.4178 0.8301   0.12772
 H 0.8745 0.2345 0.8658   0.229673
 H 0.8892 0.6584 0.1224   0.242193
 H 0.7873 0.3109 0.0169   0.126481
 H 0.6386 0.2908 0.0199   0.120619
 H 0.7655 0.322 0.1216   0.128706
 H 0.7944 0.7627 0.2308   0.124932
 H 0.7703 0.7271 0.3138   0.126498
 H 0.6441 0.6932 0.2103   0.131911
 H 0.3125 0.2842 0.0475   0.123886
 H 0.4466 0.2812 0.0241   0.128593
 H 0.3878 0.367 0.0181   0.134294
 H 0.7598 0.6308 0.4842   0.133391
 H 0.794 0.6752 0.4092   0.113171
 H 0.8468 0.5877 0.4178   0.128164
 H 0.36 0.3687 0.2345   0.230108
 H 0.1108 0.3416 0.8776   0.242194
 H 0.2127 0.6891 0.9831   0.126481
 H 0.3614 0.7092 0.9801   0.12062
 H 0.2345 0.678 0.8784   0.128706
 H 0.2056 0.2373 0.7692   0.124933
 H 0.2297 0.2729 0.6862   0.126498
 H 0.3559 0.3068 0.7897   0.131914
 H 0.6875 0.7158 0.9525   0.123886
 H 0.5534 0.7188 0.9759   0.128593
 H 0.6122 0.633 0.9819   0.134291
 H 0.2402 0.3692 0.5158   0.133391
 H 0.206 0.3248 0.5908   0.113171
 H 0.1532 0.4123 0.5822   0.128164
 H 0.64 0.6313 0.7655   0.230108
 C 0.27458 0.26133 0.34831   0.29109
 C 0.31601 0.65354 0.55259   0.221199
 C 0.20026 0.65941 0.49137   -0.182792
 C 0.15362 0.57196 0.3915   0.182662
 C 0.40344 0.72847 0.66705   -0.36517
 C 0.03477 0.53263 0.29388   -0.375725
 C 0.08465 0.76654 0.59721   0.17617
 C 0.14014 0.73997 0.52145   -0.182967
 C 0.11641 0.80028 0.47245   0.234858
 C 0.07382 0.7276 0.67266   -0.362419
 C 0.1595 0.80485 0.38745   -0.385839
 C 0.72542 0.73867 0.65169   0.29109
 C 0.68399 0.34646 0.44741   0.221199
 C 0.79974 0.34059 0.50863   -0.182793
 C 0.84638 0.42804 0.6085   0.182663
 C 0.59656 0.27153 0.33295   -0.365171
 C 0.96523 0.46737 0.70612   -0.375726
 C 0.91535 0.23346 0.40279   0.17617
 C 0.85986 0.26003 0.47855   -0.182967
 C 0.88359 0.19972 0.52755   0.234858
 C 0.92618 0.2724 0.32734   -0.36242
 C 0.8405 0.19515 0.61255   -0.385839
 C 0.01325 0.08698 0.73867   0.291608
 C 0.66247 0.89905 0.34646   0.22125
 C 0.54085 0.83196 0.34059   -0.181909
 C 0.58166 0.81954 0.42804   0.182884
 C 0.67497 0.93858 0.27153   -0.36614
 C 0.50214 0.76125 0.46737   -0.375714
 C 0.31811 0.83067 0.23346   0.175084
 C 0.40017 0.78148 0.26003   -0.183623
 C 0.31613 0.67217 0.19972   0.234408
 C 0.34622 0.94506 0.2724   -0.364683
 C 0.35465 0.5826 0.19515   -0.383996
 C 0.98675 0.91302 0.26133   0.291607
 C 0.33753 0.10095 0.65354   0.22125
 C 0.45915 0.16804 0.65941   -0.181909
 C 0.41834 0.18046 0.57196   0.182884
 C 0.32503 0.06142 0.72847   -0.366141
 C 0.49786 0.23875 0.53263   -0.375714
 C 0.68189 0.16933 0.76654   0.175085
 C 0.59983 0.21852 0.73997   -0.183623
 C 0.68387 0.32783 0.80028   0.234409
 C 0.65378 0.05494 0.7276   -0.364685
 C 0.64535 0.4174 0.80485   -0.383995
 C 0.92627 0.65169 0.91302   0.290776
 C 0.76342 0.44741 0.10095   0.222012
 C 0.70889 0.50863 0.16804   -0.180902
 C 0.76212 0.6085 0.18046   0.183204
 C 0.73639 0.33295 0.06142   -0.36544
 C 0.74089 0.70612 0.23875   -0.377371
 C 0.48744 0.40279 0.16933   0.176419
 C 0.61869 0.47855 0.21852   -0.183682
 C 0.64396 0.52755 0.32783   0.234251
 C 0.40116 0.32734 0.05494   -0.361952
 C 0.77205 0.61255 0.4174   -0.385577
 C 0.07373 0.34831 0.08698   0.290776
 C 0.23658 0.55259 0.89905   0.222013
 C 0.29111 0.49137 0.83196   -0.180902
 C 0.23788 0.3915 0.81954   0.183204
 C 0.26361 0.66705 0.93858   -0.36544
 C 0.25911 0.29388 0.76125   -0.377372
 C 0.51256 0.59721 0.83067   0.176419
 C 0.38131 0.52145 0.78148   -0.183682
 C 0.35604 0.47245 0.67217   0.234251
 C 0.59884 0.67266 0.94506   -0.361951
 C 0.22795 0.38745 0.5826   -0.385577
 S 0.1815 0.13464 0.28057   -0.369316
 S 0.8185 0.86536 0.71943   -0.369316
 S 0.04686 0.14593 0.86536   -0.370791
 S 0.95314 0.85407 0.13464   -0.370791
 S 0.90093 0.71943 0.85407   -0.363832
 S 0.09907 0.28057 0.14593   -0.363832
 N 0.34324 0.35147 0.39629   -0.447271
 N 0.33935 0.56928 0.49339   -0.214745
 N 0.23906 0.52164 0.39598   -0.101211
 N 0.04913 0.85932 0.51418   -0.243256
 N 0.03222 0.83715 0.59056   -0.085104
 N 0.65676 0.64853 0.60371   -0.447272
 N 0.66065 0.43072 0.50661   -0.214746
 N 0.76094 0.47836 0.60402   -0.101211
 N 0.95087 0.14068 0.48582   -0.243256
 N 0.96778 0.16285 0.40944   -0.085104
 N 0.99177 0.04482 0.64853   -0.44657
 N 0.77007 0.92411 0.43072   -0.215031
 N 0.71742 0.87434 0.47836   -0.100564
 N 0.18981 0.65486 0.14068   -0.25094
 N 0.19507 0.75341 0.16285   -0.082566
 N 0.00823 0.95518 0.35147   -0.44657
 N 0.22993 0.07589 0.56928   -0.215032
 N 0.28258 0.12566 0.52164   -0.100564
 N 0.81019 0.34514 0.85932   -0.25094
 N 0.80493 0.24659 0.83715   -0.082566
 N 0.94695 0.60371 0.95518   -0.443274
 N 0.84596 0.50661 0.07589   -0.217523
 N 0.84308 0.60402 0.12566   -0.102361
 N 0.53495 0.48582 0.34514   -0.240722
 N 0.44166 0.40944 0.24659   -0.084354
 N 0.05305 0.39629 0.04482   -0.443274
 N 0.15404 0.49339 0.92411   -0.217524
 N 0.15692 0.39598 0.87434   -0.102361
 N 0.46505 0.51418 0.65486   -0.240722
 N 0.55834 0.59056 0.75341   -0.084354
