{'_ref': 'TBD', '_srcid': 'CAKYAQ_clean', 'submitters': [{'name': 'Dalar Nazarian Jeff Camp and David Sholl', 'email': 'dalar@gatech.edu jcamp6@gatech.edu'}], '_method': 'VASP DFT with PBE;DDEC'}
data_FeH28C22(SN5)2
_symmetry_space_group_name_H-M   'P 1'
_cell_length_a   11.03850017
_cell_length_b   15.17574880
_cell_length_c   15.17579985
_cell_angle_alpha   114.31908461
_cell_angle_beta   104.03200086
_cell_angle_gamma   104.03149214
_symmetry_Int_Tables_number   1
_chemical_formula_structural   FeH28C22(SN5)2
_chemical_formula_sum   'Fe3 H84 C66 S6 N30'
_cell_volume   2072.19773058
_cell_formula_units_Z   3
loop_
 _symmetry_equiv_pos_site_id
 _symmetry_equiv_pos_as_xyz
  1  'x, y, z'
loop_
 _atom_site_label
 _atom_site_fract_x
 _atom_site_fract_y
 _atom_site_fract_z
 _atom_site_charge
 Fe 0.0 0.5 0.0   0.505359
 Fe 0.0 0.0 0.5   0.520243
 Fe 0.5 0.5 0.5   0.518018
 H 0.7649 0.5317 0.8762   0.243997
 H 0.7683 0.2917 0.9785   0.128005
 H 0.6204 0.2683 0.9752   0.121457
 H 0.6455 0.2009 0.8761   0.128926
 H 0.5635 0.5292 0.7716   0.123029
 H 0.458 0.4144 0.6905   0.126612
 H 0.4375 0.4817 0.7921   0.131518
 H 0.2682 0.2413 0.9521   0.122981
 H 0.4219 0.2621 0.9757   0.126353
 H 0.3692 0.3502 0.9797   0.132172
 H 0.2802 0.1448 0.52   0.131806
 H 0.3882 0.2601 0.5913   0.11367
 H 0.4287 0.1661 0.5848   0.126874
 H 0.131 0.1394 0.7681   0.227712
 H 0.2351 0.4683 0.1238   0.243997
 H 0.2317 0.7083 0.0215   0.128005
 H 0.3796 0.7317 0.0248   0.121458
 H 0.3545 0.7991 0.1239   0.128926
 H 0.4365 0.4708 0.2284   0.123029
 H 0.542 0.5856 0.3095   0.126612
 H 0.5625 0.5183 0.2079   0.13152
 H 0.7318 0.7587 0.0479   0.12298
 H 0.5781 0.7379 0.0243   0.126353
 H 0.6308 0.6498 0.0203   0.13217
 H 0.7198 0.8552 0.48   0.131806
 H 0.6118 0.7399 0.4087   0.11367
 H 0.5713 0.8339 0.4152   0.126874
 H 0.869 0.8606 0.2319   0.227712
 H 0.8887 0.1238 0.6555   0.244726
 H 0.7898 0.0215 0.3132   0.127619
 H 0.6452 0.0248 0.2931   0.122412
 H 0.7694 0.1239 0.3248   0.129082
 H 0.7919 0.2284 0.7576   0.123494
 H 0.7675 0.3095 0.7239   0.126883
 H 0.6454 0.2079 0.6896   0.130255
 H 0.3161 0.0479 0.2892   0.123101
 H 0.4462 0.0243 0.2864   0.12562
 H 0.3895 0.0203 0.3705   0.132117
 H 0.7602 0.48 0.6248   0.132048
 H 0.7969 0.4087 0.6688   0.11514
 H 0.8439 0.4152 0.5813   0.125145
 H 0.3629 0.2319 0.3713   0.230775
 H 0.1113 0.8762 0.3445   0.244726
 H 0.2102 0.9785 0.6868   0.127619
 H 0.3548 0.9752 0.7069   0.122412
 H 0.2306 0.8761 0.6752   0.129082
 H 0.2081 0.7716 0.2424   0.123494
 H 0.2325 0.6905 0.2761   0.126883
 H 0.3546 0.7921 0.3104   0.130256
 H 0.6839 0.9521 0.7108   0.123101
 H 0.5538 0.9757 0.7136   0.125621
 H 0.6105 0.9797 0.6295   0.132117
 H 0.2398 0.52 0.3752   0.132048
 H 0.2031 0.5913 0.3312   0.11514
 H 0.1561 0.5848 0.4187   0.125145
 H 0.6371 0.7681 0.6287   0.230775
 H 0.2332 0.3445 0.4683   0.243531
 H 0.4766 0.6868 0.7083   0.127893
 H 0.3521 0.7069 0.7317   0.122638
 H 0.4446 0.6752 0.7991   0.128913
 H 0.0343 0.2424 0.4708   0.122766
 H 0.0436 0.2761 0.5856   0.126932
 H 0.9558 0.3104 0.5183   0.130512
 H 0.0269 0.7108 0.7587   0.124697
 H 0.1598 0.7136 0.7379   0.127291
 H 0.019 0.6295 0.6498   0.131869
 H 0.1354 0.3752 0.8552   0.131168
 H 0.1281 0.3312 0.7399   0.11507
 H 0.2626 0.4187 0.8339   0.127825
 H 0.9916 0.6287 0.8606   0.229095
 H 0.7668 0.6555 0.5317   0.243531
 H 0.5234 0.3132 0.2917   0.127893
 H 0.6479 0.2931 0.2683   0.122639
 H 0.5554 0.3248 0.2009   0.128913
 H 0.9657 0.7576 0.5292   0.122766
 H 0.9564 0.7239 0.4144   0.126933
 H 0.0442 0.6896 0.4817   0.130513
 H 0.9731 0.2892 0.2413   0.124697
 H 0.8402 0.2864 0.2621   0.127291
 H 0.981 0.3705 0.3502   0.13187
 H 0.8646 0.6248 0.1448   0.131168
 H 0.8719 0.6688 0.2601   0.11507
 H 0.7374 0.5813 0.1661   0.127825
 H 0.0084 0.3713 0.1394   0.229095
 C 0.0117 0.73571 0.08499   0.305704
 C 0.66299 0.34451 0.89746   0.226148
 C 0.54222 0.33945 0.83211   -0.178652
 C 0.5818 0.426 0.8199   0.177218
 C 0.6754 0.2697 0.9351   -0.364269
 C 0.5033 0.4664 0.7636   -0.370544
 C 0.3198 0.2361 0.8313   0.170017
 C 0.40243 0.26062 0.78257   -0.189198
 C 0.31906 0.19942 0.67406   0.237304
 C 0.3472 0.2759 0.9448   -0.355259
 C 0.3575 0.192 0.5847   -0.378906
 C 0.9883 0.26429 0.91501   0.305703
 C 0.33701 0.65549 0.10254   0.226148
 C 0.45778 0.66055 0.16789   -0.178652
 C 0.4182 0.574 0.1801   0.177219
 C 0.3246 0.7303 0.0649   -0.36427
 C 0.4967 0.5336 0.2364   -0.370545
 C 0.6802 0.7639 0.1687   0.170017
 C 0.59757 0.73938 0.21743   -0.189198
 C 0.68094 0.80058 0.32594   0.237304
 C 0.6528 0.7241 0.0552   -0.355259
 C 0.6425 0.808 0.4153   -0.378906
 C 0.92671 0.91501 0.65072   0.30593
 C 0.76553 0.10254 0.44705   0.228961
 C 0.71011 0.16789 0.50734   -0.180769
 C 0.7619 0.1801 0.6061   0.179696
 C 0.7403 0.0649 0.3346   -0.365289
 C 0.7397 0.2364 0.7028   -0.36992
 C 0.4885 0.1687 0.4048   0.17141
 C 0.61986 0.21743 0.47805   -0.188371
 C 0.645 0.32594 0.52536   0.239127
 C 0.4024 0.0552 0.3311   -0.35395
 C 0.7728 0.4153 0.6073   -0.37934
 C 0.07329 0.08499 0.34928   0.305929
 C 0.23447 0.89746 0.55295   0.228961
 C 0.28989 0.83211 0.49266   -0.180769
 C 0.2381 0.8199 0.3939   0.179696
 C 0.2597 0.9351 0.6654   -0.365289
 C 0.2603 0.7636 0.2972   -0.369921
 C 0.5115 0.8313 0.5952   0.17141
 C 0.38014 0.78257 0.52195   -0.188371
 C 0.355 0.67406 0.47464   0.239127
 C 0.5976 0.9448 0.6689   -0.35395
 C 0.2272 0.5847 0.3927   -0.37934
 C 0.27599 0.34928 0.26429   0.30624
 C 0.31848 0.55295 0.65549   0.227128
 C 0.20277 0.49266 0.66055   -0.177272
 C 0.1558 0.3939 0.574   0.176743
 C 0.4057 0.6654 0.7303   -0.364901
 C 0.0369 0.2972 0.5336   -0.369281
 C 0.0837 0.5952 0.7639   0.173715
 C 0.14181 0.52195 0.73938   -0.192339
 C 0.11964 0.47464 0.80058   0.240343
 C 0.0713 0.6689 0.7241   -0.358326
 C 0.1655 0.3927 0.808   -0.382542
 C 0.72401 0.65072 0.73571   0.306239
 C 0.68152 0.44705 0.34451   0.227129
 C 0.79723 0.50734 0.33945   -0.177272
 C 0.8442 0.6061 0.426   0.176743
 C 0.5943 0.3346 0.2697   -0.364901
 C 0.9631 0.7028 0.4664   -0.369281
 C 0.9163 0.4048 0.2361   0.173715
 C 0.85819 0.47805 0.26062   -0.192339
 C 0.88036 0.52536 0.19942   0.240343
 C 0.9287 0.3311 0.2759   -0.358326
 C 0.8345 0.6073 0.192   -0.382542
 S 0.0451 0.86066 0.14343   -0.37464
 S 0.9549 0.13934 0.85657   -0.374641
 S 0.90167 0.85657 0.71723   -0.372255
 S 0.09833 0.14343 0.28277   -0.372255
 S 0.18444 0.28277 0.13934   -0.371455
 S 0.81556 0.71723 0.86066   -0.371455
 N 0.9903 0.64662 0.04298   -0.466333
 N 0.76972 0.42834 0.92232   -0.235923
 N 0.71716 0.47586 0.87342   -0.098822
 N 0.19314 0.14246 0.65746   -0.280501
 N 0.19852 0.16637 0.75589   -0.067006
 N 0.0097 0.35338 0.95702   -0.466334
 N 0.23028 0.57166 0.07768   -0.235923
 N 0.28284 0.52414 0.12658   -0.098822
 N 0.80686 0.85754 0.34254   -0.280501
 N 0.80148 0.83363 0.24411   -0.067006
 N 0.94732 0.95702 0.60364   -0.467402
 N 0.8474 0.07768 0.50602   -0.239451
 N 0.84374 0.12658 0.60244   -0.100542
 N 0.53568 0.34254 0.485   -0.279534
 N 0.44263 0.24411 0.41048   -0.073589
 N 0.05268 0.04298 0.39636   -0.467403
 N 0.1526 0.92232 0.49398   -0.239451
 N 0.15626 0.87342 0.39756   -0.100542
 N 0.46432 0.65746 0.515   -0.279534
 N 0.55737 0.75589 0.58952   -0.073589
 N 0.34368 0.39636 0.35338   -0.467839
 N 0.34138 0.49398 0.57166   -0.238244
 N 0.2413 0.39756 0.52414   -0.097428
 N 0.05068 0.515 0.85754   -0.279069
 N 0.03215 0.58952 0.83363   -0.072062
 N 0.65632 0.60364 0.64662   -0.467839
 N 0.65862 0.50602 0.42834   -0.238244
 N 0.7587 0.60244 0.47586   -0.097428
 N 0.94932 0.485 0.14246   -0.279069
 N 0.96785 0.41048 0.16637   -0.072063
