{'_ref': 'TBD', '_srcid': 'CAKYAQ_clean', 'submitters': [{'name': 'Dalar Nazarian Jeff Camp and David Sholl', 'email': 'dalar@gatech.edu jcamp6@gatech.edu'}], '_method': 'VASP DFT with PBE;DDEC'}
data_CuH10C18S2(NO)4
_symmetry_space_group_name_H-M   'P 1'
_cell_length_a   14.65239983
_cell_length_b   15.59110015
_cell_length_c   15.59110000
_cell_angle_alpha   73.89600113
_cell_angle_beta   85.41549833
_cell_angle_gamma   85.41549821
_symmetry_Int_Tables_number   1
_chemical_formula_structural   CuH10C18S2(NO)4
_chemical_formula_sum   'Cu6 H60 C108 S12 N24 O24'
_cell_volume   3404.81943925
_cell_formula_units_Z   6
loop_
 _symmetry_equiv_pos_site_id
 _symmetry_equiv_pos_as_xyz
  1  'x, y, z'
loop_
 _atom_site_label
 _atom_site_fract_x
 _atom_site_fract_y
 _atom_site_fract_z
 _atom_site_charge
 Cu 0.02188 0.24817 0.35557   0.74145
 Cu 0.47812 0.64443 0.75183   0.74145
 Cu 0.97812 0.75183 0.64443   0.74145
 Cu 0.52188 0.35557 0.24817   0.74145
 Cu 0.75 0.14103 0.85897   0.771566
 Cu 0.25 0.85897 0.14103   0.771566
 H 0.1895 0.4929 0.4411   0.162011
 H 0.0319 0.31 0.7268   0.116643
 H 0.9334 0.2263 0.8347   0.068231
 H 0.7806 0.1936 0.652   0.108685
 H 0.8735 0.2779 0.5383   0.149055
 H 0.0602 0.0357 0.6455   0.153372
 H 0.2366 0.1963 0.3049   0.140042
 H 0.3626 0.2639 0.2257   0.098521
 H 0.4471 0.3089 0.4413   0.064563
 H 0.3218 0.2437 0.5265   0.108496
 H 0.6198 0.8482 0.989   0.163379
 H 0.5813 0.03 0.218   0.118819
 H 0.5534 0.1432 0.2884   0.087869
 H 0.5669 0.3269 0.0589   0.072409
 H 0.5979 0.2199 0.9813   0.124954
 H 0.3105 0.5589 0.5071   0.16201
 H 0.4681 0.2732 0.69   0.116643
 H 0.5666 0.1653 0.7737   0.068231
 H 0.7194 0.348 0.8064   0.108685
 H 0.6265 0.4617 0.7221   0.149055
 H 0.4398 0.3545 0.9643   0.153373
 H 0.2634 0.6951 0.8037   0.140042
 H 0.1374 0.7743 0.7361   0.098521
 H 0.0529 0.5587 0.6911   0.064563
 H 0.1782 0.4735 0.7563   0.108496
 H 0.8802 0.011 0.1518   0.163379
 H 0.9187 0.782 0.97   0.118819
 H 0.9466 0.7116 0.8568   0.087869
 H 0.9331 0.9411 0.6731   0.072409
 H 0.9021 0.0187 0.7801   0.124954
 H 0.8105 0.5071 0.5589   0.16201
 H 0.9681 0.69 0.2732   0.116643
 H 0.0666 0.7737 0.1653   0.068231
 H 0.2194 0.8064 0.348   0.108685
 H 0.1265 0.7221 0.4617   0.149055
 H 0.9398 0.9643 0.3545   0.153372
 H 0.7634 0.8037 0.6951   0.140042
 H 0.6374 0.7361 0.7743   0.098521
 H 0.5529 0.6911 0.5587   0.064563
 H 0.6782 0.7563 0.4735   0.108496
 H 0.3802 0.1518 0.011   0.163379
 H 0.4187 0.97 0.782   0.11882
 H 0.4466 0.8568 0.7116   0.087869
 H 0.4331 0.6731 0.9411   0.072409
 H 0.4021 0.7801 0.0187   0.124954
 H 0.6895 0.4411 0.4929   0.16201
 H 0.5319 0.7268 0.31   0.116643
 H 0.4334 0.8347 0.2263   0.068231
 H 0.2806 0.652 0.1936   0.108685
 H 0.3735 0.5383 0.2779   0.149055
 H 0.5602 0.6455 0.0357   0.153372
 H 0.7366 0.3049 0.1963   0.140042
 H 0.8626 0.2257 0.2639   0.09852
 H 0.9471 0.4413 0.3089   0.064563
 H 0.8218 0.5265 0.2437   0.108496
 H 0.1198 0.989 0.8482   0.163379
 H 0.0813 0.218 0.03   0.11882
 H 0.0534 0.2884 0.1432   0.087869
 H 0.0669 0.0589 0.3269   0.072409
 H 0.0979 0.9813 0.2199   0.124954
 C 0.1366 0.40007 0.32707   0.595694
 C 0.1067 0.40132 0.42112   0.065258
 C 0.1441 0.45128 0.46588   -0.208025
 C 0.0285 0.35403 0.55023   0.154993
 C 0.9651 0.3032 0.62   0.072754
 C 0.9806 0.28683 0.70943   -0.209186
 C 0.9214 0.2367 0.7735   0.167669
 C 0.8325 0.21797 0.66717   0.173324
 C 0.8877 0.26771 0.59891   -0.166472
 C 0.9516 0.11078 0.49598   0.586839
 C 0.0482 0.11496 0.5175   0.065009
 C 0.0894 0.07387 0.59407   -0.162857
 C 0.1875 0.16585 0.47829   0.167703
 C 0.2653 0.21158 0.42472   0.075823
 C 0.2792 0.21919 0.33455   -0.122406
 C 0.3542 0.25958 0.28774   0.178571
 C 0.4031 0.28593 0.41333   0.158249
 C 0.3292 0.24672 0.46472   -0.20874
 C 0.6871 0.98344 0.84024   0.591626
 C 0.6509 0.97877 0.93437   0.056966
 C 0.621 0.90618 0.99738   -0.202173
 C 0.6126 0.04319 0.04379   0.156707
 C 0.5937 0.1125 0.0913   0.064434
 C 0.5794 0.09077 0.18357   -0.192011
 C 0.5622 0.15898 0.22498   0.18026
 C 0.5704 0.26567 0.09171   0.181104
 C 0.5888 0.20222 0.04462   -0.155321
 C 0.3634 0.67293 0.59993   0.595694
 C 0.3933 0.57888 0.59868   0.065258
 C 0.3559 0.53412 0.54872   -0.208025
 C 0.4715 0.44977 0.64597   0.154994
 C 0.5349 0.38 0.6968   0.072754
 C 0.5194 0.29057 0.71317   -0.209186
 C 0.5786 0.2265 0.7633   0.167669
 C 0.6675 0.33283 0.78203   0.173323
 C 0.6123 0.40109 0.73229   -0.166472
 C 0.5484 0.50402 0.88922   0.586839
 C 0.4518 0.4825 0.88504   0.065009
 C 0.4106 0.40593 0.92613   -0.162858
 C 0.3125 0.52171 0.83415   0.167703
 C 0.2347 0.57528 0.78842   0.075823
 C 0.2208 0.66545 0.78081   -0.122406
 C 0.1458 0.71226 0.74042   0.17857
 C 0.0969 0.58667 0.71407   0.158249
 C 0.1708 0.53528 0.75328   -0.20874
 C 0.8129 0.15976 0.01656   0.591627
 C 0.8491 0.06563 0.02123   0.056966
 C 0.879 0.00262 0.09382   -0.202172
 C 0.8874 0.95621 0.95681   0.156708
 C 0.9063 0.9087 0.8875   0.064434
 C 0.9206 0.81643 0.90923   -0.192011
 C 0.9378 0.77502 0.84102   0.18026
 C 0.9296 0.90829 0.73433   0.181104
 C 0.9112 0.95538 0.79778   -0.155321
 C 0.8634 0.59993 0.67293   0.595693
 C 0.8933 0.59868 0.57888   0.065258
 C 0.8559 0.54872 0.53412   -0.208025
 C 0.9715 0.64597 0.44977   0.154993
 C 0.0349 0.6968 0.38   0.072754
 C 0.0194 0.71317 0.29057   -0.209186
 C 0.0786 0.7633 0.2265   0.167669
 C 0.1675 0.78203 0.33283   0.173324
 C 0.1123 0.73229 0.40109   -0.166472
 C 0.0484 0.88922 0.50402   0.586839
 C 0.9518 0.88504 0.4825   0.065009
 C 0.9106 0.92613 0.40593   -0.162857
 C 0.8125 0.83415 0.52171   0.167703
 C 0.7347 0.78842 0.57528   0.075823
 C 0.7208 0.78081 0.66545   -0.122407
 C 0.6458 0.74042 0.71226   0.178571
 C 0.5969 0.71407 0.58667   0.158249
 C 0.6708 0.75328 0.53528   -0.20874
 C 0.3129 0.01656 0.15976   0.591626
 C 0.3491 0.02123 0.06563   0.056966
 C 0.379 0.09382 0.00262   -0.202172
 C 0.3874 0.95681 0.95621   0.156707
 C 0.4063 0.8875 0.9087   0.064434
 C 0.4206 0.90923 0.81643   -0.192011
 C 0.4378 0.84102 0.77502   0.18026
 C 0.4296 0.73433 0.90829   0.181104
 C 0.4112 0.79778 0.95538   -0.155321
 C 0.6366 0.32707 0.40007   0.595693
 C 0.6067 0.42112 0.40132   0.065258
 C 0.6441 0.46588 0.45128   -0.208025
 C 0.5285 0.55023 0.35403   0.154994
 C 0.4651 0.62 0.3032   0.072754
 C 0.4806 0.70943 0.28683   -0.209186
 C 0.4214 0.7735 0.2367   0.167669
 C 0.3325 0.66717 0.21797   0.173323
 C 0.3877 0.59891 0.26771   -0.166472
 C 0.4516 0.49598 0.11078   0.586839
 C 0.5482 0.5175 0.11496   0.065009
 C 0.5894 0.59407 0.07387   -0.162858
 C 0.6875 0.47829 0.16585   0.167703
 C 0.7653 0.42472 0.21158   0.075823
 C 0.7792 0.33455 0.21919   -0.122407
 C 0.8542 0.28774 0.25958   0.17857
 C 0.9031 0.41333 0.28593   0.158249
 C 0.8292 0.46472 0.24672   -0.20874
 C 0.1871 0.84024 0.98344   0.591627
 C 0.1509 0.93437 0.97877   0.056966
 C 0.121 0.99738 0.90618   -0.202172
 C 0.1126 0.04379 0.04319   0.156708
 C 0.0937 0.0913 0.1125   0.064435
 C 0.0794 0.18357 0.09077   -0.192011
 C 0.0622 0.22498 0.15898   0.18026
 C 0.0704 0.09171 0.26567   0.181104
 C 0.0888 0.04462 0.20222   -0.155321
 S 0.09842 0.42912 0.57274   0.094395
 S 0.20063 0.10003 0.58565   0.112242
 S 0.58597 0.93384 0.09348   0.112668
 S 0.40158 0.42726 0.57088   0.094395
 S 0.29937 0.41435 0.89997   0.112242
 S 0.91403 0.90652 0.06616   0.112668
 S 0.90158 0.57088 0.42726   0.094395
 S 0.79937 0.89997 0.41435   0.112242
 S 0.41403 0.06616 0.90652   0.112668
 S 0.59842 0.57274 0.42912   0.094395
 S 0.70063 0.58565 0.10003   0.112241
 S 0.08597 0.09348 0.93384   0.112668
 N 0.0395 0.34731 0.46909   -0.355298
 N 0.848 0.20206 0.75392   -0.335058
 N 0.1039 0.16749 0.45149   -0.290969
 N 0.4161 0.29315 0.32531   -0.274452
 N 0.646 0.0563 0.96074   -0.354991
 N 0.55727 0.24552 0.18064   -0.34705
 N 0.4605 0.53091 0.65269   -0.355299
 N 0.652 0.24608 0.79794   -0.335058
 N 0.3961 0.54851 0.83251   -0.290968
 N 0.0839 0.67469 0.70685   -0.274451
 N 0.854 0.03926 0.9437   -0.354991
 N 0.94273 0.81936 0.75448   -0.34705
 N 0.9605 0.65269 0.53091   -0.355298
 N 0.152 0.79794 0.24608   -0.335058
 N 0.8961 0.83251 0.54851   -0.290969
 N 0.5839 0.70685 0.67469   -0.274451
 N 0.354 0.9437 0.03926   -0.354991
 N 0.44273 0.75448 0.81936   -0.34705
 N 0.5395 0.46909 0.34731   -0.355299
 N 0.348 0.75392 0.20206   -0.335058
 N 0.6039 0.45149 0.16749   -0.290968
 N 0.9161 0.32531 0.29315   -0.274451
 N 0.146 0.96074 0.0563   -0.354991
 N 0.05727 0.18064 0.24552   -0.34705
 O 0.1061 0.34169 0.29671   -0.566932
 O 0.19096 0.45543 0.28557   -0.552894
 O 0.93042 0.16337 0.42061   -0.548426
 O 0.89991 0.06026 0.54902   -0.527277
 O 0.7183 0.05801 0.79551   -0.544243
 O 0.68473 0.91757 0.81073   -0.551786
 O 0.3939 0.70329 0.65831   -0.566933
 O 0.30904 0.71443 0.54457   -0.552894
 O 0.56958 0.57939 0.83663   -0.548426
 O 0.60009 0.45098 0.93974   -0.527277
 O 0.7817 0.20449 0.94199   -0.544243
 O 0.81527 0.18927 0.08243   -0.551786
 O 0.8939 0.65831 0.70329   -0.566932
 O 0.80904 0.54457 0.71443   -0.552895
 O 0.06958 0.83663 0.57939   -0.548427
 O 0.10009 0.93974 0.45098   -0.527277
 O 0.2817 0.94199 0.20449   -0.544243
 O 0.31527 0.08243 0.18927   -0.551786
 O 0.6061 0.29671 0.34169   -0.566932
 O 0.69096 0.28557 0.45543   -0.552895
 O 0.43042 0.42061 0.16337   -0.548427
 O 0.39991 0.54902 0.06026   -0.527277
 O 0.2183 0.79551 0.05801   -0.544243
 O 0.18473 0.81073 0.91757   -0.551786
