{'_ref': 'TBD', '_srcid': 'CAKYAQ_clean', 'submitters': [{'name': 'Dalar Nazarian Jeff Camp and David Sholl', 'email': 'dalar@gatech.edu jcamp6@gatech.edu'}], '_method': 'VASP DFT with PBE;DDEC'}
data_Ho2Cu3H30C24(NO4)6
_symmetry_space_group_name_H-M   'P 1'
_cell_length_a   13.32380000
_cell_length_b   13.32379976
_cell_length_c   14.33680000
_cell_angle_alpha   90.00000000
_cell_angle_beta   90.00000000
_cell_angle_gamma   120.00000059
_symmetry_Int_Tables_number   1
_chemical_formula_structural   Ho2Cu3H30C24(NO4)6
_chemical_formula_sum   'Ho4 Cu6 H60 C48 N12 O48'
_cell_volume   2204.13940155
_cell_formula_units_Z   2
loop_
 _symmetry_equiv_pos_site_id
 _symmetry_equiv_pos_as_xyz
  1  'x, y, z'
loop_
 _atom_site_label
 _atom_site_fract_x
 _atom_site_fract_y
 _atom_site_fract_z
 _atom_site_charge
 Ho 0.66667 0.33334 0.16734   2.22874
 Ho 0.33333 0.66666 0.33266   2.228718
 Ho 0.33333 0.66666 0.83266   2.228721
 Ho 0.66667 0.33334 0.66734   2.228699
 Cu 0.5 0.0 0.0   0.85377
 Cu 0.5 0.5 0.0   0.871089
 Cu 0.0 0.5 0.0   0.880182
 Cu 0.5 0.0 0.5   0.853859
 Cu 0.0 0.5 0.5   0.870972
 Cu 0.5 0.5 0.5   0.879828
 H 0.65 0.977 0.921   0.255102
 H 0.8206 0.1395 0.9794   0.108038
 H 0.7465 0.041 0.0513   0.121005
 H 0.6862 0.0851 0.8055   0.139139
 H 0.7335 0.1938 0.8709   0.138703
 H 0.327 0.35 0.921   0.258581
 H 0.3189 0.1794 0.9794   0.10839
 H 0.2945 0.2535 0.0513   0.121726
 H 0.3989 0.3138 0.8055   0.140077
 H 0.4603 0.2665 0.8709   0.140072
 H 0.023 0.673 0.921   0.255918
 H 0.8605 0.6811 0.9794   0.107904
 H 0.959 0.7055 0.0513   0.123395
 H 0.9149 0.6011 0.8055   0.137958
 H 0.8062 0.5397 0.8709   0.137426
 H 0.673 0.023 0.579   0.255058
 H 0.6811 0.8605 0.5206   0.108029
 H 0.7055 0.959 0.4487   0.121217
 H 0.6011 0.9149 0.6945   0.139226
 H 0.5397 0.8062 0.6291   0.138609
 H 0.977 0.65 0.579   0.258587
 H 0.1395 0.8206 0.5206   0.108371
 H 0.041 0.7465 0.4487   0.121799
 H 0.0851 0.6862 0.6945   0.14017
 H 0.1938 0.7335 0.6291   0.140053
 H 0.35 0.327 0.579   0.255922
 H 0.1794 0.3189 0.5206   0.107892
 H 0.2535 0.2945 0.4487   0.123488
 H 0.3138 0.3989 0.6945   0.138042
 H 0.2665 0.4603 0.6291   0.137424
 H 0.35 0.023 0.079   0.25512
 H 0.1794 0.8605 0.0206   0.108562
 H 0.2535 0.959 0.9487   0.121588
 H 0.3138 0.9149 0.1945   0.139257
 H 0.2665 0.8062 0.1291   0.138713
 H 0.673 0.65 0.079   0.258591
 H 0.6811 0.8206 0.0206   0.108875
 H 0.7055 0.7465 0.9487   0.122311
 H 0.6011 0.6862 0.1945   0.140194
 H 0.5397 0.7335 0.1291   0.140083
 H 0.977 0.327 0.079   0.255944
 H 0.1395 0.3189 0.0206   0.108408
 H 0.041 0.2945 0.9487   0.123973
 H 0.0851 0.3989 0.1945   0.138075
 H 0.1938 0.4603 0.1291   0.137437
 H 0.327 0.977 0.421   0.255077
 H 0.3189 0.1395 0.4794   0.108549
 H 0.2945 0.041 0.5513   0.1218
 H 0.3989 0.0851 0.3055   0.139333
 H 0.4603 0.1938 0.3709   0.138622
 H 0.023 0.35 0.421   0.258597
 H 0.8605 0.1794 0.4794   0.108867
 H 0.959 0.2535 0.5513   0.122384
 H 0.9149 0.3138 0.3055   0.140279
 H 0.8062 0.2665 0.3709   0.140064
 H 0.65 0.673 0.421   0.255947
 H 0.8206 0.6811 0.4794   0.108402
 H 0.7465 0.7055 0.5513   0.124042
 H 0.6862 0.6011 0.3055   0.138149
 H 0.7335 0.5397 0.3709   0.137435
 C 0.7316 0.185 0.0697   0.70335
 C 0.7465 0.0996 0.0112   -0.188129
 C 0.6682 0.1169 0.8596   -0.229457
 C 0.563 0.1262 0.8393   0.759941
 C 0.4534 0.2684 0.0697   0.705257
 C 0.3531 0.2535 0.0112   -0.18427
 C 0.4487 0.3318 0.8596   -0.226083
 C 0.5632 0.437 0.8393   0.76308
 C 0.815 0.5466 0.0697   0.707921
 C 0.9004 0.6469 0.0112   -0.185036
 C 0.8831 0.5513 0.8596   -0.224792
 C 0.8738 0.4368 0.8393   0.756036
 C 0.5466 0.815 0.4303   0.703248
 C 0.6469 0.9004 0.4888   -0.188199
 C 0.5513 0.8831 0.6404   -0.229461
 C 0.4368 0.8738 0.6607   0.759975
 C 0.185 0.7316 0.4303   0.705232
 C 0.0996 0.7465 0.4888   -0.184307
 C 0.1169 0.6682 0.6404   -0.226146
 C 0.1262 0.563 0.6607   0.763064
 C 0.2684 0.4534 0.4303   0.707984
 C 0.2535 0.3531 0.4888   -0.185085
 C 0.3318 0.4487 0.6404   -0.224803
 C 0.437 0.5632 0.6607   0.755974
 C 0.2684 0.815 0.9303   0.703436
 C 0.2535 0.9004 0.9888   -0.188533
 C 0.3318 0.8831 0.1404   -0.229516
 C 0.437 0.8738 0.1607   0.759953
 C 0.5466 0.7316 0.9303   0.70534
 C 0.6469 0.7465 0.9888   -0.184662
 C 0.5513 0.6682 0.1404   -0.226142
 C 0.4368 0.563 0.1607   0.763093
 C 0.185 0.4534 0.9303   0.708006
 C 0.0996 0.3531 0.9888   -0.185432
 C 0.1169 0.4487 0.1404   -0.22485
 C 0.1262 0.5632 0.1607   0.756048
 C 0.4534 0.185 0.5697   0.703334
 C 0.3531 0.0996 0.5112   -0.188602
 C 0.4487 0.1169 0.3596   -0.229516
 C 0.5632 0.1262 0.3393   0.759986
 C 0.815 0.2684 0.5697   0.705316
 C 0.9004 0.2535 0.5112   -0.184703
 C 0.8831 0.3318 0.3596   -0.226203
 C 0.8738 0.437 0.3393   0.763076
 C 0.7316 0.5466 0.5697   0.708068
 C 0.7465 0.6469 0.5112   -0.185474
 C 0.6682 0.5513 0.3596   -0.224857
 C 0.563 0.4368 0.3393   0.755985
 N 0.6524 0.0429 0.9412   -0.280003
 N 0.3905 0.3476 0.9412   -0.28727
 N 0.9571 0.6095 0.9412   -0.291332
 N 0.6095 0.9571 0.5588   -0.279949
 N 0.0429 0.6524 0.5588   -0.287188
 N 0.3476 0.3905 0.5588   -0.291184
 N 0.3476 0.9571 0.0588   -0.279905
 N 0.6095 0.6524 0.0588   -0.287172
 N 0.0429 0.3905 0.0588   -0.29124
 N 0.3905 0.0429 0.4412   -0.279853
 N 0.9571 0.3476 0.4412   -0.287089
 N 0.6524 0.6095 0.4412   -0.291094
 O 0.6394 0.1895 0.0594   -0.7378
 O 0.8068 0.2461 0.1282   -0.650783
 O 0.5656 0.1852 0.7706   -0.74531
 O 0.4758 0.0738 0.8911   -0.572071
 O 0.5501 0.3606 0.0594   -0.748829
 O 0.4393 0.1932 0.1282   -0.649126
 O 0.6196 0.4344 0.7706   -0.746294
 O 0.598 0.5242 0.8911   -0.576017
 O 0.8105 0.4499 0.0594   -0.744282
 O 0.7539 0.5607 0.1282   -0.633372
 O 0.8148 0.3804 0.7706   -0.739493
 O 0.9262 0.402 0.8911   -0.582098
 O 0.4499 0.8105 0.4406   -0.737798
 O 0.5607 0.7539 0.3718   -0.650772
 O 0.3804 0.8148 0.7294   -0.745317
 O 0.402 0.9262 0.6089   -0.572118
 O 0.1895 0.6394 0.4406   -0.748797
 O 0.2461 0.8068 0.3718   -0.649109
 O 0.1852 0.5656 0.7294   -0.746279
 O 0.0738 0.4758 0.6089   -0.576012
 O 0.3606 0.5501 0.4406   -0.744303
 O 0.1932 0.4393 0.3718   -0.633366
 O 0.4344 0.6196 0.7294   -0.739525
 O 0.5242 0.598 0.6089   -0.581902
 O 0.3606 0.8105 0.9406   -0.737806
 O 0.1932 0.7539 0.8718   -0.650795
 O 0.4344 0.8148 0.2294   -0.745317
 O 0.5242 0.9262 0.1089   -0.572073
 O 0.4499 0.6394 0.9406   -0.748834
 O 0.5607 0.8068 0.8718   -0.649137
 O 0.3804 0.5656 0.2294   -0.746312
 O 0.402 0.4758 0.1089   -0.576019
 O 0.1895 0.5501 0.9406   -0.744287
 O 0.2461 0.4393 0.8718   -0.633395
 O 0.1852 0.6196 0.2294   -0.739499
 O 0.0738 0.598 0.1089   -0.582099
 O 0.5501 0.1895 0.5594   -0.737803
 O 0.4393 0.2461 0.6282   -0.650784
 O 0.6196 0.1852 0.2706   -0.745323
 O 0.598 0.0738 0.3911   -0.57212
 O 0.8105 0.3606 0.5594   -0.748802
 O 0.7539 0.1932 0.6282   -0.649121
 O 0.8148 0.4344 0.2706   -0.746296
 O 0.9262 0.5242 0.3911   -0.576014
 O 0.6394 0.4499 0.5594   -0.744308
 O 0.8068 0.5607 0.6282   -0.633389
 O 0.5656 0.3804 0.2706   -0.739531
 O 0.4758 0.402 0.3911   -0.581903
