{'_ref': 'TBD', '_srcid': 'CAKYAQ_clean', 'submitters': [{'name': 'Dalar Nazarian Jeff Camp and David Sholl', 'email': 'dalar@gatech.edu jcamp6@gatech.edu'}], '_method': 'VASP DFT with PBE;DDEC'}
data_Er(C2O3)2
_symmetry_space_group_name_H-M   'P 1'
_cell_length_a   6.17299987
_cell_length_b   9.04500000
_cell_length_c   14.65400000
_cell_angle_alpha   90.00000000
_cell_angle_beta   93.91999862
_cell_angle_gamma   90.00000000
_symmetry_Int_Tables_number   1
_chemical_formula_structural   Er(C2O3)2
_chemical_formula_sum   'Er4 C16 O24'
_cell_volume   816.28871829
_cell_formula_units_Z   4
loop_
 _symmetry_equiv_pos_site_id
 _symmetry_equiv_pos_as_xyz
  1  'x, y, z'
loop_
 _atom_site_label
 _atom_site_fract_x
 _atom_site_fract_y
 _atom_site_fract_z
 _atom_site_charge
 Er 0.9234 0.92 0.8856   1.462638
 Er 0.0766 0.42 0.6144   1.462625
 Er 0.0766 0.08 0.1144   1.462644
 Er 0.9234 0.58 0.3856   1.462631
 C 0.0965 0.2311 0.8141   0.59966
 C 0.1147 0.2479 0.9185   0.256527
 C 0.4072 0.7808 0.8943   0.710996
 C 0.2844 0.6446 0.9158   0.106575
 C 0.9035 0.7311 0.6859   0.59966
 C 0.8853 0.7479 0.5815   0.256526
 C 0.5928 0.2808 0.6057   0.710996
 C 0.7156 0.1446 0.5842   0.106575
 C 0.9035 0.7689 0.1859   0.599661
 C 0.8853 0.7521 0.0815   0.256519
 C 0.5928 0.2192 0.1057   0.710998
 C 0.7156 0.3554 0.0842   0.10655
 C 0.0965 0.2689 0.3141   0.599661
 C 0.1147 0.2521 0.4185   0.256519
 C 0.4072 0.7192 0.3943   0.710997
 C 0.2844 0.8554 0.4158   0.10655
 O 0.1396 0.3406 0.7656   -0.561085
 O 0.0325 0.107 0.7849   -0.481931
 O 0.0448 0.1225 0.9636   -0.533477
 O 0.6074 0.7733 0.8982   -0.634138
 O 0.294 0.885 0.8753   -0.597184
 O 0.0545 0.6612 0.8936   -0.328565
 O 0.8604 0.8406 0.7344   -0.561085
 O 0.9675 0.607 0.7151   -0.481929
 O 0.9552 0.6225 0.5364   -0.533475
 O 0.3926 0.2733 0.6018   -0.634137
 O 0.706 0.385 0.6247   -0.597183
 O 0.9455 0.1612 0.6064   -0.328564
 O 0.8604 0.6594 0.2344   -0.561086
 O 0.9675 0.893 0.2151   -0.481931
 O 0.9552 0.8775 0.0364   -0.533476
 O 0.3926 0.2267 0.1018   -0.634138
 O 0.706 0.115 0.1247   -0.597185
 O 0.9455 0.3388 0.1064   -0.328564
 O 0.1396 0.1594 0.2656   -0.561086
 O 0.0325 0.393 0.2849   -0.481929
 O 0.0448 0.3775 0.4636   -0.533474
 O 0.6074 0.7267 0.3982   -0.634137
 O 0.294 0.615 0.3753   -0.597184
 O 0.0545 0.8388 0.3936   -0.328563
