{'_ref': 'TBD', '_srcid': 'CAKYAQ_clean', 'submitters': [{'name': 'Dalar Nazarian Jeff Camp and David Sholl', 'email': 'dalar@gatech.edu jcamp6@gatech.edu'}], '_method': 'VASP DFT with PBE;DDEC'}
data_NdU2(C6O7)2
_symmetry_space_group_name_H-M   'P 1'
_cell_length_a   11.62800000
_cell_length_b   13.06500000
_cell_length_c   15.57800000
_cell_angle_alpha   90.00000000
_cell_angle_beta   90.00000000
_cell_angle_gamma   90.00000000
_symmetry_Int_Tables_number   1
_chemical_formula_structural   NdU2(C6O7)2
_chemical_formula_sum   'Nd4 U8 C48 O56'
_cell_volume   2366.60695596
_cell_formula_units_Z   4
loop_
 _symmetry_equiv_pos_site_id
 _symmetry_equiv_pos_as_xyz
  1  'x, y, z'
loop_
 _atom_site_label
 _atom_site_fract_x
 _atom_site_fract_y
 _atom_site_fract_z
 _atom_site_charge
 Nd 0.75 0.06014 0.7143   2.137385
 Nd 0.25 0.56014 0.7857   2.137385
 Nd 0.25 0.93986 0.2857   2.137379
 Nd 0.75 0.43986 0.2143   2.137379
 U 0.75 0.34056 0.75393   2.240834
 U 0.25 0.84056 0.74607   2.240834
 U 0.25 0.65944 0.24607   2.240834
 U 0.75 0.15944 0.25393   2.240834
 U 0.0 0.0 0.0   1.825017
 U 0.0 0.5 0.5   1.825017
 U 0.5 0.0 0.0   1.825036
 U 0.5 0.5 0.5   1.825036
 C 0.8705 0.717 0.7695   -0.046683
 C 0.0012 0.7171 0.7662   0.76246
 C 0.8101 0.7953 0.8094   -0.119549
 C 0.873 0.8811 0.8544   0.711133
 C 0.8748 0.5636 0.6732   0.708421
 C 0.8098 0.6383 0.7286   -0.107939
 C 0.1295 0.217 0.7305   -0.046683
 C 0.9988 0.2171 0.7338   0.76246
 C 0.1899 0.2953 0.6906   -0.119549
 C 0.127 0.3811 0.6456   0.711133
 C 0.1252 0.0636 0.8268   0.708421
 C 0.1902 0.1383 0.7714   -0.107939
 C 0.3705 0.283 0.2305   -0.046683
 C 0.5012 0.2829 0.2338   0.76246
 C 0.3101 0.2047 0.1906   -0.119548
 C 0.373 0.1189 0.1456   0.711133
 C 0.3748 0.4364 0.3268   0.708421
 C 0.3098 0.3617 0.2714   -0.107939
 C 0.6295 0.783 0.2695   -0.046683
 C 0.4988 0.7829 0.2662   0.76246
 C 0.6899 0.7047 0.3094   -0.119548
 C 0.627 0.6189 0.3544   0.711133
 C 0.6252 0.9364 0.1732   0.708421
 C 0.6902 0.8617 0.2286   -0.107939
 C 0.1295 0.283 0.2305   -0.046684
 C 0.9988 0.2829 0.2338   0.76246
 C 0.1899 0.2047 0.1906   -0.11955
 C 0.127 0.1189 0.1456   0.711133
 C 0.1252 0.4364 0.3268   0.708421
 C 0.1902 0.3617 0.2714   -0.107931
 C 0.8705 0.783 0.2695   -0.046684
 C 0.0012 0.7829 0.2662   0.76246
 C 0.8101 0.7047 0.3094   -0.11955
 C 0.873 0.6189 0.3544   0.711133
 C 0.8748 0.9364 0.1732   0.708421
 C 0.8098 0.8617 0.2286   -0.107931
 C 0.6295 0.717 0.7695   -0.046684
 C 0.4988 0.7171 0.7662   0.76246
 C 0.6899 0.7953 0.8094   -0.11955
 C 0.627 0.8811 0.8544   0.711134
 C 0.6252 0.5636 0.6732   0.708421
 C 0.6902 0.6383 0.7286   -0.107931
 C 0.3705 0.217 0.7305   -0.046684
 C 0.5012 0.2171 0.7338   0.76246
 C 0.3101 0.2953 0.6906   -0.11955
 C 0.373 0.3811 0.6456   0.711134
 C 0.3748 0.0636 0.8268   0.708421
 C 0.3098 0.1383 0.7714   -0.107931
 O 0.9261 0.8578 0.9224   -0.629751
 O 0.8695 0.969 0.8251   -0.702554
 O 0.9303 0.6037 0.6128   -0.623677
 O 0.8682 0.4699 0.6854   -0.699446
 O 0.047 0.7986 0.738   -0.651144
 O 0.0521 0.6388 0.7911   -0.7162
 O 0.0739 0.3578 0.5776   -0.629751
 O 0.1305 0.469 0.6749   -0.702554
 O 0.0697 0.1037 0.8872   -0.623677
 O 0.1318 0.9699 0.8146   -0.699446
 O 0.953 0.2986 0.762   -0.651145
 O 0.9479 0.1388 0.7089   -0.7162
 O 0.4261 0.1422 0.0776   -0.629752
 O 0.3695 0.031 0.1749   -0.702554
 O 0.4303 0.3963 0.3872   -0.623678
 O 0.3682 0.5301 0.3146   -0.699446
 O 0.547 0.2014 0.262   -0.651144
 O 0.5521 0.3612 0.2089   -0.7162
 O 0.5739 0.6422 0.4224   -0.629752
 O 0.6305 0.531 0.3251   -0.702555
 O 0.5697 0.8963 0.1128   -0.623678
 O 0.6318 0.0301 0.1854   -0.699446
 O 0.453 0.7014 0.238   -0.651145
 O 0.4479 0.8612 0.2911   -0.7162
 O 0.0739 0.1422 0.0776   -0.629751
 O 0.1305 0.031 0.1749   -0.702554
 O 0.0697 0.3963 0.3872   -0.623677
 O 0.1318 0.5301 0.3146   -0.699446
 O 0.953 0.2014 0.262   -0.651144
 O 0.9479 0.3612 0.2089   -0.7162
 O 0.9261 0.6422 0.4224   -0.629751
 O 0.8695 0.531 0.3251   -0.702554
 O 0.9303 0.8963 0.1128   -0.623677
 O 0.8682 0.0301 0.1854   -0.699446
 O 0.047 0.7014 0.238   -0.651145
 O 0.0521 0.8612 0.2911   -0.7162
 O 0.5739 0.8578 0.9224   -0.629752
 O 0.6305 0.969 0.8251   -0.702555
 O 0.5697 0.6037 0.6128   -0.623678
 O 0.6318 0.4699 0.6854   -0.699446
 O 0.453 0.7986 0.738   -0.651144
 O 0.4479 0.6388 0.7911   -0.7162
 O 0.4261 0.3578 0.5776   -0.629752
 O 0.3695 0.469 0.6749   -0.702555
 O 0.4303 0.1037 0.8872   -0.623678
 O 0.3682 0.9699 0.8146   -0.699446
 O 0.547 0.2986 0.762   -0.651144
 O 0.5521 0.1388 0.7089   -0.7162
 O 0.75 0.2637 0.6597   -0.893782
 O 0.75 0.1884 0.8226   -1.079607
 O 0.25 0.7637 0.8403   -0.893782
 O 0.25 0.6884 0.6774   -1.079607
 O 0.25 0.7363 0.3403   -0.893782
 O 0.25 0.8116 0.1774   -1.079607
 O 0.75 0.2363 0.1597   -0.893782
 O 0.75 0.3116 0.3226   -1.079607
