{'_ref': 'TBD', '_srcid': 'CAKYAQ_clean', 'submitters': [{'name': 'Dalar Nazarian Jeff Camp and David Sholl', 'email': 'dalar@gatech.edu jcamp6@gatech.edu'}], '_method': 'VASP DFT with PBE;DDEC'}
data_CdH7C12NO4
_symmetry_space_group_name_H-M   'P 1'
_cell_length_a   6.91800004
_cell_length_b   14.23700000
_cell_length_c   15.38500000
_cell_angle_alpha   90.00000000
_cell_angle_beta   96.62200108
_cell_angle_gamma   90.00000000
_symmetry_Int_Tables_number   1
_chemical_formula_structural   CdH7C12NO4
_chemical_formula_sum   'Cd4 H28 C48 N4 O16'
_cell_volume   1505.18356309
_cell_formula_units_Z   4
loop_
 _symmetry_equiv_pos_site_id
 _symmetry_equiv_pos_as_xyz
  1  'x, y, z'
loop_
 _atom_site_label
 _atom_site_fract_x
 _atom_site_fract_y
 _atom_site_fract_z
 _atom_site_charge
 Cd 0.54525 0.8041 0.31395   1.070217
 Cd 0.95475 0.3041 0.68605   1.070217
 Cd 0.45475 0.1959 0.68605   1.070216
 Cd 0.04525 0.6959 0.31395   1.070216
 H 0.8101 0.1396 0.4115   0.135948
 H 0.7226 0.0178 0.3178   0.092564
 H 0.6614 0.8504 0.5152   0.080433
 H 0.7397 0.9694 0.6123   0.138052
 H 0.6561 0.9869 0.063   0.114909
 H 0.6861 0.0939 0.9356   0.116217
 H 0.1357 0.8486 0.1669   0.092856
 H 0.6899 0.6396 0.5885   0.135952
 H 0.7774 0.5178 0.6822   0.092564
 H 0.8386 0.3504 0.4848   0.080437
 H 0.7603 0.4694 0.3877   0.138053
 H 0.8439 0.4869 0.937   0.114909
 H 0.8139 0.5939 0.0644   0.116217
 H 0.3643 0.3486 0.8331   0.092856
 H 0.1899 0.8604 0.5885   0.135952
 H 0.2774 0.9822 0.6822   0.092566
 H 0.3386 0.1496 0.4848   0.080434
 H 0.2603 0.0306 0.3877   0.138055
 H 0.3439 0.0131 0.937   0.114908
 H 0.3139 0.9061 0.0644   0.116212
 H 0.8643 0.1514 0.8331   0.092852
 H 0.3101 0.3604 0.4115   0.135956
 H 0.2226 0.4822 0.3178   0.092566
 H 0.1614 0.6496 0.5152   0.080437
 H 0.2397 0.5306 0.6123   0.138056
 H 0.1561 0.5131 0.063   0.114908
 H 0.1861 0.4061 0.9356   0.116212
 H 0.6357 0.6514 0.1669   0.092852
 C 0.835 0.1463 0.5853   0.616913
 C 0.785 0.0676 0.5219   -0.00688
 C 0.779 0.0814 0.4335   -0.157579
 C 0.726 0.0081 0.3777   0.165383
 C 0.689 0.9094 0.4938   0.173105
 C 0.738 0.9801 0.5526   -0.164416
 C 0.762 0.8637 0.1876   0.652331
 C 0.875 0.9048 0.12   -0.141918
 C 0.786 0.9701 0.0618   -0.086974
 C 0.901 0.0114 0.999   0.032603
 C 0.816 0.077 0.9361   -0.119205
 C 0.076 0.8869 0.1228   -0.035213
 C 0.665 0.6463 0.4147   0.616913
 C 0.715 0.5676 0.4781   -0.00688
 C 0.721 0.5814 0.5665   -0.15758
 C 0.774 0.5081 0.6223   0.165383
 C 0.811 0.4094 0.5062   0.173104
 C 0.762 0.4801 0.4474   -0.164416
 C 0.738 0.3637 0.8124   0.652331
 C 0.625 0.4048 0.88   -0.141918
 C 0.714 0.4701 0.9382   -0.086974
 C 0.599 0.5114 0.000999999999998   0.032603
 C 0.684 0.577 0.0639   -0.119204
 C 0.424 0.3869 0.8772   -0.035213
 C 0.165 0.8537 0.4147   0.616913
 C 0.215 0.9324 0.4781   -0.00688
 C 0.221 0.9186 0.5665   -0.15758
 C 0.274 0.9919 0.6223   0.165383
 C 0.311 0.0906 0.5062   0.173104
 C 0.262 0.0199 0.4474   -0.164418
 C 0.238 0.1363 0.8124   0.652332
 C 0.125 0.0952 0.88   -0.141926
 C 0.214 0.0299 0.9382   -0.086972
 C 0.099 0.9886 0.000999999999998   0.032597
 C 0.184 0.923 0.0639   -0.119167
 C 0.924 0.1131 0.8772   -0.035173
 C 0.335 0.3537 0.5853   0.616912
 C 0.285 0.4324 0.5219   -0.00688
 C 0.279 0.4186 0.4335   -0.157582
 C 0.226 0.4919 0.3777   0.165383
 C 0.189 0.5906 0.4938   0.173103
 C 0.238 0.5199 0.5526   -0.164418
 C 0.262 0.6363 0.1876   0.652332
 C 0.375 0.5952 0.12   -0.141925
 C 0.286 0.5299 0.0618   -0.086972
 C 0.401 0.4886 0.999   0.032597
 C 0.316 0.423 0.9361   -0.119166
 C 0.576 0.6131 0.1228   -0.035173
 N 0.68 0.921 0.4072   -0.371621
 N 0.82 0.421 0.5928   -0.37162
 N 0.32 0.079 0.5928   -0.37162
 N 0.18 0.579 0.4072   -0.37162
 O 0.768 0.1504 0.6611   -0.614883
 O 0.948 0.2103 0.5646   -0.570663
 O 0.8332 0.7995 0.2368   -0.612893
 O 0.5883 0.8973 0.1935   -0.599321
 O 0.732 0.6504 0.3389   -0.614883
 O 0.552 0.7103 0.4354   -0.570663
 O 0.6668 0.2995 0.7632   -0.612893
 O 0.9117 0.3973 0.8065   -0.599321
 O 0.232 0.8496 0.3389   -0.614882
 O 0.052 0.7897 0.4354   -0.570663
 O 0.1668 0.2005 0.7632   -0.612894
 O 0.4117 0.1027 0.8065   -0.599321
 O 0.268 0.3496 0.6611   -0.614883
 O 0.448 0.2897 0.5646   -0.570663
 O 0.3332 0.7005 0.2368   -0.612894
 O 0.0883 0.6027 0.1935   -0.599321
