{'_ref': 'TBD', '_srcid': 'CAKYAQ_clean', 'submitters': [{'name': 'Dalar Nazarian Jeff Camp and David Sholl', 'email': 'dalar@gatech.edu jcamp6@gatech.edu'}], '_method': 'VASP DFT with PBE;DDEC'}
data_CuH8C5N3O
_symmetry_space_group_name_H-M   'P 1'
_cell_length_a   10.06310044
_cell_length_b   14.51659989
_cell_length_c   14.51660000
_cell_angle_alpha   114.82889920
_cell_angle_beta   103.36010094
_cell_angle_gamma   103.35999826
_symmetry_Int_Tables_number   1
_chemical_formula_structural   CuH8C5N3O
_chemical_formula_sum   'Cu6 H48 C30 N18 O6'
_cell_volume   1738.4492617
_cell_formula_units_Z   6
loop_
 _symmetry_equiv_pos_site_id
 _symmetry_equiv_pos_as_xyz
  1  'x, y, z'
loop_
 _atom_site_label
 _atom_site_fract_x
 _atom_site_fract_y
 _atom_site_fract_z
 _atom_site_charge
 Cu 0.38255 0.8876 0.45065   0.446419
 Cu 0.9319 0.54935 0.43695   0.446833
 Cu 0.49495 0.56305 0.1124   0.447679
 Cu 0.61745 0.1124 0.54935   0.446418
 Cu 0.0681 0.45065 0.56305   0.446832
 Cu 0.50505 0.43695 0.8876   0.447679
 H 0.4738 0.725 0.3083   0.028814
 H 0.0315 0.6584 0.068   0.153749
 H 0.1056 0.7789 0.2517   0.068724
 H 0.0904 0.5346 0.9245   0.340553
 H 0.2444 0.513 0.9527   0.334107
 H 0.627 0.0194 0.709   0.007651
 H 0.4518 0.9614 0.6863   0.041959
 H 0.5328 0.0914 0.7423   0.04187
 H 0.1655 0.6917 0.4167   0.028695
 H 0.9635 0.932 0.5904   0.155248
 H 0.8539 0.7483 0.5272   0.069033
 H 0.1659 0.0755 0.6101   0.340564
 H 0.2917 0.0473 0.5603   0.33588
 H 0.918 0.291 0.3104   0.008418
 H 0.7655 0.3137 0.2751   0.042023
 H 0.7905 0.2577 0.3491   0.043631
 H 0.7488 0.5833 0.275   0.029123
 H 0.3731 0.4096 0.3416   0.155169
 H 0.3267 0.4728 0.2211   0.069876
 H 0.5558 0.3899 0.4654   0.341045
 H 0.7314 0.4397 0.487   0.337267
 H 0.6076 0.6896 0.9806   0.008044
 H 0.4904 0.7249 0.0386   0.042815
 H 0.4414 0.6509 0.9086   0.043238
 H 0.5262 0.275 0.6917   0.028814
 H 0.9685 0.3416 0.932   0.153747
 H 0.8944 0.2211 0.7483   0.068722
 H 0.9096 0.4654 0.0755   0.340553
 H 0.7556 0.487 0.0473   0.334107
 H 0.373 0.9806 0.291   0.00765
 H 0.5482 0.0386 0.3137   0.041962
 H 0.4672 0.9086 0.2577   0.041871
 H 0.8345 0.3083 0.5833   0.028695
 H 0.0365 0.068 0.4096   0.155247
 H 0.1461 0.2517 0.4728   0.069032
 H 0.8341 0.9245 0.3899   0.340564
 H 0.7083 0.9527 0.4397   0.335879
 H 0.082 0.709 0.6896   0.008417
 H 0.2345 0.6863 0.7249   0.042026
 H 0.2095 0.7423 0.6509   0.043633
 H 0.2512 0.4167 0.725   0.029123
 H 0.6269 0.5904 0.6584   0.155168
 H 0.6733 0.5272 0.7789   0.069874
 H 0.4442 0.6101 0.5346   0.341045
 H 0.2686 0.5603 0.513   0.337267
 H 0.3924 0.3104 0.0194   0.008044
 H 0.5096 0.2751 0.9614   0.042818
 H 0.5586 0.3491 0.0914   0.04324
 C 0.123 0.6717 0.118   -0.42401
 C 0.3819 0.7107 0.2581   0.331933
 C 0.167 0.7421 0.2258   0.177628
 C 0.2168 0.6179 0.08   0.539385
 C 0.5226 0.024 0.6891   0.042995
 C 0.005 0.882 0.5537   -0.426676
 C 0.1238 0.7419 0.4526   0.333921
 C 0.9412 0.7742 0.5163   0.176319
 C 0.1368 0.92 0.5379   0.541634
 C 0.8335 0.3109 0.3349   0.040433
 C 0.4513 0.4463 0.3283   -0.427862
 C 0.6712 0.5474 0.2893   0.332341
 C 0.4249 0.4837 0.2579   0.176896
 C 0.5989 0.4621 0.3821   0.543061
 C 0.4986 0.6651 0.976   0.040557
 C 0.877 0.3283 0.882   -0.42401
 C 0.6181 0.2893 0.7419   0.331933
 C 0.833 0.2579 0.7742   0.177628
 C 0.7832 0.3821 0.92   0.539385
 C 0.4774 0.976 0.3109   0.042994
 C 0.995 0.118 0.4463   -0.426675
 C 0.8762 0.2581 0.5474   0.333921
 C 0.0588 0.2258 0.4837   0.176319
 C 0.8632 0.08 0.4621   0.541633
 C 0.1665 0.6891 0.6651   0.040432
 C 0.5487 0.5537 0.6717   -0.427861
 C 0.3288 0.4526 0.7107   0.332341
 C 0.5751 0.5163 0.7421   0.176897
 C 0.4011 0.5379 0.6179   0.543061
 C 0.5014 0.3349 0.024   0.040556
 N 0.2997 0.7639 0.2994   -0.402292
 N 0.3483 0.6389 0.1541   -0.49119
 N 0.1808 0.5488 0.9763   -0.661491
 N 0.000300000000003 0.7006 0.4645   -0.403266
 N 0.1942 0.8459 0.4848   -0.491922
 N 0.2045 0.0237 0.5725   -0.663066
 N 0.5358 0.5355 0.2361   -0.403114
 N 0.7094 0.5152 0.3611   -0.49176
 N 0.632 0.4275 0.4512   -0.665806
 N 0.7003 0.2361 0.7006   -0.402292
 N 0.6517 0.3611 0.8459   -0.49119
 N 0.8192 0.4512 0.0237   -0.661491
 N 0.9997 0.2994 0.5355   -0.403266
 N 0.8058 0.1541 0.5152   -0.491922
 N 0.7955 0.9763 0.4275   -0.663066
 N 0.4642 0.4645 0.7639   -0.403115
 N 0.2906 0.4848 0.6389   -0.49176
 N 0.368 0.5725 0.5488   -0.665806
 O 0.4876 0.0217 0.587   -0.577238
 O 0.9006 0.413 0.4347   -0.577825
 O 0.4659 0.5653 0.9783   -0.578013
 O 0.5124 0.9783 0.413   -0.577238
 O 0.0994 0.587 0.5653   -0.577825
 O 0.5341 0.4347 0.0217   -0.578012
