{'_ref': 'TBD', '_srcid': 'CAKYAQ_clean', 'submitters': [{'name': 'Dalar Nazarian Jeff Camp and David Sholl', 'email': 'dalar@gatech.edu jcamp6@gatech.edu'}], '_method': 'VASP DFT with PBE;DDEC'}
data_ScH6(C2O)6
_symmetry_space_group_name_H-M   'P 1'
_cell_length_a   8.75429997
_cell_length_b   11.14539976
_cell_length_c   17.74105935
_cell_angle_alpha   84.81680752
_cell_angle_beta   75.71651864
_cell_angle_gamma   68.52099715
_symmetry_Int_Tables_number   1
_chemical_formula_structural   ScH6(C2O)6
_chemical_formula_sum   'Sc4 H24 C48 O24'
_cell_volume   1560.9892356
_cell_formula_units_Z   4
loop_
 _symmetry_equiv_pos_site_id
 _symmetry_equiv_pos_as_xyz
  1  'x, y, z'
loop_
 _atom_site_label
 _atom_site_fract_x
 _atom_site_fract_y
 _atom_site_fract_z
 _atom_site_charge
 Sc 0.63396 0.25 0.73208   2.120645
 Sc 0.36604 0.75 0.26792   2.120783
 Sc 0.11286 0.25 0.77428   2.124135
 Sc 0.88714 0.75 0.22572   2.124212
 H 0.43623 0.64214 0.74055   0.121643
 H 0.95173 0.61481 0.74607   0.119427
 H 0.6827 0.10095 0.90537   0.119635
 H 0.19532 0.06833 0.99605   0.122481
 H 0.73948 0.44391 0.52088   0.122709
 H 0.15053 0.46391 0.60833   0.109263
 H 0.82322 0.85786 0.74055   0.12171
 H 0.30233 0.88509 0.74606   0.119434
 H 0.41193 0.39905 0.90537   0.11972
 H 0.80863 0.43167 0.99605   0.122914
 H 0.73965 0.05609 0.52088   0.122319
 H 0.24113 0.03609 0.60833   0.108289
 H 0.56377 0.35786 0.25945   0.121649
 H 0.04827 0.38519 0.25393   0.119418
 H 0.3173 0.89905 0.09463   0.119959
 H 0.80509 0.93253 0.00301   0.122863
 H 0.26068 0.55576 0.47953   0.122537
 H 0.84947 0.53609 0.39167   0.109389
 H 0.17678 0.14214 0.25945   0.121694
 H 0.69781 0.11481 0.25393   0.119445
 H 0.59029 0.60024 0.09409   0.120302
 H 0.19137 0.56833 0.00395   0.123107
 H 0.26035 0.94391 0.47912   0.122417
 H 0.75921 0.96426 0.39192   0.108554
 C 0.27358 0.47815 0.74964   0.806616
 C 0.19366 0.61758 0.7568   -0.096127
 C 0.29387 0.6911 0.7486   -0.073254
 C 0.02892 0.67608 0.7502   -0.079712
 C 0.38759 0.1389 0.87096   0.81553
 C 0.44815 0.0612 0.93502   -0.112353
 C 0.60476 0.04792 0.9454   -0.069962
 C 0.33551 0.0299 0.9955   -0.063171
 C 0.91303 0.3572 0.63268   0.818146
 C 0.95864 0.42919 0.56408   -0.110693
 C 0.86149 0.46448 0.50976   -0.069695
 C 0.08726 0.47547 0.55778   -0.068173
 C 0.97678 0.02185 0.74964   0.806752
 C 0.04954 0.88242 0.7568   -0.094929
 C 0.95753 0.8089 0.7486   -0.073922
 C 0.22088 0.82392 0.7502   -0.080075
 C 0.74145 0.3611 0.87096   0.813234
 C 0.61683 0.4388 0.93502   -0.109794
 C 0.44984 0.45208 0.9454   -0.069729
 C 0.66899 0.4701 0.9955   -0.065592
 C 0.45429 0.1428 0.63268   0.818465
 C 0.47728 0.07081 0.56408   -0.110858
 C 0.62875 0.03552 0.50976   -0.069719
 C 0.35496 0.02453 0.55778   -0.066207
 C 0.72642 0.52185 0.25036   0.806508
 C 0.80634 0.38242 0.2432   -0.096208
 C 0.70613 0.3089 0.2514   -0.073202
 C 0.97108 0.32392 0.2498   -0.079712
 C 0.61241 0.8611 0.12904   0.815248
 C 0.55185 0.9388 0.06498   -0.111163
 C 0.39524 0.95208 0.0546   -0.069991
 C 0.66449 0.9701 0.0045   -0.063913
 C 0.08697 0.6428 0.36732   0.818096
 C 0.04136 0.57081 0.43592   -0.110489
 C 0.13851 0.53552 0.49024   -0.069257
 C 0.91274 0.52453 0.44222   -0.067833
 C 0.02322 0.97815 0.25036   0.806661
 C 0.95046 0.11758 0.2432   -0.094866
 C 0.04247 0.1911 0.2514   -0.073961
 C 0.77912 0.17608 0.2498   -0.080123
 C 0.25855 0.6389 0.12904   0.813117
 C 0.38317 0.5612 0.06498   -0.108926
 C 0.55016 0.54792 0.0546   -0.070108
 C 0.33101 0.5299 0.0045   -0.065388
 C 0.54571 0.8572 0.36732   0.818365
 C 0.52272 0.92919 0.43592   -0.110359
 C 0.37125 0.96448 0.49024   -0.069736
 C 0.64504 0.97547 0.44222   -0.066504
 O 0.43093 0.4232 0.73074   -0.754144
 O 0.19118 0.40591 0.77484   -0.758528
 O 0.47659 0.18076 0.81662   -0.784317
 O 0.2429 0.1614 0.86074   -0.728281
 O 0.78731 0.32356 0.6445   -0.730377
 O 0.98344 0.3401 0.68844   -0.780029
 O 0.83833 0.0768 0.73074   -0.754679
 O 0.03398 0.09409 0.77484   -0.758424
 O 0.70679 0.31924 0.81662   -0.784106
 O 0.89636 0.3386 0.86074   -0.727052
 O 0.56819 0.17644 0.6445   -0.730841
 O 0.32812 0.1599 0.68844   -0.77996
 O 0.56907 0.5768 0.26926   -0.754078
 O 0.80882 0.59409 0.22516   -0.758628
 O 0.52341 0.81924 0.18338   -0.78444
 O 0.7571 0.8386 0.13926   -0.728345
 O 0.21269 0.67644 0.3555   -0.730421
 O 0.01656 0.6599 0.31156   -0.780033
 O 0.16167 0.9232 0.26926   -0.754712
 O 0.96602 0.90591 0.22516   -0.758286
 O 0.29321 0.68076 0.18338   -0.784137
 O 0.10364 0.6614 0.13926   -0.727088
 O 0.43181 0.82356 0.3555   -0.730841
 O 0.67188 0.8401 0.31156   -0.779943
