{'_ref': 'TBD', '_srcid': 'CAKYAQ_clean', 'submitters': [{'name': 'Dalar Nazarian Jeff Camp and David Sholl', 'email': 'dalar@gatech.edu jcamp6@gatech.edu'}], '_method': 'VASP DFT with PBE;DDEC'}
data_CoH17C26N2(O2F3)2
_symmetry_space_group_name_H-M   'P 1'
_cell_length_a   7.61510000
_cell_length_b   14.74530002
_cell_length_c   23.85580000
_cell_angle_alpha   102.43200180
_cell_angle_beta   90.00000000
_cell_angle_gamma   90.00000000
_symmetry_Int_Tables_number   1
_chemical_formula_structural   CoH17C26N2(O2F3)2
_chemical_formula_sum   'Co4 H68 C104 N8 O16 F24'
_cell_volume   2615.88511654
_cell_formula_units_Z   4
loop_
 _symmetry_equiv_pos_site_id
 _symmetry_equiv_pos_as_xyz
  1  'x, y, z'
loop_
 _atom_site_label
 _atom_site_fract_x
 _atom_site_fract_y
 _atom_site_fract_z
 _atom_site_charge
 Co 0.85485 0.56685 0.51195   0.939524
 Co 0.85485 0.43315 0.98805   0.939524
 Co 0.14515 0.43315 0.48805   0.939524
 Co 0.14515 0.56685 0.01195   0.939524
 H 0.4931 0.6079 0.4982   0.068317
 H 0.3367 0.6581 0.1999   0.115005
 H 0.0908 0.7937 0.3181   0.093376
 H 0.6598 0.9083 0.5647   0.129125
 H 0.7582 0.8222 0.2359   0.094862
 H 0.9041 0.7316 0.1599   0.08761
 H 0.4546 0.5799 0.376   0.10559
 H 0.1005 0.8774 0.5985   0.088419
 H 0.9108 0.9137 0.6159   0.069673
 H 0.4779 0.5731 0.121   0.090556
 H 0.0272 0.8413 0.4702   0.094197
 H 0.9853 0.7036 0.3781   0.108552
 H 0.9584 0.0659 0.5956   0.092491
 H 0.289 0.7213 0.5023   0.125892
 H 0.3738 0.8753 0.5362   0.083102
 H 0.5582 0.6693 0.3154   0.112271
 H 0.975 0.748 0.564   0.263875
 H 0.4931 0.3921 0.0018   0.068317
 H 0.3367 0.3419 0.3001   0.115005
 H 0.0908 0.2063 0.1819   0.093376
 H 0.6598 0.0917 0.9353   0.129125
 H 0.7582 0.1778 0.2641   0.094862
 H 0.9041 0.2684 0.3401   0.08761
 H 0.4546 0.4201 0.124   0.10559
 H 0.1005 0.1226 0.9015   0.088419
 H 0.9108 0.0863 0.8841   0.069673
 H 0.4779 0.4269 0.379   0.090556
 H 0.0272 0.1587 0.0298   0.094197
 H 0.9853 0.2964 0.1219   0.108552
 H 0.9584 0.9341 0.9044   0.092491
 H 0.289 0.2787 0.9977   0.125893
 H 0.3738 0.1247 0.9638   0.083102
 H 0.5582 0.3307 0.1846   0.112271
 H 0.975 0.252 0.936   0.263875
 H 0.5069 0.3921 0.5018   0.068317
 H 0.6633 0.3419 0.8001   0.115005
 H 0.9092 0.2063 0.6819   0.093376
 H 0.3402 0.0917 0.4353   0.129126
 H 0.2418 0.1778 0.7641   0.094862
 H 0.0959 0.2684 0.8401   0.08761
 H 0.5454 0.4201 0.624   0.10559
 H 0.8995 0.1226 0.4015   0.088419
 H 0.0892 0.0863 0.3841   0.069674
 H 0.5221 0.4269 0.879   0.090556
 H 0.9728 0.1587 0.5298   0.094196
 H 0.0147 0.2964 0.6219   0.108552
 H 0.0416 0.9341 0.4044   0.09249
 H 0.711 0.2787 0.4977   0.125892
 H 0.6262 0.1247 0.4638   0.083102
 H 0.4418 0.3307 0.6846   0.112271
 H 0.025 0.252 0.436   0.263875
 H 0.5069 0.6079 0.9982   0.068317
 H 0.6633 0.6581 0.6999   0.115005
 H 0.9092 0.7937 0.8181   0.093376
 H 0.3402 0.9083 0.0647   0.129126
 H 0.2418 0.8222 0.7359   0.094862
 H 0.0959 0.7316 0.6599   0.08761
 H 0.5454 0.5799 0.876   0.10559
 H 0.8995 0.8774 0.0985   0.088419
 H 0.0892 0.9137 0.1159   0.069674
 H 0.5221 0.5731 0.621   0.090556
 H 0.9728 0.8413 0.9702   0.094196
 H 0.0147 0.7036 0.8781   0.108552
 H 0.0416 0.0659 0.0956   0.09249
 H 0.711 0.7213 0.0023   0.125893
 H 0.6262 0.8753 0.0362   0.083102
 H 0.4418 0.6693 0.8154   0.112271
 H 0.025 0.748 0.064   0.263875
 C 0.4231 0.807 0.27653   -0.305487
 C 0.5328 0.7499 0.22714   0.077942
 C 0.5278 0.6692 0.51152   0.202923
 C 0.4505 0.6739 0.19165   -0.142317
 C 0.1415 0.5805 0.42635   0.659261
 C 0.338 0.7434 0.31174   0.076004
 C 0.1648 0.7514 0.33011   -0.151353
 C 0.2872 0.861 0.24837   0.692338
 C 0.7997 0.5861 0.08195   0.659359
 C 0.5338 0.8779 0.31863   0.698289
 C 0.6246 0.8472 0.55087   -0.304653
 C 0.2091 0.6337 0.38402   -0.144192
 C 0.9904 0.9432 0.53996   0.009102
 C 0.7019 0.7709 0.21352   -0.154141
 C 0.7448 0.7746 0.54712   0.433215
 C 0.7887 0.7175 0.16753   -0.016874
 C 0.3815 0.6232 0.36466   -0.019105
 C 0.9829 0.8828 0.58394   0.026936
 C 0.5356 0.6224 0.14475   -0.001078
 C 0.7062 0.6432 0.13258   -0.150936
 C 0.0159 0.9053 0.48248   -0.110819
 C 0.1015 0.6973 0.36593   -0.015764
 C 0.9751 0.0389 0.55699   -0.120072
 C 0.4039 0.7363 0.51386   -0.256283
 C 0.4549 0.8276 0.53409   0.06305
 C 0.4432 0.6772 0.3287   -0.137548
 C 0.4231 0.193 0.22347   -0.305487
 C 0.5328 0.2501 0.27286   0.077942
 C 0.5278 0.3308 0.98848   0.202923
 C 0.4505 0.3261 0.30835   -0.142317
 C 0.1415 0.4195 0.07365   0.65926
 C 0.338 0.2566 0.18826   0.076004
 C 0.1648 0.2486 0.16989   -0.151353
 C 0.2872 0.139 0.25163   0.692338
 C 0.7997 0.4139 0.41805   0.659358
 C 0.5338 0.1221 0.18137   0.698289
 C 0.6246 0.1528 0.94913   -0.304653
 C 0.2091 0.3663 0.11598   -0.144192
 C 0.9904 0.0568 0.96004   0.009102
 C 0.7019 0.2291 0.28648   -0.154141
 C 0.7448 0.2254 0.95288   0.433215
 C 0.7887 0.2825 0.33247   -0.016874
 C 0.3815 0.3768 0.13534   -0.019105
 C 0.9829 0.1172 0.91606   0.026936
 C 0.5356 0.3776 0.35525   -0.001078
 C 0.7062 0.3568 0.36742   -0.150937
 C 0.0159 0.0947 0.01752   -0.110819
 C 0.1015 0.3027 0.13407   -0.015765
 C 0.9751 0.9611 0.94301   -0.120072
 C 0.4039 0.2637 0.98614   -0.256283
 C 0.4549 0.1724 0.96591   0.06305
 C 0.4432 0.3228 0.1713   -0.137548
 C 0.5769 0.193 0.72347   -0.305487
 C 0.4672 0.2501 0.77286   0.077942
 C 0.4722 0.3308 0.48848   0.202923
 C 0.5495 0.3261 0.80835   -0.142317
 C 0.8585 0.4195 0.57365   0.659261
 C 0.662 0.2566 0.68826   0.076004
 C 0.8352 0.2486 0.66989   -0.151353
 C 0.7128 0.139 0.75163   0.692338
 C 0.2003 0.4139 0.91805   0.659359
 C 0.4662 0.1221 0.68137   0.698289
 C 0.3754 0.1528 0.44913   -0.304653
 C 0.7909 0.3663 0.61598   -0.144192
 C 0.0096 0.0568 0.46004   0.009099
 C 0.2981 0.2291 0.78648   -0.154141
 C 0.2552 0.2254 0.45288   0.433215
 C 0.2113 0.2825 0.83247   -0.016874
 C 0.6185 0.3768 0.63534   -0.019105
 C 0.0171 0.1172 0.41606   0.026936
 C 0.4644 0.3776 0.85525   -0.001078
 C 0.2938 0.3568 0.86742   -0.150936
 C 0.9841 0.0947 0.51752   -0.110811
 C 0.8985 0.3027 0.63407   -0.015764
 C 0.0249 0.9611 0.44301   -0.120064
 C 0.5961 0.2637 0.48614   -0.256283
 C 0.5451 0.1724 0.46591   0.063051
 C 0.5568 0.3228 0.6713   -0.137548
 C 0.5769 0.807 0.77653   -0.305487
 C 0.4672 0.7499 0.72714   0.077942
 C 0.4722 0.6692 0.01152   0.202923
 C 0.5495 0.6739 0.69165   -0.142317
 C 0.8585 0.5805 0.92635   0.65926
 C 0.662 0.7434 0.81174   0.076004
 C 0.8352 0.7514 0.83011   -0.151353
 C 0.7128 0.861 0.74837   0.692338
 C 0.2003 0.5861 0.58195   0.659358
 C 0.4662 0.8779 0.81863   0.698289
 C 0.3754 0.8472 0.05087   -0.304653
 C 0.7909 0.6337 0.88402   -0.144192
 C 0.0096 0.9432 0.03996   0.009099
 C 0.2981 0.7709 0.71352   -0.154141
 C 0.2552 0.7746 0.04712   0.433215
 C 0.2113 0.7175 0.66753   -0.016874
 C 0.6185 0.6232 0.86466   -0.019105
 C 0.0171 0.8828 0.08394   0.026936
 C 0.4644 0.6224 0.64475   -0.001078
 C 0.2938 0.6432 0.63258   -0.150937
 C 0.9841 0.9053 0.98248   -0.110811
 C 0.8985 0.6973 0.86593   -0.015765
 C 0.0249 0.0389 0.05699   -0.120064
 C 0.5961 0.7363 0.01386   -0.256283
 C 0.5451 0.8276 0.03409   0.063051
 C 0.5568 0.6772 0.8287   -0.137548
 N 0.6962 0.6847 0.52701   -0.440715
 N 0.9144 0.7911 0.56289   -0.380149
 N 0.6962 0.3153 0.97299   -0.440715
 N 0.9144 0.2089 0.93711   -0.380149
 N 0.3038 0.3153 0.47299   -0.440715
 N 0.0856 0.2089 0.43711   -0.380149
 N 0.3038 0.6847 0.02701   -0.440715
 N 0.0856 0.7911 0.06289   -0.380149
 O 0.0027 0.61009 0.45193   -0.593795
 O 0.2301 0.51234 0.43444   -0.557917
 O 0.9475 0.61487 0.06955   -0.601321
 O 0.7243 0.51392 0.05495   -0.54719
 O 0.0027 0.38991 0.04807   -0.593795
 O 0.2301 0.48766 0.06556   -0.557917
 O 0.9475 0.38513 0.43045   -0.601321
 O 0.7243 0.48608 0.44505   -0.54719
 O 0.9973 0.38991 0.54807   -0.593795
 O 0.7699 0.48766 0.56556   -0.557917
 O 0.0525 0.38513 0.93045   -0.601321
 O 0.2757 0.48608 0.94505   -0.54719
 O 0.9973 0.61009 0.95193   -0.593795
 O 0.7699 0.51234 0.93444   -0.557917
 O 0.0525 0.61487 0.56955   -0.601321
 O 0.2757 0.51392 0.55495   -0.54719
 F 0.1649 0.80482 0.21944   -0.18331
 F 0.2013 0.92557 0.28635   -0.211481
 F 0.3628 0.9036 0.21083   -0.207316
 F 0.5965 0.9463 0.29559   -0.204153
 F 0.672 0.83793 0.33782   -0.196076
 F 0.4414 0.91829 0.36484   -0.206817
 F 0.1649 0.19518 0.28056   -0.18331
 F 0.2013 0.07443 0.21365   -0.21148
 F 0.3628 0.0964 0.28917   -0.207316
 F 0.5965 0.0537 0.20441   -0.204153
 F 0.672 0.16207 0.16218   -0.196076
 F 0.4414 0.08171 0.13516   -0.206817
 F 0.8351 0.19518 0.78056   -0.18331
 F 0.7987 0.07443 0.71365   -0.211481
 F 0.6372 0.0964 0.78917   -0.207316
 F 0.4035 0.0537 0.70441   -0.204153
 F 0.328 0.16207 0.66218   -0.196076
 F 0.5586 0.08171 0.63516   -0.206817
 F 0.8351 0.80482 0.71944   -0.18331
 F 0.7987 0.92557 0.78635   -0.21148
 F 0.6372 0.9036 0.71083   -0.207316
 F 0.4035 0.9463 0.79559   -0.204153
 F 0.328 0.83793 0.83782   -0.196076
 F 0.5586 0.91829 0.86484   -0.206817
