{'_ref': 'TBD', '_srcid': 'CAKYAQ_clean', 'submitters': [{'name': 'Dalar Nazarian Jeff Camp and David Sholl', 'email': 'dalar@gatech.edu jcamp6@gatech.edu'}], '_method': 'VASP DFT with PBE;DDEC'}
data_ZnH3C5Br(N2O)2
_symmetry_space_group_name_H-M   'P 1'
_cell_length_a   17.89540000
_cell_length_b   17.89539999
_cell_length_c   18.62500000
_cell_angle_alpha   90.00000000
_cell_angle_beta   90.00000000
_cell_angle_gamma   120.00000002
_symmetry_Int_Tables_number   1
_chemical_formula_structural   ZnH3C5Br(N2O)2
_chemical_formula_sum   'Zn18 H54 C90 Br18 N72 O36'
_cell_volume   5165.46868791
_cell_formula_units_Z   18
loop_
 _symmetry_equiv_pos_site_id
 _symmetry_equiv_pos_as_xyz
  1  'x, y, z'
loop_
 _atom_site_label
 _atom_site_fract_x
 _atom_site_fract_y
 _atom_site_fract_z
 _atom_site_charge
 Zn 0.65796 0.04455 0.28961   0.904309
 Zn 0.95545 0.61341 0.28961   0.904326
 Zn 0.38659 0.34204 0.28961   0.904303
 Zn 0.324627 0.377883 0.622943   0.903834
 Zn 0.622117 0.946743 0.622943   0.903894
 Zn 0.053257 0.675373 0.622943   0.903892
 Zn 0.991293 0.711217 0.956277   0.904052
 Zn 0.288783 0.280077 0.956277   0.903999
 Zn 0.719923 0.008707 0.956277   0.90398
 Zn 0.34204 0.95545 0.71039   0.904309
 Zn 0.04455 0.38659 0.71039   0.904326
 Zn 0.61341 0.65796 0.71039   0.904303
 Zn 0.675373 0.622117 0.377057   0.903834
 Zn 0.377883 0.053257 0.377057   0.903894
 Zn 0.946743 0.324627 0.377057   0.903892
 Zn 0.008707 0.288783 0.043723   0.904052
 Zn 0.711217 0.719923 0.043723   0.903999
 Zn 0.280077 0.991293 0.043723   0.90398
 H 0.695 0.815 0.183   0.311947
 H 0.185 0.88 0.183   0.311951
 H 0.12 0.305 0.183   0.311947
 H 0.361667 0.148333 0.516333   0.311906
 H 0.851667 0.213333 0.516333   0.311902
 H 0.786667 0.638333 0.516333   0.311908
 H 0.028333 0.481667 0.849667   0.311415
 H 0.518333 0.546667 0.849667   0.311444
 H 0.453333 0.971667 0.849667   0.311434
 H 0.305 0.185 0.817   0.311947
 H 0.815 0.12 0.817   0.311951
 H 0.88 0.695 0.817   0.311947
 H 0.638333 0.851667 0.483667   0.311906
 H 0.148333 0.786667 0.483667   0.311902
 H 0.213333 0.361667 0.483667   0.311908
 H 0.971667 0.518333 0.150333   0.311414
 H 0.481667 0.453333 0.150333   0.311444
 H 0.546667 0.028333 0.150333   0.311434
 H 0.674 0.808 0.266   0.332305
 H 0.192 0.866 0.266   0.332305
 H 0.134 0.326 0.266   0.3323
 H 0.340667 0.141333 0.599333   0.333499
 H 0.858667 0.199333 0.599333   0.333476
 H 0.800667 0.659333 0.599333   0.333483
 H 0.007333 0.474667 0.932667   0.332724
 H 0.525333 0.532667 0.932667   0.332733
 H 0.467333 0.992667 0.932667   0.332762
 H 0.326 0.192 0.734   0.332305
 H 0.808 0.134 0.734   0.332305
 H 0.866 0.674 0.734   0.3323
 H 0.659333 0.858667 0.400667   0.333499
 H 0.141333 0.800667 0.400667   0.333476
 H 0.199333 0.340667 0.400667   0.333483
 H 0.992667 0.525333 0.067333   0.332724
 H 0.474667 0.467333 0.067333   0.332733
 H 0.532667 0.007333 0.067333   0.332762
 H 0.735 0.869 0.965   0.325829
 H 0.131 0.866 0.965   0.325834
 H 0.134 0.265 0.965   0.325828
 H 0.401667 0.202333 0.298333   0.325788
 H 0.797667 0.199333 0.298333   0.325696
 H 0.800667 0.598333 0.298333   0.325666
 H 0.068333 0.535667 0.631667   0.325766
 H 0.464333 0.532667 0.631667   0.325786
 H 0.467333 0.931667 0.631667   0.325799
 H 0.265 0.131 0.035   0.325829
 H 0.869 0.134 0.035   0.325834
 H 0.866 0.735 0.035   0.325828
 H 0.598333 0.797667 0.701667   0.325788
 H 0.202333 0.800667 0.701667   0.325696
 H 0.199333 0.401667 0.701667   0.325666
 H 0.931667 0.464333 0.368333   0.325766
 H 0.535667 0.467333 0.368333   0.325786
 H 0.532667 0.068333 0.368333   0.325799
 C 0.7159 0.0731 0.1232   0.378834
 C 0.9269 0.6428 0.1232   0.378835
 C 0.3572 0.2841 0.1232   0.378833
 C 0.382567 0.406433 0.456533   0.37836
 C 0.593567 0.976133 0.456533   0.378351
 C 0.023867 0.617433 0.456533   0.378272
 C 0.049233 0.739767 0.789867   0.379131
 C 0.260233 0.309467 0.789867   0.379052
 C 0.690533 0.950767 0.789867   0.379051
 C 0.2841 0.9269 0.8768   0.378834
 C 0.0731 0.3572 0.8768   0.378835
 C 0.6428 0.7159 0.8768   0.378833
 C 0.617433 0.593567 0.543467   0.37836
 C 0.406433 0.023867 0.543467   0.378351
 C 0.976133 0.382567 0.543467   0.378272
 C 0.950767 0.260233 0.210133   0.379131
 C 0.739767 0.690533 0.210133   0.379052
 C 0.309467 0.049233 0.210133   0.379051
 C 0.6759 0.9003 0.238   0.582994
 C 0.0997 0.7756 0.238   0.582995
 C 0.2244 0.3241 0.238   0.582994
 C 0.342567 0.233633 0.571333   0.584629
 C 0.766367 0.108933 0.571333   0.584683
 C 0.891067 0.657433 0.571333   0.584694
 C 0.009233 0.566967 0.904667   0.583116
 C 0.433033 0.442267 0.904667   0.583127
 C 0.557733 0.990767 0.904667   0.583099
 C 0.3241 0.0997 0.762   0.582994
 C 0.9003 0.2244 0.762   0.582994
 C 0.7756 0.6759 0.762   0.582993
 C 0.657433 0.766367 0.428667   0.584629
 C 0.233633 0.891067 0.428667   0.584682
 C 0.108933 0.342567 0.428667   0.584693
 C 0.990767 0.433033 0.095333   0.583115
 C 0.566967 0.557733 0.095333   0.583126
 C 0.442267 0.009233 0.095333   0.583098
 C 0.6942 0.956 0.1738   -0.024835
 C 0.044 0.7382 0.1738   -0.024832
 C 0.2618 0.3058 0.1738   -0.024836
 C 0.360867 0.289333 0.507133   -0.025568
 C 0.710667 0.071533 0.507133   -0.025671
 C 0.928467 0.639133 0.507133   -0.02567
 C 0.027533 0.622667 0.840467   -0.025104
 C 0.377333 0.404867 0.840467   -0.025194
 C 0.595133 0.972467 0.840467   -0.025048
 C 0.3058 0.044 0.8262   -0.024835
 C 0.956 0.2618 0.8262   -0.024832
 C 0.7382 0.6942 0.8262   -0.024836
 C 0.639133 0.710667 0.492867   -0.025568
 C 0.289333 0.928467 0.492867   -0.025671
 C 0.071533 0.360867 0.492867   -0.02567
 C 0.972467 0.377333 0.159533   -0.025104
 C 0.622667 0.595133 0.159533   -0.025194
 C 0.404867 0.027533 0.159533   -0.025047
 C 0.7126 0.954 0.1026   0.026278
 C 0.046 0.7586 0.1026   0.026279
 C 0.2414 0.2874 0.1026   0.02628
 C 0.379267 0.287333 0.435933   0.02658
 C 0.712667 0.091933 0.435933   0.026588
 C 0.908067 0.620733 0.435933   0.02653
 C 0.045933 0.620667 0.769267   0.026795
 C 0.379333 0.425267 0.769267   0.026895
 C 0.574733 0.954067 0.769267   0.026819
 C 0.2874 0.046 0.8974   0.026278
 C 0.954 0.2414 0.8974   0.026279
 C 0.7586 0.7126 0.8974   0.02628
 C 0.620733 0.712667 0.564067   0.02658
 C 0.287333 0.908067 0.564067   0.026588
 C 0.091933 0.379267 0.564067   0.02653
 C 0.954067 0.379333 0.230733   0.026795
 C 0.620667 0.574733 0.230733   0.026895
 C 0.425267 0.045933 0.230733   0.026819
 C 0.7155 0.8874 0.0561   0.604254
 C 0.1126 0.8281 0.0561   0.604261
 C 0.1719 0.2845 0.0561   0.604245
 C 0.382167 0.220733 0.389433   0.605714
 C 0.779267 0.161433 0.389433   0.605759
 C 0.838567 0.617833 0.389433   0.605766
 C 0.048833 0.554067 0.722767   0.603777
 C 0.445933 0.494767 0.722767   0.60378
 C 0.505233 0.951167 0.722767   0.603701
 C 0.2845 0.1126 0.9439   0.604254
 C 0.8874 0.1719 0.9439   0.604261
 C 0.8281 0.7155 0.9439   0.604245
 C 0.617833 0.779267 0.610567   0.605714
 C 0.220733 0.838567 0.610567   0.605759
 C 0.161433 0.382167 0.610567   0.605766
 C 0.951167 0.445933 0.277233   0.603777
 C 0.554067 0.505233 0.277233   0.60378
 C 0.494767 0.048833 0.277233   0.603701
 Br 0.72991 0.18048 0.11097   -0.024908
 Br 0.81952 0.54943 0.11097   -0.024899
 Br 0.45057 0.27009 0.11097   -0.024903
 Br 0.396577 0.513813 0.444303   -0.024636
 Br 0.486187 0.882763 0.444303   -0.024622
 Br 0.117237 0.603423 0.444303   -0.024572
 Br 0.063243 0.847147 0.777637   -0.02466
 Br 0.152853 0.216097 0.777637   -0.024667
 Br 0.783903 0.936757 0.777637   -0.024685
 Br 0.27009 0.81952 0.88903   -0.024908
 Br 0.18048 0.45057 0.88903   -0.024899
 Br 0.54943 0.72991 0.88903   -0.024903
 Br 0.603423 0.486187 0.555697   -0.024636
 Br 0.513813 0.117237 0.555697   -0.024622
 Br 0.882763 0.396577 0.555697   -0.024572
 Br 0.936757 0.152853 0.222363   -0.02466
 Br 0.847147 0.783903 0.222363   -0.024667
 Br 0.216097 0.063243 0.222363   -0.024685
 N 0.7252 0.0276 0.0702   -0.430264
 N 0.9724 0.6976 0.0702   -0.430286
 N 0.3024 0.2748 0.0702   -0.430268
 N 0.391867 0.360933 0.403533   -0.430157
 N 0.639067 0.030933 0.403533   -0.430118
 N 0.969067 0.608133 0.403533   -0.430077
 N 0.058533 0.694267 0.736867   -0.430247
 N 0.305733 0.364267 0.736867   -0.430211
 N 0.635733 0.941467 0.736867   -0.430224
 N 0.2748 0.9724 0.9298   -0.430264
 N 0.0276 0.3024 0.9298   -0.430286
 N 0.6976 0.7252 0.9298   -0.430268
 N 0.608133 0.639067 0.596467   -0.430157
 N 0.360933 0.969067 0.596467   -0.430118
 N 0.030933 0.391867 0.596467   -0.430077
 N 0.941467 0.305733 0.263133   -0.430247
 N 0.694267 0.635733 0.263133   -0.430211
 N 0.364267 0.058533 0.263133   -0.430224
 N 0.6968 0.0323 0.1865   -0.441039
 N 0.9677 0.6645 0.1865   -0.441042
 N 0.3355 0.3032 0.1865   -0.44104
 N 0.363467 0.365633 0.519833   -0.441046
 N 0.634367 0.997833 0.519833   -0.441013
 N 0.002167 0.636533 0.519833   -0.440929
 N 0.030133 0.698967 0.853167   -0.441977
 N 0.301033 0.331167 0.853167   -0.441931
 N 0.668833 0.969867 0.853167   -0.442027
 N 0.3032 0.9677 0.8135   -0.441039
 N 0.0323 0.3355 0.8135   -0.441042
 N 0.6645 0.6968 0.8135   -0.44104
 N 0.636533 0.634367 0.480167   -0.441046
 N 0.365633 0.002167 0.480167   -0.441013
 N 0.997833 0.363467 0.480167   -0.440929
 N 0.969867 0.301033 0.146833   -0.441977
 N 0.698967 0.668833 0.146833   -0.441931
 N 0.331167 0.030133 0.146833   -0.442027
 N 0.6771 0.829 0.2321   -0.621346
 N 0.171 0.8481 0.2321   -0.621345
 N 0.1519 0.3229 0.2321   -0.62134
 N 0.343767 0.162333 0.565433   -0.623013
 N 0.837667 0.181433 0.565433   -0.623025
 N 0.818567 0.656233 0.565433   -0.623067
 N 0.010433 0.495667 0.898767   -0.621249
 N 0.504333 0.514767 0.898767   -0.621248
 N 0.485233 0.989567 0.898767   -0.621236
 N 0.3229 0.171 0.7679   -0.621346
 N 0.829 0.1519 0.7679   -0.621345
 N 0.8481 0.6771 0.7679   -0.62134
 N 0.656233 0.837667 0.434567   -0.623012
 N 0.162333 0.818567 0.434567   -0.623024
 N 0.181433 0.343767 0.434567   -0.623067
 N 0.989567 0.504333 0.101233   -0.621249
 N 0.495667 0.485233 0.101233   -0.621248
 N 0.514767 0.010433 0.101233   -0.621235
 N 0.7279 0.9073 0.9893   -0.787443
 N 0.0927 0.8206 0.9893   -0.787471
 N 0.1794 0.2721 0.9893   -0.787435
 N 0.394567 0.240633 0.322633   -0.788777
 N 0.759367 0.153933 0.322633   -0.788716
 N 0.846067 0.605433 0.322633   -0.788672
 N 0.061233 0.573967 0.655967   -0.787242
 N 0.426033 0.487267 0.655967   -0.787275
 N 0.512733 0.938767 0.655967   -0.787276
 N 0.2721 0.0927 0.0107   -0.787443
 N 0.9073 0.1794 0.0107   -0.787471
 N 0.8206 0.7279 0.0107   -0.787435
 N 0.605433 0.759367 0.677367   -0.788777
 N 0.240633 0.846067 0.677367   -0.788716
 N 0.153933 0.394567 0.677367   -0.788672
 N 0.938767 0.426033 0.344033   -0.787242
 N 0.573967 0.512733 0.344033   -0.787275
 N 0.487267 0.061233 0.344033   -0.787276
 O 0.6607 0.9272 0.29604   -0.54179
 O 0.0728 0.7335 0.29604   -0.541796
 O 0.2665 0.3393 0.29604   -0.541792
 O 0.327367 0.260533 0.629373   -0.542372
 O 0.739467 0.066833 0.629373   -0.542381
 O 0.933167 0.672633 0.629373   -0.542399
 O 0.994033 0.593867 0.962707   -0.541888
 O 0.406133 0.400167 0.962707   -0.54191
 O 0.599833 0.005967 0.962707   -0.541889
 O 0.3393 0.0728 0.70396   -0.54179
 O 0.9272 0.2665 0.70396   -0.541796
 O 0.7335 0.6607 0.70396   -0.541792
 O 0.672633 0.739467 0.370627   -0.542372
 O 0.260533 0.933167 0.370627   -0.542381
 O 0.066833 0.327367 0.370627   -0.542398
 O 0.005967 0.406133 0.037293   -0.541888
 O 0.593867 0.599833 0.037293   -0.54191
 O 0.400167 0.994033 0.037293   -0.541889
 O 0.7075 0.8195 0.08567   -0.594699
 O 0.1805 0.888 0.08567   -0.59469
 O 0.112 0.2925 0.08567   -0.594687
 O 0.374167 0.152833 0.419003   -0.595032
 O 0.847167 0.221333 0.419003   -0.595091
 O 0.778667 0.625833 0.419003   -0.59511
 O 0.040833 0.486167 0.752337   -0.594526
 O 0.513833 0.554667 0.752337   -0.594505
 O 0.445333 0.959167 0.752337   -0.59443
 O 0.2925 0.1805 0.91433   -0.594699
 O 0.8195 0.112 0.91433   -0.59469
 O 0.888 0.7075 0.91433   -0.594687
 O 0.625833 0.847167 0.580997   -0.595032
 O 0.152833 0.778667 0.580997   -0.595091
 O 0.221333 0.374167 0.580997   -0.59511
 O 0.959167 0.513833 0.247663   -0.594526
 O 0.486167 0.445333 0.247663   -0.594505
 O 0.554667 0.040833 0.247663   -0.59443
