{'_ref': 'TBD', '_srcid': 'CAKYAQ_clean', 'submitters': [{'name': 'Dalar Nazarian Jeff Camp and David Sholl', 'email': 'dalar@gatech.edu jcamp6@gatech.edu'}], '_method': 'VASP DFT with PBE;DDEC'}
data_CeU2C12O13
_symmetry_space_group_name_H-M   'P 1'
_cell_length_a   8.31880000
_cell_length_b   15.85230000
_cell_length_c   21.58840000
_cell_angle_alpha   90.00000000
_cell_angle_beta   90.00000000
_cell_angle_gamma   90.00000000
_symmetry_Int_Tables_number   1
_chemical_formula_structural   CeU2C12O13
_chemical_formula_sum   'Ce4 U8 C48 O52'
_cell_volume   2846.90792947
_cell_formula_units_Z   4
loop_
 _symmetry_equiv_pos_site_id
 _symmetry_equiv_pos_as_xyz
  1  'x, y, z'
loop_
 _atom_site_label
 _atom_site_fract_x
 _atom_site_fract_y
 _atom_site_fract_z
 _atom_site_charge
 Ce 0.14518 0.15677 0.72753   1.306181
 Ce 0.85482 0.84323 0.22753   1.306181
 Ce 0.35482 0.65677 0.72753   1.306185
 Ce 0.64518 0.34323 0.22753   1.306185
 U 0.97775 0.64397 0.9762   2.061258
 U 0.98467 0.36591 0.97183   2.077831
 U 0.02225 0.35603 0.4762   2.061258
 U 0.01533 0.63409 0.47183   2.077831
 U 0.52225 0.14397 0.9762   2.061261
 U 0.51533 0.86591 0.97183   2.077833
 U 0.47775 0.85603 0.4762   2.061261
 U 0.48467 0.13409 0.47183   2.077833
 C 0.0179 0.1874 0.9782   0.525996
 C 0.02 0.0923 0.9817   -0.116921
 C 0.0146 0.9164 0.979   -0.12173
 C 0.0102 0.8215 0.9817   0.523441
 C 0.189 0.913 0.8839   0.71102
 C 0.1996 0.091 0.8848   0.787059
 C 0.8348 0.0953 0.0753   0.734623
 C 0.101 0.9597 0.9352   -0.073744
 C 0.9234 0.9607 0.0244   -0.09497
 C 0.1068 0.0469 0.9358   -0.134854
 C 0.9295 0.0496 0.0245   -0.0418
 C 0.8244 0.9157 0.0726   0.805598
 C 0.9821 0.8126 0.4782   0.525996
 C 0.98 0.9077 0.4817   -0.116921
 C 0.9854 0.0836 0.479   -0.12173
 C 0.9898 0.1785 0.4817   0.523441
 C 0.811 0.087 0.3839   0.711019
 C 0.8004 0.909 0.3848   0.787059
 C 0.1652 0.9047 0.5753   0.734623
 C 0.899 0.0403 0.4352   -0.073744
 C 0.0766 0.0393 0.5244   -0.09497
 C 0.8932 0.9531 0.4358   -0.134854
 C 0.0705 0.9504 0.5245   -0.0418
 C 0.1756 0.0843 0.5726   0.805598
 C 0.4821 0.6874 0.9782   0.525997
 C 0.48 0.5923 0.9817   -0.116921
 C 0.4854 0.4164 0.979   -0.12173
 C 0.4898 0.3215 0.9817   0.523442
 C 0.311 0.413 0.8839   0.71102
 C 0.3004 0.591 0.8848   0.787059
 C 0.6652 0.5953 0.0753   0.734623
 C 0.399 0.4597 0.9352   -0.073744
 C 0.5766 0.4607 0.0244   -0.09497
 C 0.3932 0.5469 0.9358   -0.134854
 C 0.5705 0.5496 0.0245   -0.0418
 C 0.6756 0.4157 0.0726   0.805598
 C 0.5179 0.3126 0.4782   0.525997
 C 0.52 0.4077 0.4817   -0.116921
 C 0.5146 0.5836 0.479   -0.12173
 C 0.5102 0.6785 0.4817   0.523442
 C 0.689 0.587 0.3839   0.711019
 C 0.6996 0.409 0.3848   0.787059
 C 0.3348 0.4047 0.5753   0.734623
 C 0.601 0.5403 0.4352   -0.073744
 C 0.4234 0.5393 0.5244   -0.09497
 C 0.6068 0.4531 0.4358   -0.134854
 C 0.4295 0.4504 0.5245   -0.0418
 C 0.3244 0.5843 0.5726   0.805598
 O 0.955 0.2273 0.0229   -0.644434
 O 0.077 0.2253 0.9335   -0.634747
 O 0.9408 0.7835 0.0241   -0.650112
 O 0.334 0.8945 0.8905   -0.697394
 O 0.1116 0.9009 0.8342   -0.584864
 O 0.3423 0.117 0.8939   -0.682047
 O 0.1322 0.0931 0.8333   -0.611133
 O 0.8822 0.908 0.1254   -0.625921
 O 0.6831 0.892 0.0581   -0.721832
 O 0.9223 0.5049 0.9527   -1.149112
 O 0.6907 0.116 0.0625   -0.761003
 O 0.8986 0.1082 0.1248   -0.56458
 O 0.0806 0.7814 0.9386   -0.621815
 O 0.045 0.7727 0.5229   -0.644434
 O 0.923 0.7747 0.4335   -0.634747
 O 0.0592 0.2165 0.5241   -0.650112
 O 0.666 0.1055 0.3905   -0.697394
 O 0.8884 0.0991 0.3342   -0.584864
 O 0.6577 0.883 0.3939   -0.682047
 O 0.8678 0.9069 0.3333   -0.611133
 O 0.1178 0.092 0.6254   -0.625921
 O 0.3169 0.108 0.5581   -0.721832
 O 0.0777 0.4951 0.4527   -1.149112
 O 0.3093 0.884 0.5625   -0.761003
 O 0.1014 0.8918 0.6248   -0.56458
 O 0.9194 0.2186 0.4386   -0.621815
 O 0.545 0.7273 0.0229   -0.644434
 O 0.423 0.7253 0.9335   -0.634748
 O 0.5592 0.2835 0.0241   -0.650112
 O 0.166 0.3945 0.8905   -0.697394
 O 0.3884 0.4009 0.8342   -0.584864
 O 0.1577 0.617 0.8939   -0.682047
 O 0.3678 0.5931 0.8333   -0.611133
 O 0.6178 0.408 0.1254   -0.625922
 O 0.8169 0.392 0.0581   -0.721832
 O 0.5777 0.0049 0.9527   -1.149113
 O 0.8093 0.616 0.0625   -0.761003
 O 0.6014 0.6082 0.1248   -0.56458
 O 0.4194 0.2814 0.9386   -0.621815
 O 0.455 0.2727 0.5229   -0.644434
 O 0.577 0.2747 0.4335   -0.634748
 O 0.4408 0.7165 0.5241   -0.650112
 O 0.834 0.6055 0.3905   -0.697394
 O 0.6116 0.5991 0.3342   -0.584864
 O 0.8423 0.383 0.3939   -0.682047
 O 0.6322 0.4069 0.3333   -0.611133
 O 0.3822 0.592 0.6254   -0.625922
 O 0.1831 0.608 0.5581   -0.721832
 O 0.4223 0.9951 0.4527   -1.149113
 O 0.1907 0.384 0.5625   -0.761002
 O 0.3986 0.3918 0.6248   -0.56458
 O 0.5806 0.7186 0.4386   -0.621815
