{'_ref': 'TBD', '_srcid': 'CAKYAQ_clean', 'submitters': [{'name': 'Dalar Nazarian Jeff Camp and David Sholl', 'email': 'dalar@gatech.edu jcamp6@gatech.edu'}], '_method': 'VASP DFT with PBE;DDEC'}
data_CuH4C8N3O4
_symmetry_space_group_name_H-M   'P 1'
_cell_length_a   4.69300000
_cell_length_b   11.09599949
_cell_length_c   19.84900000
_cell_angle_alpha   90.00000000
_cell_angle_beta   90.00000000
_cell_angle_gamma   96.89999842
_symmetry_Int_Tables_number   1
_chemical_formula_structural   CuH4C8N3O4
_chemical_formula_sum   'Cu4 H16 C32 N12 O16'
_cell_volume   1026.12134847
_cell_formula_units_Z   4
loop_
 _symmetry_equiv_pos_site_id
 _symmetry_equiv_pos_as_xyz
  1  'x, y, z'
loop_
 _atom_site_label
 _atom_site_fract_x
 _atom_site_fract_y
 _atom_site_fract_z
 _atom_site_charge
 Cu 0.28 0.9358 0.83935   0.823406
 Cu 0.72 0.5642 0.33935   0.823406
 Cu 0.72 0.0642 0.16065   0.823406
 Cu 0.28 0.4358 0.66065   0.823406
 H 0.2395 0.8972 0.5866   0.099709
 H 0.4196 0.9915 0.6864   0.117446
 H 0.5628 0.8224 0.9492   0.119848
 H 0.2474 0.1329 0.9458   0.090636
 H 0.7605 0.6028 0.0866   0.099707
 H 0.5804 0.5085 0.1864   0.117446
 H 0.4372 0.6776 0.4492   0.119846
 H 0.7526 0.3671 0.4458   0.090636
 H 0.7605 0.1028 0.4134   0.099701
 H 0.5804 0.0085 0.3136   0.117446
 H 0.4372 0.1776 0.0508   0.119847
 H 0.7526 0.8671 0.0542   0.090636
 H 0.2395 0.3972 0.9134   0.0997
 H 0.4196 0.4915 0.8136   0.117446
 H 0.5628 0.3224 0.5508   0.119846
 H 0.2474 0.6329 0.5542   0.090636
 C 0.038 0.763 0.7489   0.03587
 C 0.931 0.708 0.6904   0.143578
 C 0.182 0.86 0.6302   0.127066
 C 0.289 0.919 0.6876   0.100681
 C 0.979 0.712 0.8199   0.635923
 C 0.743 0.59 0.6841   0.63004
 C 0.535 0.899 0.9686   0.096431
 C 0.353 0.077 0.9672   0.097074
 C 0.962 0.737 0.2489   0.03587
 C 0.069 0.792 0.1904   0.143578
 C 0.818 0.64 0.1302   0.127067
 C 0.711 0.581 0.1876   0.100681
 C 0.021 0.788 0.3199   0.635923
 C 0.257 0.91 0.1841   0.63004
 C 0.465 0.601 0.4686   0.096431
 C 0.647 0.423 0.4672   0.097074
 C 0.962 0.237 0.2511   0.03587
 C 0.069 0.292 0.3096   0.143578
 C 0.818 0.14 0.3698   0.127068
 C 0.711 0.081 0.3124   0.10068
 C 0.021 0.288 0.1801   0.635923
 C 0.257 0.41 0.3159   0.630041
 C 0.465 0.101 0.0314   0.096431
 C 0.647 0.923 0.0328   0.097075
 C 0.038 0.263 0.7511   0.03587
 C 0.931 0.208 0.8096   0.143578
 C 0.182 0.36 0.8698   0.127069
 C 0.289 0.419 0.8124   0.10068
 C 0.979 0.212 0.6801   0.635923
 C 0.743 0.09 0.8159   0.630041
 C 0.535 0.399 0.5314   0.096431
 C 0.353 0.577 0.5328   0.097075
 N 0.212 0.8674 0.7474   -0.235219
 N 0.006 0.758 0.6314   -0.358364
 N 0.395 0.975 0.9366   -0.229403
 N 0.788 0.6326 0.2474   -0.235219
 N 0.994 0.742 0.1314   -0.358364
 N 0.605 0.525 0.4366   -0.229403
 N 0.788 0.1326 0.2526   -0.235219
 N 0.994 0.242 0.3686   -0.358365
 N 0.605 0.025 0.0634   -0.229403
 N 0.212 0.3674 0.7526   -0.235219
 N 0.006 0.258 0.8686   -0.358365
 N 0.395 0.475 0.5634   -0.229403
 O 0.104 0.7745 0.8651   -0.583436
 O 0.838 0.6131 0.8266   -0.554386
 O 0.479 0.5937 0.6903   -0.541507
 O 0.852 0.4983 0.6685   -0.615389
 O 0.896 0.7255 0.3651   -0.583436
 O 0.162 0.8869 0.3266   -0.554386
 O 0.521 0.9063 0.1903   -0.541507
 O 0.148 0.0017 0.1685   -0.615389
 O 0.896 0.2255 0.1349   -0.583436
 O 0.162 0.3869 0.1734   -0.554386
 O 0.521 0.4063 0.3097   -0.541507
 O 0.148 0.5017 0.3315   -0.615389
 O 0.104 0.2745 0.6349   -0.583436
 O 0.838 0.1131 0.6734   -0.554386
 O 0.479 0.0937 0.8097   -0.541507
 O 0.852 0.9983 0.8315   -0.615389
