{'_ref': 'TBD', '_srcid': 'CAKYAQ_clean', 'submitters': [{'name': 'Dalar Nazarian Jeff Camp and David Sholl', 'email': 'dalar@gatech.edu jcamp6@gatech.edu'}], '_method': 'VASP DFT with PBE;DDEC'}
data_CdH14C22N3O2
_symmetry_space_group_name_H-M   'P 1'
_cell_length_a   11.39200012
_cell_length_b   15.56839960
_cell_length_c   17.66850000
_cell_angle_alpha   82.41520148
_cell_angle_beta   71.19300188
_cell_angle_gamma   68.53890091
_symmetry_Int_Tables_number   1
_chemical_formula_structural   CdH14C22N3O2
_chemical_formula_sum   'Cd4 H56 C88 N12 O8'
_cell_volume   2760.28176938
_cell_formula_units_Z   4
loop_
 _symmetry_equiv_pos_site_id
 _symmetry_equiv_pos_as_xyz
  1  'x, y, z'
loop_
 _atom_site_label
 _atom_site_fract_x
 _atom_site_fract_y
 _atom_site_fract_z
 _atom_site_charge
 Cd 0.15041 0.08587 0.54435   0.380391
 Cd 0.21937 0.58587 0.04435   0.38022
 Cd 0.78063 0.41413 0.95565   0.38022
 Cd 0.84959 0.91413 0.45565   0.380392
 H 0.5097 0.2137 0.3787   0.093886
 H 0.5945 0.3344 0.338   0.102959
 H 0.2763 0.5013 0.4987   0.10569
 H 0.1915 0.3808 0.5324   0.099426
 H 0.6833 0.4347 0.3181   0.122193
 H 0.8446 0.4451 0.2029   0.129839
 H 0.0433 0.4469 0.1131   0.066407
 H 0.0211 0.6656 0.2128   0.081132
 H 0.8194 0.6722 0.3048   0.120968
 H 0.3407 0.6066 0.4532   0.116139
 H 0.554 0.8111 0.3897   0.117216
 H 0.4397 0.9535 0.4487   0.073521
 H 0.1207 0.8889 0.5423   0.032296
 H 0.2274 0.7429 0.4889   0.128111
 H 0.8979 0.7137 0.8787   0.092862
 H 0.7331 0.8344 0.838   0.104112
 H 0.7237 0.0013 0.9987   0.106019
 H 0.8953 0.8808 0.0324   0.100206
 H 0.5639 0.9347 0.8181   0.121559
 H 0.5074 0.9451 0.7029   0.129319
 H 0.3967 0.9469 0.6131   0.06538
 H 0.1005 0.1656 0.7128   0.08192
 H 0.2036 0.1722 0.8048   0.121015
 H 0.5995 0.1066 0.9532   0.115387
 H 0.2452 0.3111 0.8897   0.117544
 H 0.1581 0.4535 0.9487   0.072698
 H 0.4481 0.3889 0.0423   0.031659
 H 0.5408 0.2429 0.9889   0.129059
 H 0.1021 0.2863 0.1213   0.092861
 H 0.2669 0.1656 0.162   0.104112
 H 0.2763 0.9987 0.0013   0.106019
 H 0.1047 0.1192 0.9676   0.100205
 H 0.4361 0.0653 0.1819   0.121559
 H 0.4926 0.0549 0.2971   0.129319
 H 0.6033 0.0531 0.3869   0.06538
 H 0.8995 0.8344 0.2872   0.08192
 H 0.7964 0.8278 0.1952   0.121015
 H 0.4005 0.8934 0.0468   0.115387
 H 0.7548 0.6889 0.1103   0.117544
 H 0.8419 0.5465 0.0513   0.072698
 H 0.5519 0.6111 0.9577   0.031659
 H 0.4592 0.7571 0.0111   0.129059
 H 0.4903 0.7863 0.6213   0.093885
 H 0.4055 0.6656 0.662   0.102959
 H 0.7237 0.4987 0.5013   0.10569
 H 0.8085 0.6192 0.4676   0.099426
 H 0.3167 0.5653 0.6819   0.122194
 H 0.1554 0.5549 0.7971   0.129839
 H 0.9567 0.5531 0.8869   0.066407
 H 0.9789 0.3344 0.7872   0.081131
 H 0.1806 0.3278 0.6952   0.120968
 H 0.6593 0.3934 0.5468   0.116139
 H 0.446 0.1889 0.6103   0.117216
 H 0.5603 0.0465 0.5513   0.073521
 H 0.8793 0.1111 0.4577   0.032296
 H 0.7726 0.2571 0.5111   0.128111
 C 0.2891 0.2078 0.4844   0.631059
 C 0.3405 0.2872 0.4592   -0.119506
 C 0.461 0.2728 0.4022   -0.053971
 C 0.5124 0.3449 0.3787   -0.133351
 C 0.4461 0.4303 0.4135   0.022299
 C 0.3244 0.4437 0.4727   -0.129741
 C 0.2748 0.3709 0.4931   -0.022934
 C 0.503 0.5067 0.3905   0.110251
 C 0.6282 0.4941 0.3395   -0.227766
 C 0.6741 0.5681 0.3195   0.23234
 C 0.8076 0.5588 0.2636   0.067033
 C 0.8775 0.4922 0.2058   -0.199738
 C 0.9961 0.494 0.1518   0.161596
 C 0.9829 0.6216 0.2098   0.128709
 C 0.8633 0.6253 0.2657   -0.167424
 C 0.4286 0.5946 0.4192   -0.215556
 C 0.4792 0.6656 0.3994   0.23822
 C 0.4055 0.7596 0.433   0.072016
 C 0.4646 0.8249 0.4217   -0.166131
 C 0.3951 0.9105 0.4567   0.151616
 C 0.2107 0.8725 0.5111   0.112004
 C 0.2735 0.7851 0.4793   -0.20757
 C 0.0187 0.7078 0.9844   0.631722
 C 0.9131 0.7872 0.9592   -0.12212
 C 0.864 0.7728 0.9022   -0.051225
 C 0.764 0.8449 0.8787   -0.134609
 C 0.7101 0.9303 0.9135   0.022102
 C 0.7592 0.9437 0.9727   -0.131
 C 0.8612 0.8709 0.9931   -0.021989
 C 0.5998 0.0067 0.8905   0.108782
 C 0.5382 0.9941 0.8395   -0.226157
 C 0.4383 0.0681 0.8195   0.233305
 C 0.37 0.0588 0.7636   0.066036
 C 0.4245 0.9922 0.7058   -0.198475
 C 0.3581 0.994 0.6518   0.163658
 C 0.1857 0.1216 0.7098   0.128782
 C 0.2457 0.1253 0.7657   -0.167573
 C 0.5576 0.0946 0.9192   -0.212453
 C 0.4558 0.1656 0.8994   0.237543
 C 0.4019 0.2596 0.933   0.071596
 C 0.2888 0.3249 0.9217   -0.165806
 C 0.2377 0.4105 0.9567   0.153452
 C 0.4057 0.3725 0.0111   0.111803
 C 0.4621 0.2851 0.9793   -0.20828
 C 0.9813 0.2922 0.0156   0.631722
 C 0.0869 0.2128 0.0408   -0.12212
 C 0.136 0.2272 0.0978   -0.051225
 C 0.236 0.1551 0.1213   -0.134609
 C 0.2899 0.0697 0.0865   0.022102
 C 0.2408 0.0563 0.0273   -0.131
 C 0.1388 0.1291 0.0069   -0.021989
 C 0.4002 0.9933 0.1095   0.108782
 C 0.4618 0.0059 0.1605   -0.226157
 C 0.5617 0.9319 0.1805   0.233305
 C 0.63 0.9412 0.2364   0.066036
 C 0.5755 0.0078 0.2942   -0.198475
 C 0.6419 0.006 0.3482   0.163658
 C 0.8143 0.8784 0.2902   0.128782
 C 0.7543 0.8747 0.2343   -0.167573
 C 0.4424 0.9054 0.0808   -0.212453
 C 0.5442 0.8344 0.1006   0.237544
 C 0.5981 0.7404 0.067   0.071597
 C 0.7112 0.6751 0.0783   -0.165806
 C 0.7623 0.5895 0.0433   0.153452
 C 0.5943 0.6275 0.9889   0.111803
 C 0.5379 0.7149 0.0207   -0.20828
 C 0.7109 0.7922 0.5156   0.631059
 C 0.6595 0.7128 0.5408   -0.119506
 C 0.539 0.7272 0.5978   -0.053971
 C 0.4876 0.6551 0.6213   -0.133351
 C 0.5539 0.5697 0.5865   0.0223
 C 0.6756 0.5563 0.5273   -0.129741
 C 0.7252 0.6291 0.5069   -0.022934
 C 0.497 0.4933 0.6095   0.110251
 C 0.3718 0.5059 0.6605   -0.227766
 C 0.3259 0.4319 0.6805   0.23234
 C 0.1924 0.4412 0.7364   0.067033
 C 0.1225 0.5078 0.7942   -0.199738
 C 0.0039 0.506 0.8482   0.161596
 C 0.0171 0.3784 0.7902   0.128709
 C 0.1367 0.3747 0.7343   -0.167424
 C 0.5714 0.4054 0.5808   -0.215556
 C 0.5208 0.3344 0.6006   0.23822
 C 0.5945 0.2404 0.567   0.072016
 C 0.5354 0.1751 0.5783   -0.166131
 C 0.6049 0.0895 0.5433   0.151617
 C 0.7893 0.1275 0.4889   0.112003
 C 0.7265 0.2149 0.5207   -0.20757
 N 0.6002 0.653 0.3494   -0.395047
 N 0.0468 0.5587 0.1517   -0.275653
 N 0.2703 0.9355 0.5003   -0.265552
 N 0.3974 0.153 0.8494   -0.396701
 N 0.2428 0.0587 0.6517   -0.278444
 N 0.2939 0.4355 0.000300000000003   -0.265984
 N 0.6026 0.847 0.1506   -0.396701
 N 0.7572 0.9413 0.3483   -0.278444
 N 0.7061 0.5645 0.9997   -0.265984
 N 0.3998 0.347 0.6506   -0.395047
 N 0.9532 0.4413 0.8483   -0.275653
 N 0.7297 0.0645 0.4997   -0.265552
 O 0.3579 0.1283 0.4635   -0.5405
 O 0.1683 0.23 0.5298   -0.576353
 O 0.0503 0.6283 0.9635   -0.540671
 O 0.0719 0.73 0.0298   -0.576771
 O 0.9497 0.3717 0.0365   -0.540671
 O 0.9281 0.27 0.9702   -0.576771
 O 0.6421 0.8717 0.5365   -0.5405
 O 0.8317 0.77 0.4702   -0.576353
