{'_ref': 'TBD', '_srcid': 'CAKYAQ_clean', 'submitters': [{'name': 'Dalar Nazarian Jeff Camp and David Sholl', 'email': 'dalar@gatech.edu jcamp6@gatech.edu'}], '_method': 'VASP DFT with PBE;DDEC'}
data_ZnH2C7NO4
_symmetry_space_group_name_H-M   'P 1'
_cell_length_a   7.06490000
_cell_length_b   7.06490000
_cell_length_c   19.77500000
_cell_angle_alpha   90.00000000
_cell_angle_beta   90.00000000
_cell_angle_gamma   90.00000000
_symmetry_Int_Tables_number   1
_chemical_formula_structural   ZnH2C7NO4
_chemical_formula_sum   'Zn4 H8 C28 N4 O16'
_cell_volume   987.025857498
_cell_formula_units_Z   4
loop_
 _symmetry_equiv_pos_site_id
 _symmetry_equiv_pos_as_xyz
  1  'x, y, z'
loop_
 _atom_site_label
 _atom_site_fract_x
 _atom_site_fract_y
 _atom_site_fract_z
 _atom_site_charge
 Zn 0.0 0.0 0.72154   0.969085
 Zn 0.5 0.5 0.22154   0.969085
 Zn 0.5 0.5 0.77846   0.969085
 Zn 0.0 0.0 0.27846   0.969085
 H 0.7998 0.7998 0.949   0.130466
 H 0.2002 0.2002 0.949   0.130466
 H 0.7002 0.2998 0.449   0.130466
 H 0.2998 0.7002 0.449   0.130466
 H 0.7002 0.2998 0.551   0.130463
 H 0.2998 0.7002 0.551   0.130462
 H 0.7998 0.7998 0.051   0.130463
 H 0.2002 0.2002 0.051   0.130462
 C 0.0 0.0 0.9624   0.072897
 C 0.5 0.5 0.4624   0.072897
 C 0.5 0.5 0.5376   0.072893
 C 0.0 0.0 0.0376   0.072893
 C 0.8816 0.8816 0.9265   -0.126489
 C 0.8867 0.8867 0.856   0.132123
 C 0.7641 0.7641 0.8111   0.618936
 C 0.1184 0.1184 0.9265   -0.126488
 C 0.1133 0.1133 0.856   0.132123
 C 0.2359 0.2359 0.8111   0.618937
 C 0.6184 0.3816 0.4265   -0.126489
 C 0.6133 0.3867 0.356   0.132123
 C 0.7359 0.2641 0.3111   0.618936
 C 0.3816 0.6184 0.4265   -0.126488
 C 0.3867 0.6133 0.356   0.132123
 C 0.2641 0.7359 0.3111   0.618937
 C 0.6184 0.3816 0.5735   -0.126487
 C 0.6133 0.3867 0.644   0.132122
 C 0.7359 0.2641 0.6889   0.618936
 C 0.3816 0.6184 0.5735   -0.126487
 C 0.3867 0.6133 0.644   0.132122
 C 0.2641 0.7359 0.6889   0.618937
 C 0.8816 0.8816 0.0735   -0.126487
 C 0.8867 0.8867 0.144   0.132122
 C 0.7641 0.7641 0.1889   0.618936
 C 0.1184 0.1184 0.0735   -0.126487
 C 0.1133 0.1133 0.144   0.132122
 C 0.2359 0.2359 0.1889   0.618937
 N 0.0 0.0 0.8236   -0.302906
 N 0.5 0.5 0.3236   -0.302906
 N 0.5 0.5 0.6764   -0.302906
 N 0.0 0.0 0.1764   -0.302906
 O 0.6528 0.6528 0.8394   -0.556899
 O 0.7849 0.7849 0.7493   -0.567673
 O 0.3472 0.3472 0.8394   -0.556899
 O 0.2151 0.2151 0.7493   -0.567673
 O 0.8472 0.1528 0.3394   -0.556899
 O 0.7151 0.2849 0.2493   -0.567673
 O 0.1528 0.8472 0.3394   -0.556899
 O 0.2849 0.7151 0.2493   -0.567673
 O 0.8472 0.1528 0.6606   -0.556899
 O 0.7151 0.2849 0.7507   -0.567674
 O 0.1528 0.8472 0.6606   -0.556899
 O 0.2849 0.7151 0.7507   -0.567674
 O 0.6528 0.6528 0.1606   -0.556899
 O 0.7849 0.7849 0.2507   -0.567674
 O 0.3472 0.3472 0.1606   -0.556899
 O 0.2151 0.2151 0.2507   -0.567674
