{'_ref': 'TBD', '_srcid': 'CAKYAQ_clean', 'submitters': [{'name': 'Dalar Nazarian Jeff Camp and David Sholl', 'email': 'dalar@gatech.edu jcamp6@gatech.edu'}], '_method': 'VASP DFT with PBE;DDEC'}
data_CdH9C12S2N5
_symmetry_space_group_name_H-M   'P 1'
_cell_length_a   7.63960019
_cell_length_b   10.17250012
_cell_length_c   12.11680000
_cell_angle_alpha   114.81999690
_cell_angle_beta   96.90169663
_cell_angle_gamma   89.99999969
_symmetry_Int_Tables_number   1
_chemical_formula_structural   CdH9C12S2N5
_chemical_formula_sum   'Cd2 H18 C24 S4 N10'
_cell_volume   847.14075617
_cell_formula_units_Z   2
loop_
 _symmetry_equiv_pos_site_id
 _symmetry_equiv_pos_as_xyz
  1  'x, y, z'
loop_
 _atom_site_label
 _atom_site_fract_x
 _atom_site_fract_y
 _atom_site_fract_z
 _atom_site_charge
 Cd 0.0 0.0 0.5   0.842827
 Cd 0.5 0.5 0.5   0.841947
 H 0.9785 0.8162 0.6578   0.074219
 H 0.8999 0.8227 0.8354   0.13939
 H 0.7058 0.213 0.9054   0.145296
 H 0.79 0.1945 0.7244   0.082911
 H 0.5215 0.1584 0.3422   0.075369
 H 0.6001 0.9873 0.1646   0.138873
 H 0.7942 0.3076 0.0946   0.145331
 H 0.71 0.4701 0.2756   0.083096
 H 0.0215 0.1838 0.3422   0.074219
 H 0.1001 0.1773 0.1646   0.139388
 H 0.2942 0.787 0.0946   0.145295
 H 0.21 0.8055 0.2756   0.082911
 H 0.4785 0.8416 0.6578   0.075369
 H 0.3999 0.0127 0.8354   0.138872
 H 0.2058 0.6924 0.9054   0.145331
 H 0.29 0.5299 0.7244   0.083096
 H 0.75 0.9318 0.0   0.320116
 H 0.25 0.0682 0.0   0.320116
 C 0.1272 0.64668 0.41616   0.361784
 C 0.7981 0.02117 0.89514   0.27742
 C 0.9251 0.89752 0.70884   0.21005
 C 0.8782 0.9008 0.8158   -0.302134
 C 0.763 0.13209 0.85758   -0.300951
 C 0.8144 0.1199 0.7482   0.20822
 C 0.3728 0.23052 0.58384   0.361363
 C 0.7019 0.12603 0.10486   0.2769
 C 0.5749 0.18868 0.29116   0.209013
 C 0.6218 0.085 0.1842   -0.301373
 C 0.737 0.27451 0.14242   -0.301542
 C 0.6856 0.3717 0.2518   0.20842
 C 0.8728 0.35332 0.58384   0.361784
 C 0.2019 0.97883 0.10486   0.27742
 C 0.0749 0.10248 0.29116   0.21005
 C 0.1218 0.0992 0.1842   -0.302133
 C 0.237 0.86791 0.14242   -0.300951
 C 0.1856 0.8801 0.2518   0.20822
 C 0.6272 0.76948 0.41616   0.361363
 C 0.2981 0.87397 0.89514   0.2769
 C 0.4251 0.81132 0.70884   0.209013
 C 0.3782 0.915 0.8158   -0.301373
 C 0.263 0.72549 0.85758   -0.301542
 C 0.3144 0.6283 0.7482   0.20842
 S 0.17687 0.47472 0.36066   -0.429691
 S 0.32313 0.11406 0.63934   -0.429891
 S 0.82313 0.52528 0.63934   -0.429689
 S 0.67687 0.88594 0.36066   -0.429888
 N 0.0907 0.76647 0.45454   -0.505069
 N 0.8975 0.00661 0.67422   -0.356557
 N 0.4093 0.31193 0.54546   -0.504271
 N 0.6025 0.33239 0.32578   -0.356046
 N 0.9093 0.23353 0.54546   -0.505068
 N 0.1025 0.99339 0.32578   -0.356557
 N 0.5907 0.68807 0.45454   -0.504271
 N 0.3975 0.66761 0.67422   -0.356046
 N 0.75 0.0166 0.0   -0.372634
 N 0.25 0.9834 0.0   -0.372633
