{'_ref': 'TBD', '_srcid': 'CAKYAQ_clean', 'submitters': [{'name': 'Dalar Nazarian Jeff Camp and David Sholl', 'email': 'dalar@gatech.edu jcamp6@gatech.edu'}], '_method': 'VASP DFT with PBE;DDEC'}
data_CoHgC4(SN)4
_symmetry_space_group_name_H-M   'P 1'
_cell_length_a   9.16300028
_cell_length_b   14.05700000
_cell_length_c   16.27600000
_cell_angle_alpha   90.00000000
_cell_angle_beta   92.88000187
_cell_angle_gamma   90.00000000
_symmetry_Int_Tables_number   1
_chemical_formula_structural   CoHgC4(SN)4
_chemical_formula_sum   'Co4 Hg4 C16 S16 N16'
_cell_volume   2093.7708336
_cell_formula_units_Z   4
loop_
 _symmetry_equiv_pos_site_id
 _symmetry_equiv_pos_as_xyz
  1  'x, y, z'
loop_
 _atom_site_label
 _atom_site_fract_x
 _atom_site_fract_y
 _atom_site_fract_z
 _atom_site_charge
 Co 0.51867 0.65011 0.7534   0.976577
 Co 0.98133 0.15011 0.7466   0.976577
 Co 0.48133 0.34989 0.2466   0.976576
 Co 0.01867 0.84989 0.2534   0.976576
 Hg 0.01529 0.79639 0.58161   0.414517
 Hg 0.48471 0.29639 0.91839   0.414517
 Hg 0.98471 0.20361 0.41839   0.414517
 Hg 0.51529 0.70361 0.08161   0.414517
 C 0.843 0.7415 0.7412   0.373387
 C 0.8741 0.9975 0.6082   0.371263
 C 0.3617 0.7827 0.6124   0.387976
 C 0.9463 0.714 0.4048   0.373451
 C 0.657 0.2415 0.7588   0.373387
 C 0.6259 0.4975 0.8918   0.371263
 C 0.1383 0.2827 0.8876   0.387976
 C 0.5537 0.214 0.0952   0.373451
 C 0.157 0.2585 0.2588   0.373387
 C 0.1259 0.0025 0.3918   0.371263
 C 0.6383 0.2173 0.3876   0.387976
 C 0.0537 0.286 0.5952   0.373452
 C 0.343 0.7585 0.2412   0.373387
 C 0.3741 0.5025 0.1082   0.371263
 C 0.8617 0.7173 0.1124   0.387976
 C 0.4463 0.786 0.9048   0.373452
 S 0.0159 0.77102 0.73343   -0.244717
 S 0.82212 0.91688 0.54069   -0.195845
 S 0.26809 0.84293 0.54094   -0.215524
 S 0.93438 0.65283 0.49355   -0.255922
 S 0.4841 0.27102 0.76657   -0.244717
 S 0.67788 0.41688 0.95931   -0.195845
 S 0.23191 0.34293 0.95906   -0.215524
 S 0.56562 0.15283 0.00645   -0.255922
 S 0.9841 0.22898 0.26657   -0.244717
 S 0.17788 0.08312 0.45931   -0.195843
 S 0.73191 0.15707 0.45906   -0.215522
 S 0.06562 0.34717 0.50645   -0.255923
 S 0.5159 0.72898 0.23343   -0.244717
 S 0.32212 0.58312 0.04069   -0.195843
 S 0.76809 0.65707 0.04094   -0.215522
 S 0.43438 0.84717 0.99355   -0.255923
 N 0.7269 0.716 0.7461   -0.475318
 N 0.9073 0.0543 0.6549   -0.523162
 N 0.4223 0.7377 0.661   -0.517054
 N 0.9575 0.7551 0.3474   -0.46963
 N 0.7731 0.216 0.7539   -0.475318
 N 0.5927 0.5543 0.8451   -0.523162
 N 0.0777 0.2377 0.839   -0.517054
 N 0.5425 0.2551 0.1526   -0.46963
 N 0.2731 0.284 0.2539   -0.475318
 N 0.0927 0.9457 0.3451   -0.523162
 N 0.5777 0.2623 0.339   -0.517054
 N 0.0425 0.2449 0.6526   -0.46963
 N 0.2269 0.784 0.2461   -0.475318
 N 0.4073 0.4457 0.1549   -0.523162
 N 0.9223 0.7623 0.161   -0.517054
 N 0.4575 0.7449 0.8474   -0.46963
