{'_ref': 'TBD', '_srcid': 'CAKYAQ_clean', 'submitters': [{'name': 'Dalar Nazarian Jeff Camp and David Sholl', 'email': 'dalar@gatech.edu jcamp6@gatech.edu'}], '_method': 'VASP DFT with PBE;DDEC'}
data_Zn2H9C19N7O6
_symmetry_space_group_name_H-M   'P 1'
_cell_length_a   10.81400000
_cell_length_b   10.81400000
_cell_length_c   25.41000000
_cell_angle_alpha   90.00000000
_cell_angle_beta   90.00000000
_cell_angle_gamma   90.00000000
_symmetry_Int_Tables_number   1
_chemical_formula_structural   Zn2H9C19N7O6
_chemical_formula_sum   'Zn8 H36 C76 N28 O24'
_cell_volume   2971.51136436
_cell_formula_units_Z   4
loop_
 _symmetry_equiv_pos_site_id
 _symmetry_equiv_pos_as_xyz
  1  'x, y, z'
loop_
 _atom_site_label
 _atom_site_fract_x
 _atom_site_fract_y
 _atom_site_fract_z
 _atom_site_charge
 Zn 0.45659 0.45906 0.92075   0.798136
 Zn 0.54341 0.54094 0.42075   0.798136
 Zn 0.04094 0.95659 0.17075   0.798136
 Zn 0.95906 0.04341 0.67075   0.798136
 Zn 0.04341 0.95906 0.32925   0.798131
 Zn 0.95659 0.04094 0.82925   0.798131
 Zn 0.45906 0.45659 0.07925   0.798131
 Zn 0.54094 0.54341 0.57925   0.798131
 H 0.332 0.316 0.7917   0.111698
 H 0.1614 0.2003 0.7697   0.117325
 H 0.0934 0.1447 0.9183   0.105117
 H 0.6958 0.7369 0.9221   0.105568
 H 0.668 0.684 0.2917   0.111698
 H 0.8386 0.7997 0.2697   0.117325
 H 0.9066 0.8553 0.4183   0.105117
 H 0.3042 0.2631 0.4221   0.105568
 H 0.184 0.832 0.0417   0.111698
 H 0.2997 0.6614 0.0197   0.117325
 H 0.3553 0.5934 0.1683   0.105117
 H 0.7631 0.1958 0.1721   0.105568
 H 0.816 0.168 0.5417   0.111698
 H 0.7003 0.3386 0.5197   0.117325
 H 0.6447 0.4066 0.6683   0.105117
 H 0.2369 0.8042 0.6721   0.105568
 H 0.168 0.816 0.4583   0.111699
 H 0.3386 0.7003 0.4803   0.117325
 H 0.4066 0.6447 0.3317   0.105117
 H 0.8042 0.2369 0.3279   0.105569
 H 0.832 0.184 0.9583   0.111699
 H 0.6614 0.2997 0.9803   0.117325
 H 0.5934 0.3553 0.8317   0.105117
 H 0.1958 0.7631 0.8279   0.105569
 H 0.316 0.332 0.2083   0.111699
 H 0.2003 0.1614 0.2303   0.117325
 H 0.1447 0.0934 0.0817   0.105117
 H 0.7369 0.6958 0.0779   0.105569
 H 0.684 0.668 0.7083   0.111699
 H 0.7997 0.8386 0.7303   0.117325
 H 0.8553 0.9066 0.5817   0.105117
 H 0.2631 0.3042 0.5779   0.105569
 H 0.944 0.944 0.0   0.09119
 H 0.056 0.056 0.5   0.09119
 H 0.556 0.444 0.25   0.09119
 H 0.444 0.556 0.75   0.09119
 C 0.2829 0.2834 0.81837   0.107871
 C 0.1812 0.2112 0.80501   0.074691
 C 0.1409 0.1794 0.8916   0.113421
 C 0.2416 0.2534 0.90466   0.115008
 C 0.2718 0.2776 0.95934   0.315778
 C 0.7352 0.7586 0.95331   0.020389
 C 0.8273 0.848 0.95293   -0.162943
 C 0.8664 0.9078 0.90232   0.663354
 C 0.7171 0.7166 0.31837   0.107871
 C 0.8188 0.7888 0.30501   0.074691
 C 0.8591 0.8206 0.3916   0.113421
 C 0.7584 0.7466 0.40466   0.115008
 C 0.7282 0.7224 0.45934   0.315778
 C 0.2648 0.2414 0.45331   0.020389
 C 0.1727 0.152 0.45293   -0.162943
 C 0.1336 0.0922 0.40232   0.663354
 C 0.2166 0.7829 0.06837   0.107871
 C 0.2888 0.6812 0.05501   0.074691
 C 0.3206 0.6409 0.1416   0.113421
 C 0.2466 0.7416 0.15466   0.115008
 C 0.2224 0.7718 0.20934   0.315778
 C 0.7414 0.2352 0.20331   0.020389
 C 0.652 0.3273 0.20293   -0.162943
 C 0.5922 0.3664 0.15232   0.663354
 C 0.7834 0.2171 0.56837   0.107871
 C 0.7112 0.3188 0.55501   0.074691
 C 0.6794 0.3591 0.6416   0.113421
 C 0.7534 0.2584 0.65466   0.115008
 C 0.7776 0.2282 0.70934   0.315778
 C 0.2586 0.7648 0.70331   0.020389
 C 0.348 0.6727 0.70293   -0.162943
 C 0.4078 0.6336 0.65232   0.663354
 C 0.2171 0.7834 0.43163   0.10787
 C 0.3188 0.7112 0.44499   0.074691
 C 0.3591 0.6794 0.3584   0.11342
 C 0.2584 0.7534 0.34534   0.115009
 C 0.2282 0.7776 0.29066   0.315773
 C 0.7648 0.2586 0.29669   0.020388
 C 0.6727 0.348 0.29707   -0.162943
 C 0.6336 0.4078 0.34768   0.663354
 C 0.7829 0.2166 0.93163   0.10787
 C 0.6812 0.2888 0.94499   0.074691
 C 0.6409 0.3206 0.8584   0.11342
 C 0.7416 0.2466 0.84534   0.115009
 C 0.7718 0.2224 0.79066   0.315773
 C 0.2352 0.7414 0.79669   0.020388
 C 0.3273 0.652 0.79707   -0.162943
 C 0.3664 0.5922 0.84768   0.663354
 C 0.2834 0.2829 0.18163   0.10787
 C 0.2112 0.1812 0.19499   0.074691
 C 0.1794 0.1409 0.1084   0.11342
 C 0.2534 0.2416 0.09534   0.115009
 C 0.2776 0.2718 0.04066   0.315773
 C 0.7586 0.7352 0.04669   0.020388
 C 0.848 0.8273 0.04707   -0.162943
 C 0.9078 0.8664 0.09768   0.663354
 C 0.7166 0.7171 0.68163   0.10787
 C 0.7888 0.8188 0.69499   0.074691
 C 0.8206 0.8591 0.6084   0.11342
 C 0.7466 0.7584 0.59534   0.115009
 C 0.7224 0.7282 0.54066   0.315773
 C 0.2414 0.2648 0.54669   0.020388
 C 0.152 0.1727 0.54707   -0.162943
 C 0.0922 0.1336 0.59768   0.663354
 C 0.6038 0.6038 0.0   0.683248
 C 0.7017 0.7017 0.0   -0.186164
 C 0.8832 0.8832 0.0   0.00255
 C 0.3962 0.3962 0.5   0.683248
 C 0.2983 0.2983 0.5   -0.186164
 C 0.1168 0.1168 0.5   0.00255
 C 0.8962 0.1038 0.25   0.683248
 C 0.7983 0.2017 0.25   -0.186164
 C 0.6168 0.3832 0.25   0.00255
 C 0.1038 0.8962 0.75   0.683248
 C 0.2017 0.7983 0.75   -0.186164
 C 0.3832 0.6168 0.75   0.00255
 N 0.1114 0.1574 0.84172   -0.244803
 N 0.3119 0.3069 0.86821   -0.286152
 N 0.3573 0.3604 0.97337   -0.236675
 N 0.8886 0.8426 0.34172   -0.244803
 N 0.6881 0.6931 0.36821   -0.286152
 N 0.6427 0.6396 0.47337   -0.236675
 N 0.3426 0.6114 0.09172   -0.244803
 N 0.1931 0.8119 0.11821   -0.286152
 N 0.1396 0.8573 0.22337   -0.236675
 N 0.6574 0.3886 0.59172   -0.244803
 N 0.8069 0.1881 0.61821   -0.286152
 N 0.8604 0.1427 0.72337   -0.236675
 N 0.3886 0.6574 0.40828   -0.244803
 N 0.1881 0.8069 0.38179   -0.286152
 N 0.1427 0.8604 0.27663   -0.236642
 N 0.6114 0.3426 0.90828   -0.244803
 N 0.8119 0.1931 0.88179   -0.286152
 N 0.8573 0.1396 0.77663   -0.236642
 N 0.1574 0.1114 0.15828   -0.244803
 N 0.3069 0.3119 0.13179   -0.286152
 N 0.3604 0.3573 0.02663   -0.236642
 N 0.8426 0.8886 0.65828   -0.244803
 N 0.6931 0.6881 0.63179   -0.286152
 N 0.6396 0.6427 0.52663   -0.236642
 N 0.21961 0.21961 0.0   -0.476507
 N 0.78039 0.78039 0.5   -0.476507
 N 0.28039 0.71961 0.25   -0.476507
 N 0.71961 0.28039 0.75   -0.476507
 O 0.5372 0.59475 0.95988   -0.580167
 O 0.8007 0.9028 0.86221   -0.601976
 O 0.9664 0.967 0.90209   -0.592809
 O 0.4628 0.40525 0.45988   -0.580167
 O 0.1993 0.0972 0.36221   -0.601976
 O 0.0336 0.033 0.40209   -0.592809
 O 0.90525 0.0372 0.20988   -0.580167
 O 0.5972 0.3007 0.11221   -0.601976
 O 0.533 0.4664 0.15209   -0.592809
 O 0.09475 0.9628 0.70988   -0.580167
 O 0.4028 0.6993 0.61221   -0.601976
 O 0.467 0.5336 0.65209   -0.592809
 O 0.9628 0.09475 0.29012   -0.580167
 O 0.6993 0.4028 0.38779   -0.601976
 O 0.5336 0.467 0.34791   -0.592809
 O 0.0372 0.90525 0.79012   -0.580167
 O 0.3007 0.5972 0.88779   -0.601976
 O 0.4664 0.533 0.84791   -0.592809
 O 0.59475 0.5372 0.04012   -0.580167
 O 0.9028 0.8007 0.13779   -0.601976
 O 0.967 0.9664 0.09791   -0.592809
 O 0.40525 0.4628 0.54012   -0.580167
 O 0.0972 0.1993 0.63779   -0.601976
 O 0.033 0.0336 0.59791   -0.592809
