{'_ref': 'TBD', '_srcid': 'CAKYAQ_clean', 'submitters': [{'name': 'Dalar Nazarian Jeff Camp and David Sholl', 'email': 'dalar@gatech.edu jcamp6@gatech.edu'}], '_method': 'VASP DFT with PBE;DDEC'}
data_Zn3H32(C22O5)2
_symmetry_space_group_name_H-M   'P 1'
_cell_length_a   5.96600006
_cell_length_b   19.01320008
_cell_length_c   19.01320000
_cell_angle_alpha   78.67299970
_cell_angle_beta   82.24850408
_cell_angle_gamma   82.24850008
_symmetry_Int_Tables_number   1
_chemical_formula_structural   Zn3H32(C22O5)2
_chemical_formula_sum   'Zn3 H32 C44 O10'
_cell_volume   2082.30838829
_cell_formula_units_Z   1
loop_
 _symmetry_equiv_pos_site_id
 _symmetry_equiv_pos_as_xyz
  1  'x, y, z'
loop_
 _atom_site_label
 _atom_site_fract_x
 _atom_site_fract_y
 _atom_site_fract_z
 _atom_site_charge
 Zn 0.5 0.0 0.0   1.21407
 Zn 0.0 0.06012 0.93988   1.036946
 Zn 0.0 0.93988 0.06012   1.036946
 H 0.7523 0.2873 0.9281   0.094656
 H 0.5528 0.3969 0.9417   0.085444
 H 0.0112 0.3041 0.0291   0.098164
 H 0.1904 0.1948 0.0076   0.099975
 H 0.0488 0.561 0.088   0.109877
 H 0.3454 0.4788 0.1308   0.120918
 H 0.5022 0.4529 0.0635   0.121397
 H 0.3569 0.3972 0.1194   0.121747
 H 0.2477 0.0719 0.7127   0.094656
 H 0.4472 0.0583 0.6031   0.085444
 H 0.9888 0.9709 0.6959   0.098164
 H 0.8096 0.9924 0.8052   0.099975
 H 0.9512 0.912 0.439   0.109877
 H 0.6546 0.8692 0.5212   0.120918
 H 0.4978 0.9365 0.5471   0.121397
 H 0.6431 0.8806 0.6028   0.121747
 H 0.2477 0.7127 0.0719   0.094656
 H 0.4472 0.6031 0.0583   0.085444
 H 0.9888 0.6959 0.9709   0.098165
 H 0.8096 0.8052 0.9924   0.099976
 H 0.9512 0.439 0.912   0.109872
 H 0.6546 0.5212 0.8692   0.120918
 H 0.4978 0.5471 0.9365   0.121397
 H 0.6431 0.6028 0.8806   0.121746
 H 0.7523 0.9281 0.2873   0.094656
 H 0.5528 0.9417 0.3969   0.085444
 H 0.0112 0.0291 0.3041   0.098165
 H 0.1904 0.0076 0.1948   0.099976
 H 0.0488 0.088 0.561   0.109872
 H 0.3454 0.1308 0.4788   0.120918
 H 0.5022 0.0635 0.4529   0.121397
 H 0.3569 0.1194 0.3972   0.121746
 C 0.6262 0.157 0.9656   0.758919
 C 0.5007 0.2285 0.9707   -0.161672
 C 0.5984 0.2891 0.9491   -0.025095
 C 0.4771 0.3547 0.9571   -0.155524
 C 0.2583 0.3626 0.9856   0.092338
 C 0.1632 0.3017 0.0063   -0.150532
 C 0.2721 0.2358 0.9966   -0.015806
 C 0.1256 0.4337 0.9933   0.013587
 C 0.1549 0.4694 0.0484   0.070169
 C 0.0261 0.5359 0.0515   -0.181035
 C 0.3589 0.4476 0.0948   -0.348639
 C 0.3738 0.0344 0.843   0.758918
 C 0.4993 0.0293 0.7715   -0.161672
 C 0.4016 0.0509 0.7109   -0.025095
 C 0.5229 0.0429 0.6453   -0.155525
 C 0.7417 0.0144 0.6374   0.092338
 C 0.8368 0.9937 0.6983   -0.150532
 C 0.7279 0.0034 0.7642   -0.015806
 C 0.8744 0.0067 0.5663   0.013587
 C 0.8451 0.9516 0.5306   0.070169
 C 0.9739 0.9485 0.4641   -0.181035
 C 0.6411 0.9052 0.5524   -0.348639
 C 0.3738 0.843 0.0344   0.758919
 C 0.4993 0.7715 0.0293   -0.161672
 C 0.4016 0.7109 0.0509   -0.025095
 C 0.5229 0.6453 0.0429   -0.155523
 C 0.7417 0.6374 0.0144   0.092335
 C 0.8368 0.6983 0.9937   -0.150531
 C 0.7279 0.7642 0.0034   -0.015805
 C 0.8744 0.5663 0.0067   0.013622
 C 0.8451 0.5306 0.9516   0.070159
 C 0.9739 0.4641 0.9485   -0.180996
 C 0.6411 0.5524 0.9052   -0.348638
 C 0.6262 0.9656 0.157   0.758919
 C 0.5007 0.9707 0.2285   -0.161672
 C 0.5984 0.9491 0.2891   -0.025095
 C 0.4771 0.9571 0.3547   -0.155524
 C 0.2583 0.9856 0.3626   0.092335
 C 0.1632 0.0063 0.3017   -0.150531
 C 0.2721 0.9966 0.2358   -0.015805
 C 0.1256 0.9933 0.4337   0.013622
 C 0.1549 0.0484 0.4694   0.070159
 C 0.0261 0.0515 0.5359   -0.180996
 C 0.3589 0.0948 0.4476   -0.348638
 O 0.5403 0.1038 0.987   -0.59422
 O 0.8267 0.15352 0.9396   -0.616779
 O 0.4597 0.013 0.8962   -0.59422
 O 0.1733 0.0604 0.84648   -0.616779
 O 0.4597 0.8962 0.013   -0.59422
 O 0.1733 0.84648 0.0604   -0.616779
 O 0.5403 0.987 0.1038   -0.59422
 O 0.8267 0.9396 0.15352   -0.616779
 O 0.1627 0.02831 0.02831   -0.71982
 O 0.8373 0.97169 0.97169   -0.71982
