{'_ref': 'TBD', '_srcid': 'CAKYAQ_clean', 'submitters': [{'name': 'Dalar Nazarian Jeff Camp and David Sholl', 'email': 'dalar@gatech.edu jcamp6@gatech.edu'}], '_method': 'VASP DFT with PBE;DDEC'}
data_Zn4H12C24O13
_symmetry_space_group_name_H-M   'P 1'
_cell_length_a   18.31489987
_cell_length_b   18.31489993
_cell_length_c   18.31490000
_cell_angle_alpha   60.32949885
_cell_angle_beta   60.32949875
_cell_angle_gamma   60.32949985
_symmetry_Int_Tables_number   1
_chemical_formula_structural   Zn4H12C24O13
_chemical_formula_sum   'Zn8 H24 C48 O26'
_cell_volume   4376.47309227
_cell_formula_units_Z   2
loop_
 _symmetry_equiv_pos_site_id
 _symmetry_equiv_pos_as_xyz
  1  'x, y, z'
loop_
 _atom_site_label
 _atom_site_fract_x
 _atom_site_fract_y
 _atom_site_fract_z
 _atom_site_charge
 Zn 0.20609 0.20609 0.20609   1.082616
 Zn 0.79391 0.79391 0.79391   1.082616
 Zn 0.20677 0.37952 0.20677   1.144456
 Zn 0.20677 0.20677 0.37952   1.144455
 Zn 0.37952 0.20677 0.20677   1.144455
 Zn 0.62048 0.79323 0.79323   1.144456
 Zn 0.79323 0.79323 0.62048   1.144455
 Zn 0.79323 0.62048 0.79323   1.144455
 H 0.0426 0.3435 0.5653   0.123371
 H 0.5653 0.0426 0.3435   0.123371
 H 0.3435 0.5653 0.0426   0.123371
 H 0.6565 0.9574 0.4347   0.12337
 H 0.9574 0.4347 0.6565   0.12337
 H 0.4347 0.6565 0.9574   0.12337
 H 0.9574 0.6565 0.4347   0.12337
 H 0.4347 0.9574 0.6565   0.12337
 H 0.6565 0.4347 0.9574   0.12337
 H 0.3435 0.0426 0.5653   0.123369
 H 0.0426 0.5653 0.3435   0.123369
 H 0.5653 0.3435 0.0426   0.123369
 H 0.0488 0.5586 0.0488   0.116809
 H 0.0417 0.3445 0.0417   0.121629
 H 0.0488 0.0488 0.5586   0.116809
 H 0.0417 0.0417 0.3445   0.121628
 H 0.5586 0.0488 0.0488   0.116809
 H 0.3445 0.0417 0.0417   0.121628
 H 0.4414 0.9512 0.9512   0.116809
 H 0.6555 0.9583 0.9583   0.121628
 H 0.9512 0.9512 0.4414   0.116809
 H 0.9583 0.9583 0.6555   0.121628
 H 0.9512 0.4414 0.9512   0.116809
 H 0.9583 0.6555 0.9583   0.121628
 C 0.0277 0.4051 0.5387   -0.054674
 C 0.5387 0.0277 0.4051   -0.054674
 C 0.4051 0.5387 0.0277   -0.054674
 C 0.5949 0.9723 0.4613   -0.054684
 C 0.9723 0.4613 0.5949   -0.054684
 C 0.4613 0.5949 0.9723   -0.054684
 C 0.9723 0.5949 0.4613   -0.054674
 C 0.4613 0.9723 0.5949   -0.054674
 C 0.5949 0.4613 0.9723   -0.054674
 C 0.4051 0.0277 0.5387   -0.054684
 C 0.0277 0.5387 0.4051   -0.054684
 C 0.5387 0.4051 0.0277   -0.054684
 C 0.1113 0.3901 0.1113   0.684215
 C 0.0539 0.444 0.0539   -0.120389
 C 0.0294 0.5353 0.0294   -0.065973
 C 0.0252 0.406 0.0252   -0.05604
 C 0.1113 0.1113 0.3901   0.684215
 C 0.0539 0.0539 0.444   -0.120389
 C 0.0294 0.0294 0.5353   -0.065973
 C 0.0252 0.0252 0.406   -0.05604
 C 0.3901 0.1113 0.1113   0.684216
 C 0.444 0.0539 0.0539   -0.120389
 C 0.5353 0.0294 0.0294   -0.065973
 C 0.406 0.0252 0.0252   -0.05604
 C 0.6099 0.8887 0.8887   0.684215
 C 0.556 0.9461 0.9461   -0.120386
 C 0.4647 0.9706 0.9706   -0.065983
 C 0.594 0.9748 0.9748   -0.05605
 C 0.8887 0.8887 0.6099   0.684215
 C 0.9461 0.9461 0.556   -0.120386
 C 0.9706 0.9706 0.4647   -0.065983
 C 0.9748 0.9748 0.594   -0.05605
 C 0.8887 0.6099 0.8887   0.684215
 C 0.9461 0.556 0.9461   -0.120386
 C 0.9706 0.4647 0.9706   -0.065983
 C 0.9748 0.594 0.9748   -0.05605
 C 0.1117 0.3894 0.3894   0.69548
 C 0.0599 0.44245 0.44245   -0.124887
 C 0.3894 0.1117 0.3894   0.69548
 C 0.44245 0.0599 0.44245   -0.124887
 C 0.3894 0.3894 0.1117   0.69548
 C 0.44245 0.44245 0.0599   -0.124887
 C 0.6106 0.8883 0.6106   0.69548
 C 0.55755 0.9401 0.55755   -0.124887
 C 0.8883 0.6106 0.6106   0.69548
 C 0.9401 0.55755 0.55755   -0.124887
 C 0.6106 0.6106 0.8883   0.69548
 C 0.55755 0.55755 0.9401   -0.124887
 O 0.13529 0.42759 0.30119   -0.626016
 O 0.30119 0.13529 0.42759   -0.626016
 O 0.42759 0.30119 0.13529   -0.626016
 O 0.57241 0.86471 0.69881   -0.626016
 O 0.86471 0.69881 0.57241   -0.626016
 O 0.69881 0.57241 0.86471   -0.626016
 O 0.86471 0.57241 0.69881   -0.626016
 O 0.69881 0.86471 0.57241   -0.626016
 O 0.57241 0.69881 0.86471   -0.626016
 O 0.42759 0.13529 0.30119   -0.626016
 O 0.13529 0.30119 0.42759   -0.626016
 O 0.30119 0.42759 0.13529   -0.626016
 O 0.25153 0.25153 0.25153   -1.283013
 O 0.74847 0.74847 0.74847   -1.283013
 O 0.1341 0.3022 0.1341   -0.629758
 O 0.1338 0.4282 0.1338   -0.584084
 O 0.1341 0.1341 0.3022   -0.629758
 O 0.1338 0.1338 0.4282   -0.584084
 O 0.3022 0.1341 0.1341   -0.629758
 O 0.4282 0.1338 0.1338   -0.584084
 O 0.6978 0.8659 0.8659   -0.629758
 O 0.5718 0.8662 0.8662   -0.584084
 O 0.8659 0.8659 0.6978   -0.629758
 O 0.8662 0.8662 0.5718   -0.584084
 O 0.8659 0.6978 0.8659   -0.629758
 O 0.8662 0.5718 0.8662   -0.584084
