{'_ref': 'TBD', '_srcid': 'CAKYAQ_clean', 'submitters': [{'name': 'Dalar Nazarian Jeff Camp and David Sholl', 'email': 'dalar@gatech.edu jcamp6@gatech.edu'}], '_method': 'VASP DFT with PBE;DDEC'}
data_ZnH6(C3N2)2
_symmetry_space_group_name_H-M   'P 1'
_cell_length_a   9.60970000
_cell_length_b   24.35899999
_cell_length_c   24.80400000
_cell_angle_alpha   91.77399931
_cell_angle_beta   90.00000000
_cell_angle_gamma   90.00000000
_symmetry_Int_Tables_number   1
_chemical_formula_structural   ZnH6(C3N2)2
_chemical_formula_sum   'Zn20 H120 C120 N80'
_cell_volume   5803.40401046
_cell_formula_units_Z   20
loop_
 _symmetry_equiv_pos_site_id
 _symmetry_equiv_pos_as_xyz
  1  'x, y, z'
loop_
 _atom_site_label
 _atom_site_fract_x
 _atom_site_fract_y
 _atom_site_fract_z
 _atom_site_charge
 Zn 0.96715 0.23263 0.31794   0.741888
 Zn 0.7412 0.01286 0.27589   0.744241
 Zn 0.23636 0.03213 0.13747   0.727707
 Zn 0.328 0.34098 0.48226   0.737667
 Zn 0.4402 0.21659 0.68391   0.738632
 Zn 0.46715 0.26737 0.18206   0.741888
 Zn 0.2412 0.48714 0.22411   0.744241
 Zn 0.73636 0.46787 0.36253   0.727707
 Zn 0.828 0.15902 0.01774   0.737667
 Zn 0.9402 0.28341 0.81609   0.738632
 Zn 0.03285 0.76737 0.68206   0.741888
 Zn 0.2588 0.98714 0.72411   0.744241
 Zn 0.76364 0.96787 0.86253   0.727707
 Zn 0.672 0.65902 0.51774   0.737667
 Zn 0.5598 0.78341 0.31609   0.738632
 Zn 0.53285 0.73263 0.81794   0.741888
 Zn 0.7588 0.51286 0.77589   0.744241
 Zn 0.26364 0.53213 0.63747   0.727707
 Zn 0.172 0.84098 0.98226   0.737667
 Zn 0.0598 0.71659 0.18391   0.738632
 H 0.1781 0.2803 0.2355   0.050095
 H 0.2204 0.1452 0.3101   0.095606
 H 0.4282 0.1582 0.2581   0.092622
 H 0.9277 0.114 0.2777   0.023115
 H 0.7426 0.1799 0.3972   0.084327
 H 0.6568 0.0868 0.3844   0.087035
 H 0.4359 0.9941 0.2278   0.049147
 H 0.7104 0.099 0.1803   0.090146
 H 0.504 0.1074 0.1252   0.078171
 H 0.9545 0.0514 0.1892   0.048887
 H 0.1902 0.9255 0.2145   0.079344
 H 0.9861 0.919 0.2713   0.090475
 H 0.5365 0.4285 0.4482   0.056309
 H 0.4933 0.2884 0.3717   0.086133
 H 0.6674 0.3392 0.3254   0.078895
 H 0.3543 0.4179 0.5876   0.054664
 H 0.1336 0.528 0.5167   0.084404
 H 0.1576 0.4502 0.4546   0.087109
 H 0.2189 0.2803 0.3773   0.04997
 H 0.993 0.3336 0.4981   0.101662
 H 0.839 0.2907 0.4307   0.08797
 H 0.3021 0.3029 0.6049   0.06259
 H 0.5751 0.2583 0.4969   0.090029
 H 0.6248 0.2087 0.5782   0.101626
 H 0.143 0.212 0.7381   0.048924
 H 0.2057 0.3578 0.7994   0.093752
 H 0.4083 0.3318 0.7439   0.090715
 H 0.6145 0.895 0.2581   0.051293
 H 0.6684 0.8677 0.4058   0.078369
 H 0.7298 0.9626 0.3944   0.110566
 H 0.6781 0.2197 0.2645   0.050095
 H 0.7204 0.3548 0.1899   0.095606
 H 0.9282 0.3418 0.2419   0.092622
 H 0.4277 0.386 0.2223   0.023115
 H 0.2426 0.3201 0.1028   0.084327
 H 0.1568 0.4132 0.1156   0.087035
 H 0.9359 0.5059 0.2722   0.049147
 H 0.2104 0.401 0.3197   0.090145
 H 0.004 0.3926 0.3748   0.078171
 H 0.4545 0.4486 0.3108   0.048887
 H 0.6902 0.5745 0.2855   0.079344
 H 0.4861 0.581 0.2287   0.090475
 H 0.0365 0.0715 0.0518   0.056309
 H 0.9933 0.2116 0.1283   0.086133
 H 0.1674 0.1608 0.1746   0.078895
 H 0.8543 0.0821 0.9124   0.054664
 H 0.6336 0.972 0.9833   0.084404
 H 0.6576 0.0498 0.0454   0.087109
 H 0.7189 0.2197 0.1227   0.04997
 H 0.493 0.1664 0.0019   0.101662
 H 0.339 0.2093 0.0693   0.08797
 H 0.8021 0.1971 0.8951   0.06259
 H 0.0751 0.2417 0.0031   0.090029
 H 0.1248 0.2913 0.9218   0.101626
 H 0.643 0.288 0.7619   0.048924
 H 0.7057 0.1422 0.7006   0.093752
 H 0.9083 0.1682 0.7561   0.090715
 H 0.1145 0.605 0.2419   0.051293
 H 0.1684 0.6323 0.0942   0.078369
 H 0.2298 0.5374 0.1056   0.110566
 H 0.8219 0.7197 0.7645   0.050095
 H 0.7796 0.8548 0.6899   0.095606
 H 0.5718 0.8418 0.7419   0.092622
 H 0.0723 0.886 0.7223   0.023115
 H 0.2574 0.8201 0.6028   0.084327
 H 0.3432 0.9132 0.6156   0.087035
 H 0.5641 0.0059 0.7722   0.049147
 H 0.2896 0.901 0.8197   0.090146
 H 0.496 0.8926 0.8748   0.078171
 H 0.0455 0.9486 0.8108   0.048887
 H 0.8098 0.0745 0.7855   0.079344
 H 0.0139 0.081 0.7287   0.090474
 H 0.4635 0.5715 0.5518   0.056309
 H 0.5067 0.7116 0.6283   0.086133
 H 0.3326 0.6608 0.6746   0.078895
 H 0.6457 0.5821 0.4124   0.054664
 H 0.8664 0.472 0.4833   0.084405
 H 0.8424 0.5498 0.5454   0.087109
 H 0.7811 0.7197 0.6227   0.04997
 H 0.007 0.6664 0.5019   0.101663
 H 0.161 0.7093 0.5693   0.08797
 H 0.6979 0.6971 0.3951   0.06259
 H 0.4249 0.7417 0.5031   0.090029
 H 0.3752 0.7913 0.4218   0.101626
 H 0.857 0.788 0.2619   0.048924
 H 0.7943 0.6422 0.2006   0.093752
 H 0.5917 0.6682 0.2561   0.090715
 H 0.3855 0.105 0.7419   0.051293
 H 0.3316 0.1323 0.5942   0.07837
 H 0.2702 0.0374 0.6056   0.110566
 H 0.3219 0.7803 0.7355   0.050095
 H 0.2796 0.6452 0.8101   0.095606
 H 0.0718 0.6582 0.7581   0.092622
 H 0.5723 0.614 0.7777   0.023115
 H 0.7574 0.6799 0.8972   0.084327
 H 0.8432 0.5868 0.8844   0.087035
 H 0.0641 0.4941 0.7278   0.049147
 H 0.7896 0.599 0.6803   0.090145
 H 0.996 0.6074 0.6252   0.078171
 H 0.5455 0.5514 0.6892   0.048887
 H 0.3098 0.4255 0.7145   0.079344
 H 0.5139 0.419 0.7713   0.090474
 H 0.9635 0.9285 0.9482   0.056309
 H 0.0067 0.7884 0.8717   0.086133
 H 0.8326 0.8392 0.8254   0.078895
 H 0.1457 0.9179 0.0876   0.054664
 H 0.3664 0.028 0.0167   0.084405
 H 0.3424 0.9502 0.9546   0.087109
 H 0.2811 0.7803 0.8773   0.04997
 H 0.507 0.8336 0.9981   0.101663
 H 0.661 0.7907 0.9307   0.08797
 H 0.1979 0.8029 0.1049   0.06259
 H 0.9249 0.7583 0.9969   0.090029
 H 0.8752 0.7087 0.0782   0.101626
 H 0.357 0.712 0.2381   0.048923
 H 0.2943 0.8578 0.2994   0.093752
 H 0.0917 0.8318 0.2439   0.090715
 H 0.8855 0.395 0.7581   0.051293
 H 0.8316 0.3677 0.9058   0.07837
 H 0.7702 0.4626 0.8944   0.110566
 C 0.2155 0.2478 0.2478   0.234369
 C 0.2374 0.1749 0.2884   -0.023897
 C 0.3521 0.1818 0.2596   -0.012216
 C 0.8697 0.1187 0.3075   0.231722
 C 0.7735 0.1547 0.3709   -0.045077
 C 0.724 0.1032 0.3632   -0.027642
 C 0.4805 0.0216 0.209   0.248048
 C 0.6296 0.0784 0.1834   -0.041442
 C 0.5156 0.0831 0.153   0.015196
 C 0.9883 0.0191 0.2033   0.244444
 C 0.1176 0.9508 0.2166   -0.021732
 C 0.0044 0.9471 0.2478   -0.035242
 C 0.5472 0.3993 0.4236   0.229337
 C 0.5234 0.3235 0.382   -0.0259
 C 0.6199 0.3511 0.3563   -0.005572
 C 0.3021 0.4359 0.5619   0.232053
 C 0.1818 0.4959 0.5237   0.001985
 C 0.1951 0.4532 0.4892   -0.031528
 C 0.1428 0.2875 0.3996   0.22484
 C 0.0211 0.317 0.4656   -0.034074
 C 0.9353 0.2933 0.4279   -0.010266
 C 0.3762 0.2851 0.5877   0.22393
 C 0.5246 0.2612 0.5289   -0.027551
 C 0.5525 0.2335 0.5739   -0.02719
 C 0.1842 0.2457 0.7467   0.239192
 C 0.2167 0.3247 0.7802   -0.03145
 C 0.3298 0.3104 0.7494   -0.034598
 C 0.6339 0.9003 0.2947   0.229519
 C 0.663 0.8854 0.3732   -0.009937
 C 0.6978 0.938 0.3678   -0.056155
 C 0.7155 0.2522 0.2522   0.234369
 C 0.7374 0.3251 0.2116   -0.023897
 C 0.8521 0.3182 0.2404   -0.012216
 C 0.3697 0.3813 0.1925   0.231722
 C 0.2735 0.3453 0.1291   -0.045077
 C 0.224 0.3968 0.1368   -0.027642
 C 0.9805 0.4784 0.291   0.248048
 C 0.1296 0.4216 0.3166   -0.041442
 C 0.0156 0.4169 0.347   0.015196
 C 0.4883 0.4809 0.2967   0.244444
 C 0.6176 0.5492 0.2834   -0.021732
 C 0.5044 0.5529 0.2522   -0.035242
 C 0.0472 0.1007 0.0764   0.229337
 C 0.0234 0.1765 0.118   -0.0259
 C 0.1199 0.1489 0.1437   -0.005572
 C 0.8021 0.0641 0.9381   0.232053
 C 0.6818 0.0041 0.9763   0.001985
 C 0.6951 0.0468 0.0108   -0.031528
 C 0.6428 0.2125 0.1004   0.22484
 C 0.5211 0.183 0.0344   -0.034074
 C 0.4353 0.2067 0.0721   -0.010266
 C 0.8762 0.2149 0.9123   0.22393
 C 0.0246 0.2388 0.9711   -0.027551
 C 0.0525 0.2665 0.9261   -0.027189
 C 0.6842 0.2543 0.7533   0.239193
 C 0.7167 0.1753 0.7198   -0.03145
 C 0.8298 0.1896 0.7506   -0.034598
 C 0.1339 0.5997 0.2053   0.229519
 C 0.163 0.6146 0.1268   -0.009937
 C 0.1978 0.562 0.1322   -0.056155
 C 0.7845 0.7522 0.7522   0.234369
 C 0.7626 0.8251 0.7116   -0.023897
 C 0.6479 0.8182 0.7404   -0.012216
 C 0.1303 0.8813 0.6925   0.231722
 C 0.2265 0.8453 0.6291   -0.045077
 C 0.276 0.8968 0.6368   -0.027642
 C 0.5195 0.9784 0.791   0.248048
 C 0.3704 0.9216 0.8166   -0.041442
 C 0.4844 0.9169 0.847   0.015196
 C 0.0117 0.9809 0.7967   0.244444
 C 0.8824 0.0492 0.7834   -0.021732
 C 0.9956 0.0529 0.7522   -0.035241
 C 0.4528 0.6007 0.5764   0.229337
 C 0.4766 0.6765 0.618   -0.0259
 C 0.3801 0.6489 0.6437   -0.005572
 C 0.6979 0.5641 0.4381   0.232053
 C 0.8182 0.5041 0.4763   0.001984
 C 0.8049 0.5468 0.5108   -0.031528
 C 0.8572 0.7125 0.6004   0.22484
 C 0.9789 0.683 0.5344   -0.034074
 C 0.0647 0.7067 0.5721   -0.010266
 C 0.6238 0.7149 0.4123   0.22393
 C 0.4754 0.7388 0.4711   -0.027551
 C 0.4475 0.7665 0.4261   -0.02719
 C 0.8158 0.7543 0.2533   0.239192
 C 0.7833 0.6753 0.2198   -0.03145
 C 0.6702 0.6896 0.2506   -0.034598
 C 0.3661 0.0997 0.7053   0.229519
 C 0.337 0.1146 0.6268   -0.009937
 C 0.3022 0.062 0.6322   -0.056155
 C 0.2845 0.7478 0.7478   0.234369
 C 0.2626 0.6749 0.7884   -0.023897
 C 0.1479 0.6818 0.7596   -0.012216
 C 0.6303 0.6187 0.8075   0.231722
 C 0.7265 0.6547 0.8709   -0.045077
 C 0.776 0.6032 0.8632   -0.027642
 C 0.0195 0.5216 0.709   0.248048
 C 0.8704 0.5784 0.6834   -0.041442
 C 0.9844 0.5831 0.653   0.015196
 C 0.5117 0.5191 0.7033   0.244444
 C 0.3824 0.4508 0.7166   -0.021732
 C 0.4956 0.4471 0.7478   -0.035241
 C 0.9528 0.8993 0.9236   0.229337
 C 0.9766 0.8235 0.882   -0.0259
 C 0.8801 0.8511 0.8563   -0.005572
 C 0.1979 0.9359 0.0619   0.232053
 C 0.3182 0.9959 0.0237   0.001984
 C 0.3049 0.9532 0.9892   -0.031528
 C 0.3572 0.7875 0.8996   0.22484
 C 0.4789 0.817 0.9656   -0.034074
 C 0.5647 0.7933 0.9279   -0.010266
 C 0.1238 0.7851 0.0877   0.22393
 C 0.9754 0.7612 0.0289   -0.027551
 C 0.9475 0.7335 0.0739   -0.027189
 C 0.3158 0.7457 0.2467   0.239193
 C 0.2833 0.8247 0.2802   -0.03145
 C 0.1702 0.8104 0.2494   -0.034598
 C 0.8661 0.4003 0.7947   0.229519
 C 0.837 0.3854 0.8732   -0.009937
 C 0.8022 0.438 0.8678   -0.056155
 N 0.1497 0.2168 0.2817   -0.385197
 N 0.3396 0.2293 0.2325   -0.411809
 N 0.8713 0.1636 0.336   -0.354
 N 0.7845 0.0798 0.3215   -0.3771
 N 0.6075 0.0376 0.2202   -0.409787
 N 0.4209 0.047 0.1695   -0.400002
 N 0.92 0.9912 0.2395   -0.398727
 N 0.1083 0.9974 0.1889   -0.38945
 N 0.6366 0.3998 0.3834   -0.396352
 N 0.4732 0.3529 0.4258   -0.400837
 N 0.2486 0.4856 0.5704   -0.402617
 N 0.2746 0.4143 0.5139   -0.396934
 N 0.1543 0.3123 0.4479   -0.387231
 N 0.013 0.274 0.3857   -0.398209
 N 0.4125 0.2939 0.5372   -0.386719
 N 0.4566 0.2481 0.6116   -0.398952
 N 0.3067 0.2595 0.7283   -0.387366
 N 0.1236 0.2833 0.7785   -0.387588
 N 0.6208 0.8614 0.3285   -0.368731
 N 0.6763 0.9477 0.3151   -0.389638
 N 0.6497 0.2832 0.2183   -0.385197
 N 0.8396 0.2707 0.2675   -0.411809
 N 0.3713 0.3364 0.164   -0.354
 N 0.2845 0.4202 0.1785   -0.3771
 N 0.1075 0.4624 0.2798   -0.409787
 N 0.9209 0.453 0.3305   -0.400002
 N 0.42 0.5088 0.2605   -0.398727
 N 0.6083 0.5026 0.3111   -0.38945
 N 0.1366 0.1002 0.1166   -0.396352
 N 0.9732 0.1471 0.0742   -0.400837
 N 0.7486 0.0144 0.9296   -0.402617
 N 0.7746 0.0857 0.9861   -0.396934
 N 0.6543 0.1877 0.0521   -0.387231
 N 0.513 0.226 0.1143   -0.398209
 N 0.9125 0.2061 0.9628   -0.386719
 N 0.9566 0.2519 0.8884   -0.398952
 N 0.8067 0.2405 0.7717   -0.387366
 N 0.6236 0.2167 0.7215   -0.387588
 N 0.1208 0.6386 0.1715   -0.368731
 N 0.1763 0.5523 0.1849   -0.389638
 N 0.8503 0.7832 0.7183   -0.385197
 N 0.6604 0.7707 0.7675   -0.411809
 N 0.1287 0.8364 0.664   -0.354
 N 0.2155 0.9202 0.6785   -0.3771
 N 0.3925 0.9624 0.7798   -0.409787
 N 0.5791 0.953 0.8305   -0.400002
 N 0.08 0.0088 0.7605   -0.398727
 N 0.8917 0.0026 0.8111   -0.38945
 N 0.3634 0.6002 0.6166   -0.396352
 N 0.5268 0.6471 0.5742   -0.400837
 N 0.7514 0.5144 0.4296   -0.402617
 N 0.7254 0.5857 0.4861   -0.396934
 N 0.8457 0.6877 0.5521   -0.387231
 N 0.987 0.726 0.6143   -0.398209
 N 0.5875 0.7061 0.4628   -0.386719
 N 0.5434 0.7519 0.3884   -0.398952
 N 0.6933 0.7405 0.2717   -0.387366
 N 0.8764 0.7167 0.2215   -0.387588
 N 0.3792 0.1386 0.6715   -0.368731
 N 0.3237 0.0523 0.6849   -0.389638
 N 0.3503 0.7168 0.7817   -0.385197
 N 0.1604 0.7293 0.7325   -0.411809
 N 0.6287 0.6636 0.836   -0.354
 N 0.7155 0.5798 0.8215   -0.3771
 N 0.8925 0.5376 0.7202   -0.409787
 N 0.0791 0.547 0.6695   -0.400002
 N 0.58 0.4912 0.7395   -0.398727
 N 0.3917 0.4974 0.6889   -0.38945
 N 0.8634 0.8998 0.8834   -0.396352
 N 0.0268 0.8529 0.9258   -0.400837
 N 0.2514 0.9856 0.0704   -0.402617
 N 0.2254 0.9143 0.0139   -0.396934
 N 0.3457 0.8123 0.9479   -0.387231
 N 0.487 0.774 0.8857   -0.398209
 N 0.0875 0.7939 0.0372   -0.386719
 N 0.0434 0.7481 0.1116   -0.398952
 N 0.1933 0.7595 0.2283   -0.387366
 N 0.3764 0.7833 0.2785   -0.387588
 N 0.8792 0.3614 0.8285   -0.368731
 N 0.8237 0.4477 0.8151   -0.389638
