{'_ref': 'TBD', '_srcid': 'CAKYAQ_clean', 'submitters': [{'name': 'Dalar Nazarian Jeff Camp and David Sholl', 'email': 'dalar@gatech.edu jcamp6@gatech.edu'}], '_method': 'VASP DFT with PBE;DDEC'}
data_ZnH16(C17N5)2
_symmetry_space_group_name_H-M   'P 1'
_cell_length_a   11.36100000
_cell_length_b   12.64500000
_cell_length_c   14.77500000
_cell_angle_alpha   90.00000000
_cell_angle_beta   90.00000000
_cell_angle_gamma   90.00000000
_symmetry_Int_Tables_number   1
_chemical_formula_structural   ZnH16(C17N5)2
_chemical_formula_sum   'Zn2 H32 C68 N20'
_cell_volume   2122.57420987
_cell_formula_units_Z   2
loop_
 _symmetry_equiv_pos_site_id
 _symmetry_equiv_pos_as_xyz
  1  'x, y, z'
loop_
 _atom_site_label
 _atom_site_fract_x
 _atom_site_fract_y
 _atom_site_fract_z
 _atom_site_charge
 Zn 0.5 0.0 0.75   0.853116
 Zn 0.5 0.0 0.25   0.853116
 H 0.6938 0.7167 0.863   0.111958
 H 0.8296 0.5799 0.8633   0.102751
 H 0.7078 0.8488 0.7208   0.083906
 H 0.9117 0.8435 0.722   0.12906
 H 0.3062 0.2833 0.863   0.111958
 H 0.1704 0.4201 0.8633   0.102751
 H 0.2922 0.1512 0.7208   0.083906
 H 0.0883 0.1565 0.722   0.129059
 H 0.3062 0.7167 0.637   0.111958
 H 0.1704 0.5799 0.6367   0.102751
 H 0.2922 0.8488 0.7792   0.083906
 H 0.0883 0.8435 0.778   0.12906
 H 0.6938 0.2833 0.637   0.111958
 H 0.8296 0.4201 0.6367   0.102751
 H 0.7078 0.1512 0.7792   0.083906
 H 0.9117 0.1565 0.778   0.12906
 H 0.3062 0.2833 0.137   0.111958
 H 0.1704 0.4201 0.1367   0.102751
 H 0.2922 0.1512 0.2792   0.083906
 H 0.0883 0.1565 0.278   0.12906
 H 0.6938 0.7167 0.137   0.111958
 H 0.8296 0.5799 0.1367   0.102751
 H 0.7078 0.8488 0.2792   0.083906
 H 0.9117 0.8435 0.278   0.12906
 H 0.6938 0.2833 0.363   0.111958
 H 0.8296 0.4201 0.3633   0.102751
 H 0.7078 0.1512 0.2208   0.083906
 H 0.9117 0.1565 0.222   0.12906
 H 0.3062 0.7167 0.363   0.111958
 H 0.1704 0.5799 0.3633   0.102751
 H 0.2922 0.8488 0.2208   0.083905
 H 0.0883 0.8435 0.222   0.12906
 C 0.5369 0.848 0.91987   0.432096
 C 0.71975 0.68789 0.91896   -0.154239
 C 0.80113 0.60746 0.91897   -0.080949
 C 0.91913 0.40893 0.91916   0.293929
 C 0.7501 0.91192 0.73337   0.160471
 C 0.8718 0.90817 0.73331   -0.187235
 C 0.4631 0.152 0.91987   0.432096
 C 0.28025 0.31211 0.91896   -0.154239
 C 0.19887 0.39254 0.91897   -0.080949
 C 0.08087 0.59107 0.91916   0.293929
 C 0.2499 0.08808 0.73337   0.160471
 C 0.1282 0.09183 0.73331   -0.187234
 C 0.4631 0.848 0.58013   0.432096
 C 0.28025 0.68789 0.58104   -0.154239
 C 0.19887 0.60746 0.58103   -0.080949
 C 0.08087 0.40893 0.58084   0.293929
 C 0.2499 0.91192 0.76663   0.160472
 C 0.1282 0.90817 0.76669   -0.187234
 C 0.5369 0.152 0.58013   0.432096
 C 0.71975 0.31211 0.58104   -0.15424
 C 0.80113 0.39254 0.58103   -0.080949
 C 0.91913 0.59107 0.58084   0.293929
 C 0.7501 0.08808 0.76663   0.160472
 C 0.8718 0.09183 0.76669   -0.187235
 C 0.4631 0.152 0.08013   0.432096
 C 0.28025 0.31211 0.08104   -0.154239
 C 0.19887 0.39254 0.08103   -0.080949
 C 0.08087 0.59107 0.08084   0.293929
 C 0.2499 0.08808 0.26663   0.160472
 C 0.1282 0.09183 0.26669   -0.187236
 C 0.5369 0.848 0.08013   0.432097
 C 0.71975 0.68789 0.08104   -0.15424
 C 0.80113 0.60746 0.08103   -0.080949
 C 0.91913 0.40893 0.08084   0.293929
 C 0.7501 0.91192 0.26663   0.160472
 C 0.8718 0.90817 0.26669   -0.187235
 C 0.5369 0.152 0.41987   0.432097
 C 0.71975 0.31211 0.41896   -0.154239
 C 0.80113 0.39254 0.41897   -0.080949
 C 0.91913 0.59107 0.41916   0.293928
 C 0.7501 0.08808 0.23337   0.160472
 C 0.8718 0.09183 0.23331   -0.187236
 C 0.4631 0.848 0.41987   0.432097
 C 0.28025 0.68789 0.41896   -0.15424
 C 0.19887 0.60746 0.41897   -0.080949
 C 0.08087 0.40893 0.41916   0.293929
 C 0.2499 0.91192 0.23337   0.160472
 C 0.1282 0.90817 0.23331   -0.187236
 C 0.93465 0.0 0.75   0.099152
 C 0.06535 0.0 0.75   0.099147
 C 0.06535 0.0 0.25   0.099151
 C 0.93465 0.0 0.25   0.099146
 C 0.58293 0.80764 0.0   -0.426241
 C 0.67443 0.72807 0.0   0.175712
 C 0.8417 0.5658 0.0   -0.074498
 C 0.9333 0.47806 0.0   0.014018
 C 0.41707 0.19236 0.0   -0.426241
 C 0.32557 0.27193 0.0   0.175712
 C 0.1583 0.4342 0.0   -0.074498
 C 0.0667 0.52194 0.0   0.014018
 C 0.41707 0.80764 0.5   -0.426241
 C 0.32557 0.72807 0.5   0.175712
 C 0.1583 0.5658 0.5   -0.074498
 C 0.0667 0.47806 0.5   0.014018
 C 0.58293 0.19236 0.5   -0.426241
 C 0.67443 0.27193 0.5   0.175712
 C 0.8417 0.4342 0.5   -0.074498
 C 0.9333 0.52194 0.5   0.014018
 N 0.50048 0.88025 0.85257   -0.498271
 N 0.9063 0.35832 0.85731   -0.347444
 N 0.49952 0.11975 0.85257   -0.498271
 N 0.0937 0.64168 0.85731   -0.347444
 N 0.49952 0.88025 0.64743   -0.498271
 N 0.0937 0.35832 0.64269   -0.347443
 N 0.50048 0.11975 0.64743   -0.498271
 N 0.9063 0.64168 0.64269   -0.347443
 N 0.49952 0.11975 0.14743   -0.498271
 N 0.0937 0.64168 0.14269   -0.347444
 N 0.50048 0.88025 0.14743   -0.498271
 N 0.9063 0.35832 0.14269   -0.347444
 N 0.50048 0.11975 0.35257   -0.498271
 N 0.9063 0.64168 0.35731   -0.347443
 N 0.49952 0.88025 0.35257   -0.498272
 N 0.0937 0.35832 0.35731   -0.347443
 N 0.68946 0.0 0.75   -0.306764
 N 0.31054 0.0 0.75   -0.306764
 N 0.31054 0.0 0.25   -0.306765
 N 0.68946 0.0 0.25   -0.306764
