{'_ref': 'TBD', '_srcid': 'CAKYAQ_clean', 'submitters': [{'name': 'Dalar Nazarian Jeff Camp and David Sholl', 'email': 'dalar@gatech.edu jcamp6@gatech.edu'}], '_method': 'VASP DFT with PBE;DDEC'}
data_In2P3H12C15(NO4)3
_symmetry_space_group_name_H-M   'P 1'
_cell_length_a   10.54290029
_cell_length_b   11.63449999
_cell_length_c   11.73030000
_cell_angle_alpha   110.11600188
_cell_angle_beta   100.44499944
_cell_angle_gamma   104.33899974
_symmetry_Int_Tables_number   1
_chemical_formula_structural   In2P3H12C15(NO4)3
_chemical_formula_sum   'In4 P6 H24 C30 N6 O24'
_cell_volume   1251.58295583
_cell_formula_units_Z   2
loop_
 _symmetry_equiv_pos_site_id
 _symmetry_equiv_pos_as_xyz
  1  'x, y, z'
loop_
 _atom_site_label
 _atom_site_fract_x
 _atom_site_fract_y
 _atom_site_fract_z
 _atom_site_charge
 In 0.04631 0.04462 0.79474   1.740637
 In 0.95369 0.95538 0.20526   1.740637
 In 0.5 0.0 0.0   1.708422
 In 0.5 0.0 0.5   1.714694
 P 0.1936 0.9974 0.0498   1.73373
 P 0.3676 0.0977 0.7635   1.696717
 P 0.8454 0.1621 0.6333   1.576263
 P 0.8064 0.0026 0.9502   1.73373
 P 0.6324 0.9023 0.2365   1.696717
 P 0.1546 0.8379 0.3667   1.576262
 H 0.87509 0.91282 0.5015   0.121685
 H 0.97727 0.75325 0.76733   0.121062
 H 0.76125 0.68797 0.32342   0.133652
 H 0.87053 0.52316 0.59778   0.145683
 H 0.60522 0.51632 0.22226   0.142758
 H 0.85534 0.36709 0.43932   0.124482
 H 0.48567 0.28702 0.05718   0.113447
 H 0.73956 0.14361 0.26129   0.102295
 H 0.6287 0.8929 0.69181   0.119925
 H 0.36549 0.69743 0.30631   0.124525
 H 0.62938 0.67807 0.69739   0.130841
 H 0.36579 0.48015 0.30366   0.140591
 H 0.12491 0.08718 0.4985   0.121684
 H 0.23875 0.31203 0.67658   0.133652
 H 0.39478 0.48368 0.77774   0.142763
 H 0.14466 0.63291 0.56068   0.124486
 H 0.51433 0.71298 0.94282   0.113449
 H 0.26044 0.85639 0.73871   0.102295
 H 0.3713 0.1071 0.30819   0.119925
 H 0.63451 0.30257 0.69369   0.124525
 H 0.37062 0.32193 0.30261   0.130837
 H 0.63421 0.51985 0.69634   0.140594
 H 0.02273 0.24675 0.23267   0.121065
 H 0.12947 0.47684 0.40222   0.145681
 C 0.8722 0.8232 0.5216   0.174584
 C 0.9277 0.7354 0.6652   0.160319
 C 0.8101 0.6995 0.4235   -0.174178
 C 0.8686 0.6088 0.572   -0.224596
 C 0.8067 0.5903 0.4455   0.121031
 C 0.7392 0.458 0.3454   0.121963
 C 0.6351 0.4329 0.2352   -0.201103
 C 0.773 0.3529 0.3531   -0.190638
 C 0.5707 0.3077 0.1444   0.161698
 C 0.7072 0.2286 0.256   0.166784
 C 0.5685 0.7985 0.6048   0.155759
 C 0.4254 0.6916 0.3942   0.155699
 C 0.5701 0.6808 0.6074   -0.196207
 C 0.4257 0.5727 0.3927   -0.196324
 C 0.4993 0.5645 0.5001   0.104558
 C 0.1278 0.1768 0.4784   0.174585
 C 0.0723 0.2646 0.3348   0.160317
 C 0.1899 0.3005 0.5765   -0.174178
 C 0.1314 0.3912 0.428   -0.224597
 C 0.1933 0.4097 0.5545   0.12103
 C 0.2608 0.542 0.6546   0.121962
 C 0.3649 0.5671 0.7648   -0.201106
 C 0.227 0.6471 0.6469   -0.190644
 C 0.4293 0.6923 0.8556   0.161697
 C 0.2928 0.7714 0.744   0.166782
 C 0.4315 0.2015 0.3952   0.155755
 C 0.5746 0.3084 0.6058   0.155698
 C 0.4299 0.3192 0.3926   -0.196208
 C 0.5743 0.4273 0.6073   -0.196326
 C 0.5007 0.4355 0.4999   0.104542
 N 0.9301 0.8408 0.6418   -0.374599
 N 0.6044 0.2058 0.1541   -0.3699
 N 0.4955 0.8045 0.499   -0.381031
 N 0.0699 0.1592 0.3582   -0.374599
 N 0.3956 0.7942 0.8459   -0.369899
 N 0.5045 0.1955 0.501   -0.38103
 O 0.1213 0.9577 0.911   -0.90346
 O 0.1076 0.9321 0.1153   -0.847675
 O 0.3278 0.9685 0.0679   -0.794766
 O 0.2273 0.1502 0.1203   -0.648248
 O 0.2111 0.041 0.7061   -0.80669
 O 0.4107 0.0812 0.8848   -0.876766
 O 0.4354 0.0399 0.6665   -0.825011
 O 0.4141 0.2503 0.8006   -0.588838
 O 0.9593 0.1107 0.6643   -0.847028
 O 0.7053 0.0785 0.6199   -0.813787
 O 0.8451 0.1812 0.5061   -0.508011
 O 0.877 0.3012 0.7368   -0.533381
 O 0.8787 0.0423 0.089   -0.90346
 O 0.8924 0.0679 0.8847   -0.847674
 O 0.6722 0.0315 0.9321   -0.794766
 O 0.7727 0.8498 0.8797   -0.648248
 O 0.7889 0.959 0.2939   -0.806691
 O 0.5893 0.9188 0.1152   -0.876766
 O 0.5646 0.9601 0.3335   -0.825012
 O 0.5859 0.7497 0.1994   -0.588837
 O 0.0407 0.8893 0.3357   -0.847028
 O 0.2947 0.9215 0.3801   -0.813787
 O 0.1549 0.8188 0.4939   -0.508013
 O 0.123 0.6988 0.2632   -0.533368
