{'_ref': 'TBD', '_srcid': 'CAKYAQ_clean', 'submitters': [{'name': 'Dalar Nazarian Jeff Camp and David Sholl', 'email': 'dalar@gatech.edu jcamp6@gatech.edu'}], '_method': 'VASP DFT with PBE;DDEC'}
data_CuH7WC8(N2O)2
_symmetry_space_group_name_H-M   'P 1'
_cell_length_a   9.74500028
_cell_length_b   9.74499983
_cell_length_c   10.77416888
_cell_angle_alpha   63.11261907
_cell_angle_beta   63.11262171
_cell_angle_gamma   89.99989875
_symmetry_Int_Tables_number   1
_chemical_formula_structural   CuH7WC8(N2O)2
_chemical_formula_sum   'Cu2 H14 W2 C16 N8 O4'
_cell_volume   786.551538787
_cell_formula_units_Z   2
loop_
 _symmetry_equiv_pos_site_id
 _symmetry_equiv_pos_as_xyz
  1  'x, y, z'
loop_
 _atom_site_label
 _atom_site_fract_x
 _atom_site_fract_y
 _atom_site_fract_z
 _atom_site_charge
 Cu 0.25 0.25 0.5   0.635416
 Cu 0.75 0.75 0.5   0.641739
 H 0.26811 0.15535 0.26105   0.088619
 H 0.58359 0.26811 0.26105   0.092816
 H 0.15535 0.47083 0.26105   0.087257
 H 0.23189 0.91641 0.73895   0.085619
 H 0.02917 0.34465 0.73895   0.086396
 H 0.34465 0.23189 0.73895   0.079429
 H 0.91641 0.02917 0.73895   0.0937
 H 0.52917 0.41641 0.73895   0.078775
 H 0.73189 0.84465 0.73895   0.094327
 H 0.41641 0.73189 0.73895   0.086916
 H 0.84465 0.52917 0.73895   0.085919
 H 0.76811 0.08359 0.26105   0.088408
 H 0.97083 0.65535 0.26105   0.093915
 H 0.08359 0.97083 0.26105   0.08836
 W 0.0 0.0 0.0   0.509056
 W 0.5 0.5 0.0   0.522025
 C 0.4829 0.5433 0.372   -0.105007
 C 0.1451 0.0847 0.372   0.054837
 C 0.5433 0.1451 0.372   0.05491
 C 0.0847 0.4829 0.372   0.057147
 C 0.3549 0.9567 0.628   0.050835
 C 0.0171 0.4153 0.628   0.054668
 C 0.4153 0.3549 0.628   0.02831
 C 0.9567 0.0171 0.628   0.05145
 C 0.5171 0.4567 0.628   0.030832
 C 0.8549 0.9153 0.628   0.050688
 C 0.4567 0.8549 0.628   0.054298
 C 0.9153 0.5171 0.628   0.050382
 C 0.6451 0.0433 0.372   0.05585
 C 0.9829 0.5847 0.372   0.05416
 C 0.5847 0.6451 0.372   -0.057682
 C 0.0433 0.9829 0.372   0.054932
 N 0.3996 0.3996 0.5   -0.104498
 N 0.1004 0.1004 0.5   -0.189631
 N 0.3996 0.1004 0.5   -0.183893
 N 0.1004 0.3996 0.5   -0.179381
 N 0.6004 0.6004 0.5   -0.122336
 N 0.8996 0.8996 0.5   -0.18704
 N 0.6004 0.8996 0.5   -0.178905
 N 0.8996 0.6004 0.5   -0.182437
 O 0.1143 0.1143 0.7714   -0.690009
 O 0.3857 0.3857 0.2286   -0.680984
 O 0.8857 0.8857 0.2286   -0.685234
 O 0.6143 0.6143 0.7714   -0.69495
