{'_ref': 'TBD', '_srcid': 'CAKYAQ_clean', 'submitters': [{'name': 'Dalar Nazarian Jeff Camp and David Sholl', 'email': 'dalar@gatech.edu jcamp6@gatech.edu'}], '_method': 'VASP DFT with PBE;DDEC'}
data_CdH4(C2O)4
_symmetry_space_group_name_H-M   'P 1'
_cell_length_a   7.45230020
_cell_length_b   9.77639958
_cell_length_c   9.84690000
_cell_angle_alpha   118.25500192
_cell_angle_beta   102.11800333
_cell_angle_gamma   91.35799649
_symmetry_Int_Tables_number   1
_chemical_formula_structural   CdH4(C2O)4
_chemical_formula_sum   'Cd2 H8 C16 O8'
_cell_volume   611.509213069
_cell_formula_units_Z   2
loop_
 _symmetry_equiv_pos_site_id
 _symmetry_equiv_pos_as_xyz
  1  'x, y, z'
loop_
 _atom_site_label
 _atom_site_fract_x
 _atom_site_fract_y
 _atom_site_fract_z
 _atom_site_charge
 Cd 0.76214 0.02622 0.5157   1.13059
 Cd 0.23786 0.97378 0.4843   1.130586
 H 0.826 0.2003 0.1216   0.111815
 H 0.0686 0.825 0.0965   0.094393
 H 0.2737 0.3033 0.7853   0.098577
 H 0.8143 0.4856 0.0094   0.110092
 H 0.174 0.7997 0.8784   0.111816
 H 0.9314 0.175 0.9035   0.094392
 H 0.7263 0.6967 0.2147   0.098577
 H 0.1857 0.5144 0.9906   0.11009
 C 0.8735 0.0322 0.2713   0.648846
 C 0.937 0.0139 0.1291   -0.119419
 C 0.8963 0.119 0.0723   -0.041865
 C 0.0405 0.896 0.0573   -0.066477
 C 0.6136 0.2423 0.7457   0.664468
 C 0.5535 0.3742 0.8783   -0.105739
 C 0.3653 0.3829 0.8723   -0.056327
 C 0.6865 0.4916 0.0059   -0.053988
 C 0.1265 0.9678 0.7287   0.648845
 C 0.063 0.9861 0.8709   -0.119418
 C 0.1037 0.881 0.9277   -0.04187
 C 0.9595 0.104 0.9427   -0.066482
 C 0.3864 0.7577 0.2543   0.664468
 C 0.4465 0.6258 0.1217   -0.105736
 C 0.6347 0.6171 0.1277   -0.056336
 C 0.3135 0.5084 0.9941   -0.053996
 O 0.7679 0.129 0.328   -0.540956
 O 0.9304 0.9437 0.3296   -0.66339
 O 0.5207 0.1061 0.6729   -0.659277
 O 0.7591 0.2702 0.7126   -0.551328
 O 0.2321 0.871 0.672   -0.540955
 O 0.0696 0.0563 0.6704   -0.66339
 O 0.4793 0.8939 0.3271   -0.659277
 O 0.2409 0.7298 0.2874   -0.551328
