{'_ref': 'TBD', '_srcid': 'CAKYAQ_clean', 'submitters': [{'name': 'Dalar Nazarian Jeff Camp and David Sholl', 'email': 'dalar@gatech.edu jcamp6@gatech.edu'}], '_method': 'VASP DFT with PBE;DDEC'}
data_Cu2H8C17O8
_symmetry_space_group_name_H-M   'P 1'
_cell_length_a   18.07000000
_cell_length_b   18.06999996
_cell_length_c   19.34000000
_cell_angle_alpha   90.00000000
_cell_angle_beta   90.00000000
_cell_angle_gamma   120.00000007
_symmetry_Int_Tables_number   1
_chemical_formula_structural   Cu2H8C17O8
_chemical_formula_sum   'Cu12 H48 C102 O48'
_cell_volume   5468.94310463
_cell_formula_units_Z   6
loop_
 _symmetry_equiv_pos_site_id
 _symmetry_equiv_pos_as_xyz
  1  'x, y, z'
loop_
 _atom_site_label
 _atom_site_fract_x
 _atom_site_fract_y
 _atom_site_fract_z
 _atom_site_charge
 Cu 0.52678 0.05356 0.05348   0.906782
 Cu 0.52678 0.47322 0.05348   0.906782
 Cu 0.94644 0.47322 0.05348   0.906782
 Cu 0.47322 0.94644 0.55348   0.906782
 Cu 0.47322 0.52678 0.55348   0.906782
 Cu 0.05356 0.52678 0.55348   0.906782
 Cu 0.47322 0.94644 0.94652   0.906783
 Cu 0.05356 0.52678 0.94652   0.906783
 Cu 0.47322 0.52678 0.94652   0.906783
 Cu 0.52678 0.05356 0.44652   0.906783
 Cu 0.94644 0.47322 0.44652   0.906783
 Cu 0.52678 0.47322 0.44652   0.906783
 H 0.7126 0.0641 0.8275   0.11534
 H 0.3515 0.2874 0.8275   0.115339
 H 0.9359 0.6485 0.8275   0.11534
 H 0.2874 0.9359 0.3275   0.11534
 H 0.6485 0.7126 0.3275   0.115339
 H 0.0641 0.3515 0.3275   0.11534
 H 0.6485 0.9359 0.1725   0.11534
 H 0.0641 0.7126 0.1725   0.11534
 H 0.2874 0.3515 0.1725   0.115339
 H 0.3515 0.0641 0.6725   0.11534
 H 0.9359 0.2874 0.6725   0.11534
 H 0.7126 0.6485 0.6725   0.115339
 H 0.2874 0.9359 0.1725   0.11534
 H 0.6485 0.7126 0.1725   0.11534
 H 0.0641 0.3515 0.1725   0.11534
 H 0.7126 0.0641 0.6725   0.11534
 H 0.3515 0.2874 0.6725   0.11534
 H 0.9359 0.6485 0.6725   0.11534
 H 0.3515 0.0641 0.8275   0.11534
 H 0.9359 0.2874 0.8275   0.11534
 H 0.7126 0.6485 0.8275   0.11534
 H 0.6485 0.9359 0.3275   0.11534
 H 0.0641 0.7126 0.3275   0.11534
 H 0.2874 0.3515 0.3275   0.11534
 H 0.7616 0.2384 0.9704   0.112313
 H 0.4768 0.2384 0.9704   0.112313
 H 0.7616 0.5232 0.9704   0.112313
 H 0.2384 0.7616 0.4704   0.112313
 H 0.5232 0.7616 0.4704   0.112313
 H 0.2384 0.4768 0.4704   0.112313
 H 0.5232 0.7616 0.0296   0.112313
 H 0.2384 0.7616 0.0296   0.112313
 H 0.2384 0.4768 0.0296   0.112313
 H 0.4768 0.2384 0.5296   0.112313
 H 0.7616 0.2384 0.5296   0.112313
 H 0.7616 0.5232 0.5296   0.112313
 H 0.9181 0.1695 0.75   0.117058
 H 0.2514 0.0819 0.75   0.117058
 H 0.8305 0.7486 0.75   0.117057
 H 0.0819 0.8305 0.25   0.117058
 H 0.7486 0.9181 0.25   0.117058
 H 0.1695 0.2514 0.25   0.117057
 H 0.7486 0.8305 0.25   0.117058
 H 0.1695 0.9181 0.25   0.117058
 H 0.0819 0.2514 0.25   0.117058
 H 0.2514 0.1695 0.75   0.117058
 H 0.8305 0.0819 0.75   0.117058
 H 0.9181 0.7486 0.75   0.117058
 C 0.7259 0.143 0.904   -0.105385
 C 0.7502 0.1168 0.8456   -0.093964
 C 0.6398 0.0839 0.9367   0.651823
 C 0.4171 0.2741 0.904   -0.105385
 C 0.3666 0.2498 0.8456   -0.093963
 C 0.4441 0.3602 0.9367   0.651823
 C 0.857 0.5829 0.904   -0.105385
 C 0.8832 0.6334 0.8456   -0.093964
 C 0.9161 0.5559 0.9367   0.651823
 C 0.2741 0.857 0.404   -0.105385
 C 0.2498 0.8832 0.3456   -0.093964
 C 0.3602 0.9161 0.4367   0.651823
 C 0.5829 0.7259 0.404   -0.105385
 C 0.6334 0.7502 0.3456   -0.093963
 C 0.5559 0.6398 0.4367   0.651823
 C 0.143 0.4171 0.404   -0.105385
 C 0.1168 0.3666 0.3456   -0.093964
 C 0.0839 0.4441 0.4367   0.651823
 C 0.5829 0.857 0.096   -0.105385
 C 0.6334 0.8832 0.1544   -0.093963
 C 0.5559 0.9161 0.0633   0.651822
 C 0.143 0.7259 0.096   -0.105385
 C 0.1168 0.7502 0.1544   -0.093964
 C 0.0839 0.6398 0.0633   0.651822
 C 0.2741 0.4171 0.096   -0.105385
 C 0.2498 0.3666 0.1544   -0.093963
 C 0.3602 0.4441 0.0633   0.651822
 C 0.4171 0.143 0.596   -0.105385
 C 0.3666 0.1168 0.6544   -0.093963
 C 0.4441 0.0839 0.5633   0.651822
 C 0.857 0.2741 0.596   -0.105385
 C 0.8832 0.2498 0.6544   -0.093964
 C 0.9161 0.3602 0.5633   0.651822
 C 0.7259 0.5829 0.596   -0.105385
 C 0.7502 0.6334 0.6544   -0.093963
 C 0.6398 0.5559 0.5633   0.651822
 C 0.2741 0.857 0.096   -0.105384
 C 0.2498 0.8832 0.1544   -0.093963
 C 0.3602 0.9161 0.0633   0.651822
 C 0.5829 0.7259 0.096   -0.105384
 C 0.6334 0.7502 0.1544   -0.093963
 C 0.5559 0.6398 0.0633   0.651822
 C 0.143 0.4171 0.096   -0.105384
 C 0.1168 0.3666 0.1544   -0.093963
 C 0.0839 0.4441 0.0633   0.651823
 C 0.7259 0.143 0.596   -0.105384
 C 0.7502 0.1168 0.6544   -0.093963
 C 0.6398 0.0839 0.5633   0.651822
 C 0.4171 0.2741 0.596   -0.105384
 C 0.3666 0.2498 0.6544   -0.093963
 C 0.4441 0.3602 0.5633   0.651822
 C 0.857 0.5829 0.596   -0.105384
 C 0.8832 0.6334 0.6544   -0.093963
 C 0.9161 0.5559 0.5633   0.651823
 C 0.4171 0.143 0.904   -0.105384
 C 0.3666 0.1168 0.8456   -0.093963
 C 0.4441 0.0839 0.9367   0.651822
 C 0.857 0.2741 0.904   -0.105384
 C 0.8832 0.2498 0.8456   -0.093963
 C 0.9161 0.3602 0.9367   0.651822
 C 0.7259 0.5829 0.904   -0.105384
 C 0.7502 0.6334 0.8456   -0.093962
 C 0.6398 0.5559 0.9367   0.651822
 C 0.5829 0.857 0.404   -0.105384
 C 0.6334 0.8832 0.3456   -0.093963
 C 0.5559 0.9161 0.4367   0.651822
 C 0.143 0.7259 0.404   -0.105384
 C 0.1168 0.7502 0.3456   -0.093963
 C 0.0839 0.6398 0.4367   0.651822
 C 0.2741 0.4171 0.404   -0.105384
 C 0.2498 0.3666 0.3456   -0.093962
 C 0.3602 0.4441 0.4367   0.651822
 C 0.8296 0.1704 0.814   0.056193
 C 0.7791 0.2209 0.9315   -0.000493
 C 0.3408 0.1704 0.814   0.056192
 C 0.4418 0.2209 0.9315   -0.000493
 C 0.8296 0.6592 0.814   0.056192
 C 0.7791 0.5582 0.9315   -0.000492
 C 0.1704 0.8296 0.314   0.056193
 C 0.2209 0.7791 0.4315   -0.000493
 C 0.6592 0.8296 0.314   0.056192
 C 0.5582 0.7791 0.4315   -0.000493
 C 0.1704 0.3408 0.314   0.056192
 C 0.2209 0.4418 0.4315   -0.000492
 C 0.6592 0.8296 0.186   0.056193
 C 0.5582 0.7791 0.0685   -0.000493
 C 0.1704 0.8296 0.186   0.056193
 C 0.2209 0.7791 0.0685   -0.000493
 C 0.1704 0.3408 0.186   0.056193
 C 0.2209 0.4418 0.0685   -0.000492
 C 0.3408 0.1704 0.686   0.056193
 C 0.4418 0.2209 0.5685   -0.000493
 C 0.8296 0.1704 0.686   0.056193
 C 0.7791 0.2209 0.5685   -0.000493
 C 0.8296 0.6592 0.686   0.056193
 C 0.7791 0.5582 0.5685   -0.000492
 C 0.85695 0.14305 0.75   -0.194626
 C 0.2861 0.14305 0.75   -0.194626
 C 0.85695 0.7139 0.75   -0.194626
 C 0.14305 0.85695 0.25   -0.194626
 C 0.7139 0.85695 0.25   -0.194626
 C 0.14305 0.2861 0.25   -0.194626
 O 0.6308 0.109 0.9973   -0.567972
 O 0.584 0.0172 0.9055   -0.547112
 O 0.4782 0.3692 0.9973   -0.567972
 O 0.4332 0.416 0.9055   -0.547113
 O 0.891 0.5218 0.9973   -0.567972
 O 0.9828 0.5668 0.9055   -0.547112
 O 0.3692 0.891 0.4973   -0.567972
 O 0.416 0.9828 0.4055   -0.547112
 O 0.5218 0.6308 0.4973   -0.567972
 O 0.5668 0.584 0.4055   -0.547113
 O 0.109 0.4782 0.4973   -0.567972
 O 0.0172 0.4332 0.4055   -0.547112
 O 0.5218 0.891 0.0027   -0.567972
 O 0.5668 0.9828 0.0945   -0.547112
 O 0.109 0.6308 0.0027   -0.567972
 O 0.0172 0.584 0.0945   -0.547112
 O 0.3692 0.4782 0.0027   -0.567972
 O 0.416 0.4332 0.0945   -0.547113
 O 0.4782 0.109 0.5027   -0.567972
 O 0.4332 0.0172 0.5945   -0.547112
 O 0.891 0.3692 0.5027   -0.567972
 O 0.9828 0.416 0.5945   -0.547112
 O 0.6308 0.5218 0.5027   -0.567972
 O 0.584 0.5668 0.5945   -0.547113
 O 0.3692 0.891 0.0027   -0.567972
 O 0.416 0.9828 0.0945   -0.547112
 O 0.5218 0.6308 0.0027   -0.567972
 O 0.5668 0.584 0.0945   -0.547112
 O 0.109 0.4782 0.0027   -0.567972
 O 0.0172 0.4332 0.0945   -0.547112
 O 0.6308 0.109 0.5027   -0.567972
 O 0.584 0.0172 0.5945   -0.547112
 O 0.4782 0.3692 0.5027   -0.567972
 O 0.4332 0.416 0.5945   -0.547112
 O 0.891 0.5218 0.5027   -0.567972
 O 0.9828 0.5668 0.5945   -0.547112
 O 0.4782 0.109 0.9973   -0.567972
 O 0.4332 0.0172 0.9055   -0.547113
 O 0.891 0.3692 0.9973   -0.567972
 O 0.9828 0.416 0.9055   -0.547112
 O 0.6308 0.5218 0.9973   -0.567972
 O 0.584 0.5668 0.9055   -0.547113
 O 0.5218 0.891 0.4973   -0.567972
 O 0.5668 0.9828 0.4055   -0.547113
 O 0.109 0.6308 0.4973   -0.567972
 O 0.0172 0.584 0.4055   -0.547112
 O 0.3692 0.4782 0.4973   -0.567972
 O 0.416 0.4332 0.4055   -0.547113
