{'_ref': 'TBD', '_srcid': 'CAKYAQ_clean', 'submitters': [{'name': 'Dalar Nazarian Jeff Camp and David Sholl', 'email': 'dalar@gatech.edu jcamp6@gatech.edu'}], '_method': 'VASP DFT with PBE;DDEC'}
data_Ga12H18C54O49
_symmetry_space_group_name_H-M   'P 1'
_cell_length_a   14.56650000
_cell_length_b   14.56649996
_cell_length_c   31.68350000
_cell_angle_alpha   90.00000000
_cell_angle_beta   90.00000000
_cell_angle_gamma   120.00000009
_symmetry_Int_Tables_number   1
_chemical_formula_structural   Ga12H18C54O49
_chemical_formula_sum   'Ga24 H36 C108 O98'
_cell_volume   5822.02689797
_cell_formula_units_Z   2
loop_
 _symmetry_equiv_pos_site_id
 _symmetry_equiv_pos_as_xyz
  1  'x, y, z'
loop_
 _atom_site_label
 _atom_site_fract_x
 _atom_site_fract_y
 _atom_site_fract_z
 _atom_site_charge
 Ga 0.92568 0.07432 0.25   1.700064
 Ga 0.14864 0.07432 0.25   1.700064
 Ga 0.92568 0.85136 0.25   1.700065
 Ga 0.07432 0.92568 0.75   1.700064
 Ga 0.85136 0.92568 0.75   1.700064
 Ga 0.07432 0.14864 0.75   1.700065
 Ga 0.58325 0.1665 0.41509   1.524756
 Ga 0.58325 0.41674 0.41509   1.524727
 Ga 0.83349 0.41674 0.41509   1.524726
 Ga 0.41675 0.8335 0.91509   1.524756
 Ga 0.41675 0.58326 0.91509   1.524727
 Ga 0.16651 0.58326 0.91509   1.524726
 Ga 0.41675 0.8335 0.58491   1.524756
 Ga 0.16651 0.58326 0.58491   1.524727
 Ga 0.41675 0.58326 0.58491   1.524726
 Ga 0.58325 0.1665 0.08491   1.524756
 Ga 0.83349 0.41674 0.08491   1.524727
 Ga 0.58325 0.41674 0.08491   1.524726
 Ga 0.5 0.0 0.5   1.496664
 Ga 0.5 0.5 0.5   1.496649
 Ga 0.0 0.5 0.5   1.496651
 Ga 0.5 0.0 0.0   1.496664
 Ga 0.5 0.5 0.0   1.496649
 Ga 0.0 0.5 0.0   1.496651
 H 0.7234 0.0 0.3552   0.106719
 H 0.2766 0.2766 0.3552   0.10672
 H 0.0 0.7234 0.3552   0.106722
 H 0.2766 0.0 0.8552   0.106719
 H 0.7234 0.7234 0.8552   0.10672
 H 0.0 0.2766 0.8552   0.106722
 H 0.7234 0.0 0.6448   0.106719
 H 0.0 0.7234 0.6448   0.10672
 H 0.2766 0.2766 0.6448   0.106722
 H 0.2766 0.0 0.1448   0.106719
 H 0.0 0.2766 0.1448   0.10672
 H 0.7234 0.7234 0.1448   0.106722
 H 0.2766 0.0 0.6448   0.106719
 H 0.7234 0.7234 0.6448   0.10672
 H 0.0 0.2766 0.6448   0.106722
 H 0.7234 0.0 0.1448   0.106719
 H 0.2766 0.2766 0.1448   0.10672
 H 0.0 0.7234 0.1448   0.106722
 H 0.2766 0.0 0.3552   0.106719
 H 0.0 0.2766 0.3552   0.10672
 H 0.7234 0.7234 0.3552   0.106722
 H 0.7234 0.0 0.8552   0.106719
 H 0.0 0.7234 0.8552   0.10672
 H 0.2766 0.2766 0.8552   0.106722
 H 0.5749 0.78745 0.4477   0.127304
 H 0.21255 0.4251 0.4477   0.127305
 H 0.21255 0.78745 0.4477   0.127303
 H 0.4251 0.21255 0.9477   0.127304
 H 0.78745 0.5749 0.9477   0.127305
 H 0.78745 0.21255 0.9477   0.127303
 H 0.78745 0.21255 0.5523   0.127304
 H 0.78745 0.5749 0.5523   0.127305
 H 0.4251 0.21255 0.5523   0.127304
 H 0.21255 0.78745 0.0523   0.127304
 H 0.21255 0.4251 0.0523   0.127305
 H 0.5749 0.78745 0.0523   0.127304
 C 0.6105 0.9752 0.425   0.729129
 C 0.7044 0.9351 0.3678   0.044668
 C 0.646 0.9057 0.4051   -0.172419
 C 0.3647 0.3895 0.425   0.729141
 C 0.2307 0.2956 0.3678   0.04467
 C 0.2597 0.354 0.4051   -0.172418
 C 0.0248 0.6353 0.425   0.729147
 C 0.0649 0.7693 0.3678   0.044672
 C 0.0943 0.7403 0.4051   -0.172415
 C 0.3895 0.0248 0.925   0.729129
 C 0.2956 0.0649 0.8678   0.044668
 C 0.354 0.0943 0.9051   -0.172419
 C 0.6353 0.6105 0.925   0.729141
 C 0.7693 0.7044 0.8678   0.04467
 C 0.7403 0.646 0.9051   -0.172418
 C 0.9752 0.3647 0.925   0.729147
 C 0.9351 0.2307 0.8678   0.044672
 C 0.9057 0.2597 0.9051   -0.172415
 C 0.6353 0.0248 0.575   0.729129
 C 0.7693 0.0649 0.6322   0.044668
 C 0.7403 0.0943 0.5949   -0.172419
 C 0.9752 0.6105 0.575   0.729141
 C 0.9351 0.7044 0.6322   0.044671
 C 0.9057 0.646 0.5949   -0.172418
 C 0.3895 0.3647 0.575   0.729147
 C 0.2956 0.2307 0.6322   0.044672
 C 0.354 0.2597 0.5949   -0.172414
 C 0.3647 0.9752 0.075   0.729129
 C 0.2307 0.9351 0.1322   0.044668
 C 0.2597 0.9057 0.0949   -0.172419
 C 0.0248 0.3895 0.075   0.729141
 C 0.0649 0.2956 0.1322   0.044671
 C 0.0943 0.354 0.0949   -0.172418
 C 0.6105 0.6353 0.075   0.729147
 C 0.7044 0.7693 0.1322   0.044672
 C 0.646 0.7403 0.0949   -0.172414
 C 0.3895 0.0248 0.575   0.729129
 C 0.2956 0.0649 0.6322   0.044668
 C 0.354 0.0943 0.5949   -0.172418
 C 0.6353 0.6105 0.575   0.729141
 C 0.7693 0.7044 0.6322   0.04467
 C 0.7403 0.646 0.5949   -0.172417
 C 0.9752 0.3647 0.575   0.729147
 C 0.9351 0.2307 0.6322   0.044672
 C 0.9057 0.2597 0.5949   -0.172414
 C 0.6105 0.9752 0.075   0.729129
 C 0.7044 0.9351 0.1322   0.044668
 C 0.646 0.9057 0.0949   -0.172418
 C 0.3647 0.3895 0.075   0.729141
 C 0.2307 0.2956 0.1322   0.04467
 C 0.2597 0.354 0.0949   -0.172417
 C 0.0248 0.6353 0.075   0.729147
 C 0.0649 0.7693 0.1322   0.044672
 C 0.0943 0.7403 0.0949   -0.172414
 C 0.3647 0.9752 0.425   0.729129
 C 0.2307 0.9351 0.3678   0.044668
 C 0.2597 0.9057 0.4051   -0.172418
 C 0.0248 0.3895 0.425   0.729141
 C 0.0649 0.2956 0.3678   0.044671
 C 0.0943 0.354 0.4051   -0.172418
 C 0.6105 0.6353 0.425   0.729147
 C 0.7044 0.7693 0.3678   0.044672
 C 0.646 0.7403 0.4051   -0.172414
 C 0.6353 0.0248 0.925   0.729129
 C 0.7693 0.0649 0.8678   0.044668
 C 0.7403 0.0943 0.9051   -0.172418
 C 0.9752 0.6105 0.925   0.729141
 C 0.9351 0.7044 0.8678   0.044671
 C 0.9057 0.646 0.9051   -0.172418
 C 0.3895 0.3647 0.925   0.729147
 C 0.2956 0.2307 0.8678   0.044672
 C 0.354 0.2597 0.9051   -0.172414
 C 0.7995 0.89975 0.3095   0.775598
 C 0.7344 0.8672 0.3493   -0.226031
 C 0.6156 0.8078 0.4233   0.055589
 C 0.10025 0.2005 0.3095   0.775598
 C 0.1328 0.2656 0.3493   -0.226031
 C 0.1922 0.3844 0.4233   0.055591
 C 0.10025 0.89975 0.3095   0.775598
 C 0.1328 0.8672 0.3493   -0.226031
 C 0.1922 0.8078 0.4233   0.055589
 C 0.2005 0.10025 0.8095   0.775598
 C 0.2656 0.1328 0.8493   -0.226031
 C 0.3844 0.1922 0.9233   0.055589
 C 0.89975 0.7995 0.8095   0.775598
 C 0.8672 0.7344 0.8493   -0.226031
 C 0.8078 0.6156 0.9233   0.055591
 C 0.89975 0.10025 0.8095   0.775598
 C 0.8672 0.1328 0.8493   -0.226031
 C 0.8078 0.1922 0.9233   0.055589
 C 0.89975 0.10025 0.6905   0.775598
 C 0.8672 0.1328 0.6507   -0.226031
 C 0.8078 0.1922 0.5767   0.055589
 C 0.89975 0.7995 0.6905   0.775598
 C 0.8672 0.7344 0.6507   -0.226031
 C 0.8078 0.6156 0.5767   0.055591
 C 0.2005 0.10025 0.6905   0.775597
 C 0.2656 0.1328 0.6507   -0.226031
 C 0.3844 0.1922 0.5767   0.05559
 C 0.10025 0.89975 0.1905   0.775598
 C 0.1328 0.8672 0.1507   -0.226031
 C 0.1922 0.8078 0.0767   0.055589
 C 0.10025 0.2005 0.1905   0.775598
 C 0.1328 0.2656 0.1507   -0.226031
 C 0.1922 0.3844 0.0767   0.055591
 C 0.7995 0.89975 0.1905   0.775597
 C 0.7344 0.8672 0.1507   -0.226031
 C 0.6156 0.8078 0.0767   0.05559
 O 0.8247 0.9895 0.29512   -0.634404
 O 0.6233 0.055 0.40455   -0.622415
 O 0.5708 0.9489 0.4611   -0.577632
 O 0.1648 0.1753 0.29512   -0.634403
 O 0.4317 0.3767 0.40455   -0.622437
 O 0.3781 0.4292 0.4611   -0.577638
 O 0.0105 0.8352 0.29512   -0.634403
 O 0.945 0.5683 0.40455   -0.622462
 O 0.0511 0.6219 0.4611   -0.577643
 O 0.1753 0.0105 0.79512   -0.634404
 O 0.3767 0.945 0.90455   -0.622415
 O 0.4292 0.0511 0.9611   -0.577632
 O 0.8352 0.8247 0.79512   -0.634403
 O 0.5683 0.6233 0.90455   -0.622437
 O 0.6219 0.5708 0.9611   -0.577638
 O 0.9895 0.1648 0.79512   -0.634403
 O 0.055 0.4317 0.90455   -0.622462
 O 0.9489 0.3781 0.9611   -0.577643
 O 0.8352 0.0105 0.70488   -0.634404
 O 0.5683 0.945 0.59545   -0.622415
 O 0.6219 0.0511 0.5389   -0.577632
 O 0.9895 0.8247 0.70488   -0.634403
 O 0.055 0.6233 0.59545   -0.622437
 O 0.9489 0.5708 0.5389   -0.577638
 O 0.1753 0.1648 0.70488   -0.634402
 O 0.3767 0.4317 0.59545   -0.622462
 O 0.4292 0.3781 0.5389   -0.577643
 O 0.1648 0.9895 0.20488   -0.634404
 O 0.4317 0.055 0.09545   -0.622415
 O 0.3781 0.9489 0.0389   -0.577632
 O 0.0105 0.1753 0.20488   -0.634403
 O 0.945 0.3767 0.09545   -0.622437
 O 0.0511 0.4292 0.0389   -0.577638
 O 0.8247 0.8352 0.20488   -0.634402
 O 0.6233 0.5683 0.09545   -0.622462
 O 0.5708 0.6219 0.0389   -0.577643
 O 0.1753 0.0105 0.70488   -0.634404
 O 0.3767 0.945 0.59545   -0.622415
 O 0.4292 0.0511 0.5389   -0.577632
 O 0.8352 0.8247 0.70488   -0.634403
 O 0.5683 0.6233 0.59545   -0.622437
 O 0.6219 0.5708 0.5389   -0.577638
 O 0.9895 0.1648 0.70488   -0.634402
 O 0.055 0.4317 0.59545   -0.622462
 O 0.9489 0.3781 0.5389   -0.577643
 O 0.8247 0.9895 0.20488   -0.634404
 O 0.6233 0.055 0.09545   -0.622415
 O 0.5708 0.9489 0.0389   -0.577632
 O 0.1648 0.1753 0.20488   -0.634403
 O 0.4317 0.3767 0.09545   -0.622437
 O 0.3781 0.4292 0.0389   -0.577638
 O 0.0105 0.8352 0.20488   -0.634402
 O 0.945 0.5683 0.09545   -0.622462
 O 0.0511 0.6219 0.0389   -0.577643
 O 0.1648 0.9895 0.29512   -0.634404
 O 0.4317 0.055 0.40455   -0.622415
 O 0.3781 0.9489 0.4611   -0.577632
 O 0.0105 0.1753 0.29512   -0.634403
 O 0.945 0.3767 0.40455   -0.622437
 O 0.0511 0.4292 0.4611   -0.577638
 O 0.8247 0.8352 0.29512   -0.634403
 O 0.6233 0.5683 0.40455   -0.622462
 O 0.5708 0.6219 0.4611   -0.577643
 O 0.8352 0.0105 0.79512   -0.634404
 O 0.5683 0.945 0.90455   -0.622415
 O 0.6219 0.0511 0.9611   -0.577632
 O 0.9895 0.8247 0.79512   -0.634403
 O 0.055 0.6233 0.90455   -0.622437
 O 0.9489 0.5708 0.9611   -0.577638
 O 0.1753 0.1648 0.79512   -0.634403
 O 0.3767 0.4317 0.90455   -0.622462
 O 0.4292 0.3781 0.9611   -0.577643
 O 0.5686 0.1372 0.4745   -0.592013
 O 0.5686 0.4314 0.4745   -0.591934
 O 0.8628 0.4314 0.4745   -0.591934
 O 0.4314 0.8628 0.9745   -0.592013
 O 0.4314 0.5686 0.9745   -0.591934
 O 0.1372 0.5686 0.9745   -0.591934
 O 0.4314 0.8628 0.5255   -0.592013
 O 0.1372 0.5686 0.5255   -0.591934
 O 0.4314 0.5686 0.5255   -0.591934
 O 0.5686 0.1372 0.0255   -0.592013
 O 0.8628 0.4314 0.0255   -0.591934
 O 0.5686 0.4314 0.0255   -0.591934
 O 0.0 0.0 0.25   -1.316109
 O 0.0 0.0 0.75   -1.316109
 O 0.536 0.268 0.4186   -0.791521
 O 0.732 0.464 0.4186   -0.791497
 O 0.732 0.268 0.4186   -0.791521
 O 0.464 0.732 0.9186   -0.791521
 O 0.268 0.536 0.9186   -0.791497
 O 0.268 0.732 0.9186   -0.791521
 O 0.268 0.732 0.5814   -0.791521
 O 0.268 0.536 0.5814   -0.791497
 O 0.464 0.732 0.5814   -0.791521
 O 0.732 0.268 0.0814   -0.791521
 O 0.732 0.464 0.0814   -0.791497
 O 0.536 0.268 0.0814   -0.791521
