{'_ref': 'TBD', '_srcid': 'CAKYAQ_clean', 'submitters': [{'name': 'Dalar Nazarian Jeff Camp and David Sholl', 'email': 'dalar@gatech.edu jcamp6@gatech.edu'}], '_method': 'VASP DFT with PBE;DDEC'}
data_ErHC7(NO3)2
_symmetry_space_group_name_H-M   'P 1'
_cell_length_a   6.54950000
_cell_length_b   9.53840000
_cell_length_c   17.16930000
_cell_angle_alpha   90.00000000
_cell_angle_beta   90.00000000
_cell_angle_gamma   90.00000000
_symmetry_Int_Tables_number   1
_chemical_formula_structural   ErHC7(NO3)2
_chemical_formula_sum   'Er4 H4 C28 N8 O24'
_cell_volume   1072.59623101
_cell_formula_units_Z   4
loop_
 _symmetry_equiv_pos_site_id
 _symmetry_equiv_pos_as_xyz
  1  'x, y, z'
loop_
 _atom_site_label
 _atom_site_fract_x
 _atom_site_fract_y
 _atom_site_fract_z
 _atom_site_charge
 Er 0.75 0.78338 0.62035   1.478284
 Er 0.25 0.71662 0.12035   1.478284
 Er 0.25 0.21662 0.37965   1.478277
 Er 0.75 0.28338 0.87965   1.478277
 H 0.75 0.2289 0.6519   0.104705
 H 0.25 0.2711 0.1519   0.104705
 H 0.25 0.7711 0.3481   0.104705
 H 0.75 0.7289 0.8481   0.104705
 C 0.75 0.6291 0.4511   0.602854
 C 0.75 0.5021 0.5054   0.024895
 C 0.75 0.3597 0.484   0.090616
 C 0.75 0.3084 0.4006   0.689049
 C 0.75 0.2973 0.6134   0.192622
 C 0.75 0.4378 0.6345   0.054838
 C 0.75 0.4918 0.7167   0.692981
 C 0.25 0.8709 0.9511   0.602854
 C 0.25 0.9979 0.0054   0.024895
 C 0.25 0.1403 0.984   0.090616
 C 0.25 0.1916 0.9006   0.689049
 C 0.25 0.2027 0.1134   0.192622
 C 0.25 0.0622 0.1345   0.054838
 C 0.25 0.0082 0.2167   0.692981
 C 0.25 0.3709 0.5489   0.602855
 C 0.25 0.4979 0.4946   0.024895
 C 0.25 0.6403 0.516   0.090617
 C 0.25 0.6916 0.5994   0.689049
 C 0.25 0.7027 0.3866   0.192622
 C 0.25 0.5622 0.3655   0.054838
 C 0.25 0.5082 0.2833   0.692981
 C 0.75 0.1291 0.0489   0.602855
 C 0.75 0.0021 0.9946   0.024895
 C 0.75 0.8597 0.016   0.090617
 C 0.75 0.8084 0.0994   0.689049
 C 0.75 0.7973 0.8866   0.192622
 C 0.75 0.9378 0.8655   0.054838
 C 0.75 0.9918 0.7833   0.692981
 N 0.75 0.5365 0.58057   -0.272046
 N 0.75 0.2586 0.5384   -0.257453
 N 0.25 0.9635 0.08057   -0.272046
 N 0.25 0.2414 0.0384   -0.257453
 N 0.25 0.4635 0.41943   -0.272045
 N 0.25 0.7414 0.4616   -0.257453
 N 0.75 0.0365 0.91943   -0.272045
 N 0.75 0.7586 0.9616   -0.257453
 O 0.9184 0.2869 0.36922   -0.583954
 O 0.0816 0.2131 0.86922   -0.583954
 O 0.4184 0.7131 0.63078   -0.583955
 O 0.5816 0.7869 0.13078   -0.583955
 O 0.0816 0.7131 0.63078   -0.583954
 O 0.9184 0.7869 0.13078   -0.583954
 O 0.5816 0.2869 0.36922   -0.583954
 O 0.4184 0.2131 0.86922   -0.583954
 O 0.75 0.7463 0.48701   -0.660187
 O 0.75 0.61 0.38082   -0.408165
 O 0.75 0.405 0.77014   -0.615443
 O 0.75 0.6218 0.72443   -0.549639
 O 0.25 0.7537 0.98701   -0.660187
 O 0.25 0.89 0.88082   -0.408165
 O 0.25 0.095 0.27014   -0.615443
 O 0.25 0.8782 0.22443   -0.549639
 O 0.25 0.2537 0.51299   -0.660187
 O 0.25 0.39 0.61918   -0.408165
 O 0.25 0.595 0.22986   -0.615444
 O 0.25 0.3782 0.27557   -0.549639
 O 0.75 0.2463 0.01299   -0.660187
 O 0.75 0.11 0.11918   -0.408165
 O 0.75 0.905 0.72986   -0.615444
 O 0.75 0.1218 0.77557   -0.549639
