{'_ref': 'TBD', '_srcid': 'CAKYAQ_clean', 'submitters': [{'name': 'Dalar Nazarian Jeff Camp and David Sholl', 'email': 'dalar@gatech.edu jcamp6@gatech.edu'}], '_method': 'VASP DFT with PBE;DDEC'}
data_YbNa3H13C21N3O16
_symmetry_space_group_name_H-M   'P 1'
_cell_length_a   12.90199966
_cell_length_b   13.03000035
_cell_length_c   13.10100000
_cell_angle_alpha   70.26000233
_cell_angle_beta   73.02999920
_cell_angle_gamma   71.97999950
_symmetry_Int_Tables_number   1
_chemical_formula_structural   YbNa3H13C21N3O16
_chemical_formula_sum   'Yb2 Na6 H26 C42 N6 O32'
_cell_volume   1927.65167068
_cell_formula_units_Z   2
loop_
 _symmetry_equiv_pos_site_id
 _symmetry_equiv_pos_as_xyz
  1  'x, y, z'
loop_
 _atom_site_label
 _atom_site_fract_x
 _atom_site_fract_y
 _atom_site_fract_z
 _atom_site_charge
 Yb 0.66271 0.65707 0.66437   1.12036
 Yb 0.33729 0.34293 0.33563   1.12036
 Na 0.6835 0.1518 0.6639   0.928089
 Na 0.6784 0.6732 0.1535   0.957365
 Na 0.1576 0.6515 0.6789   0.914362
 Na 0.3165 0.8482 0.3361   0.928078
 Na 0.3216 0.3268 0.8465   0.957364
 Na 0.8424 0.3485 0.3211   0.914353
 H 0.7001 0.899 0.2427   0.11438
 H 0.6629 0.0763 0.271   0.096776
 H 0.6244 0.0904 0.4534   0.11257
 H 0.0881 0.4417 0.6305   0.118667
 H 0.0676 0.2602 0.6735   0.101044
 H 0.8896 0.2295 0.7132   0.11829
 H 0.2399 0.7002 0.8855   0.118521
 H 0.2696 0.6692 0.0613   0.104641
 H 0.4532 0.6303 0.0842   0.110177
 H 0.5417 0.3163 0.5048   0.373292
 H 0.7753 0.0232 0.8472   0.40457
 H 0.2885 0.6086 0.4837   0.327057
 H 0.0615 0.4948 0.8741   0.373087
 H 0.9385 0.5052 0.1259   0.373085
 H 0.2999 0.101 0.7573   0.114382
 H 0.3371 0.9237 0.729   0.096777
 H 0.3756 0.9096 0.5466   0.11257
 H 0.9119 0.5583 0.3695   0.118667
 H 0.9324 0.7398 0.3265   0.101045
 H 0.1104 0.7705 0.2868   0.11829
 H 0.7601 0.2998 0.1145   0.118522
 H 0.7304 0.3308 0.9387   0.104641
 H 0.5468 0.3697 0.9158   0.110178
 H 0.4583 0.6837 0.4952   0.373292
 H 0.2247 0.9768 0.1528   0.404572
 H 0.7115 0.3914 0.5163   0.327057
 C 0.6809 0.8159 0.4054   0.088717
 C 0.684 0.9073 0.3138   -0.109639
 C 0.6623 0.0126 0.3309   -0.000455
 C 0.6396 0.0213 0.4394   -0.105571
 C 0.6406 0.9235 0.5249   0.089729
 C 0.6201 0.9236 0.6439   0.626594
 C 0.7077 0.6965 0.3971   0.624146
 C 0.9249 0.5154 0.6441   0.079756
 C 0.0176 0.4282 0.6462   -0.104954
 C 0.0054 0.32 0.672   -0.002133
 C 0.9 0.3015 0.6954   -0.10455
 C 0.8107 0.3937 0.6915   0.071839
 C 0.691 0.3865 0.7172   0.602507
 C 0.9281 0.6358 0.6201   0.636864
 C 0.4022 0.6805 0.809   0.078434
 C 0.3117 0.6849 0.8967   -0.105379
 C 0.3293 0.6662 0.0012   -0.006203
 C 0.4385 0.6428 0.015   -0.106186
 C 0.5238 0.6389 0.9225   0.082186
 C 0.6457 0.6162 0.9278   0.645797
 C 0.3932 0.7065 0.6909   0.629366
 C 0.3191 0.1841 0.5946   0.088717
 C 0.316 0.0927 0.6862   -0.109639
 C 0.3377 0.9874 0.6691   -0.000454
 C 0.3604 0.9787 0.5606   -0.105571
 C 0.3594 0.0765 0.4751   0.089729
 C 0.3799 0.0764 0.3561   0.626594
 C 0.2923 0.3035 0.6029   0.624146
 C 0.0751 0.4846 0.3559   0.079757
 C 0.9824 0.5718 0.3538   -0.104953
 C 0.9946 0.68 0.328   -0.002134
 C 0.1 0.6985 0.3046   -0.10455
 C 0.1893 0.6063 0.3085   0.071839
 C 0.309 0.6135 0.2828   0.602507
 C 0.0719 0.3642 0.3799   0.636864
 C 0.5978 0.3195 0.191   0.078434
 C 0.6883 0.3151 0.1033   -0.10538
 C 0.6707 0.3338 0.9988   -0.006203
 C 0.5615 0.3572 0.985   -0.106186
 C 0.4762 0.3611 0.0775   0.082186
 C 0.3543 0.3838 0.0722   0.645797
 C 0.6068 0.2935 0.3091   0.629366
 N 0.6595 0.8246 0.5087   -0.258192
 N 0.8238 0.4981 0.666   -0.253151
 N 0.5074 0.6566 0.8229   -0.253866
 N 0.3405 0.1754 0.4913   -0.258192
 N 0.1762 0.5019 0.334   -0.253151
 N 0.4926 0.3434 0.1771   -0.253866
 O 0.6157 0.8281 0.7139   -0.492472
 O 0.6135 0.0099 0.6676   -0.5986
 O 0.733 0.6795 0.3056   -0.650269
 O 0.704 0.6211 0.4905   -0.434662
 O 0.6198 0.4796 0.7118   -0.497564
 O 0.671 0.2927 0.7448   -0.591309
 O 0.0172 0.659 0.6074   -0.618558
 O 0.8354 0.7063 0.6128   -0.4974
 O 0.7144 0.6047 0.8354   -0.511446
 O 0.6699 0.6098 0.0125   -0.636931
 O 0.2991 0.7335 0.669   -0.628855
 O 0.486 0.7027 0.6203   -0.523326
 O 0.5574 0.2951 0.5747   -0.56233
 O 0.7975 0.0307 0.7869   -0.763373
 O 0.296 0.5714 0.552   -0.505773
 O 0.1381 0.4934 0.8412   -0.726037
 O 0.8619 0.5066 0.1588   -0.726034
 O 0.3843 0.1719 0.2861   -0.492472
 O 0.3865 0.9901 0.3324   -0.598599
 O 0.267 0.3205 0.6944   -0.650268
 O 0.296 0.3789 0.5095   -0.43466
 O 0.3802 0.5204 0.2882   -0.497564
 O 0.329 0.7073 0.2552   -0.591308
 O 0.9828 0.341 0.3926   -0.618557
 O 0.1646 0.2937 0.3872   -0.4974
 O 0.2856 0.3953 0.1646   -0.511446
 O 0.3301 0.3902 0.9875   -0.636931
 O 0.7009 0.2665 0.331   -0.628854
 O 0.514 0.2973 0.3797   -0.523326
 O 0.4426 0.7049 0.4253   -0.562328
 O 0.2025 0.9693 0.2131   -0.763373
 O 0.704 0.4286 0.448   -0.505769
