{'_ref': 'TBD', '_srcid': 'CAKYAQ_clean', 'submitters': [{'name': 'Dalar Nazarian Jeff Camp and David Sholl', 'email': 'dalar@gatech.edu jcamp6@gatech.edu'}], '_method': 'VASP DFT with PBE;DDEC'}
data_Cd3H16C12(N8Cl)2
_symmetry_space_group_name_H-M   'P 1'
_cell_length_a   7.87240018
_cell_length_b   9.28839960
_cell_length_c   9.46070000
_cell_angle_alpha   86.63919702
_cell_angle_beta   65.41399911
_cell_angle_gamma   81.89989741
_symmetry_Int_Tables_number   1
_chemical_formula_structural   Cd3H16C12(N8Cl)2
_chemical_formula_sum   'Cd3 H16 C12 N16 Cl2'
_cell_volume   622.790569306
_cell_formula_units_Z   1
loop_
 _symmetry_equiv_pos_site_id
 _symmetry_equiv_pos_as_xyz
  1  'x, y, z'
loop_
 _atom_site_label
 _atom_site_fract_x
 _atom_site_fract_y
 _atom_site_fract_z
 _atom_site_charge
 Cd 0.0 0.5 0.5   0.720493
 Cd 0.5 0.5 0.5   0.720446
 Cd 0.5 0.0 0.0   1.010652
 H 0.0568 0.223 0.7512   0.117975
 H 0.9446 0.1026 0.8594   0.09294
 H 0.1144 0.0789 0.53   0.070431
 H 0.0146 0.9569 0.6426   0.06086
 H 0.192 0.777 0.7512   0.119139
 H 0.196 0.8974 0.8594   0.093463
 H 0.3556 0.9211 0.53   0.069657
 H 0.3428 0.0431 0.6426   0.06027
 H 0.9432 0.777 0.2488   0.117978
 H 0.0554 0.8974 0.1406   0.092955
 H 0.8856 0.9211 0.47   0.070425
 H 0.9854 0.0431 0.3574   0.060853
 H 0.808 0.223 0.2488   0.119142
 H 0.804 0.1026 0.1406   0.093477
 H 0.6444 0.0789 0.47   0.069651
 H 0.6572 0.9569 0.3574   0.060263
 C 0.8068 0.2134 0.7372   0.392802
 C 0.9797 0.1479 0.758   -0.241098
 C 0.0913 0.0337 0.6302   -0.088294
 C 0.456 0.7866 0.7372   0.394725
 C 0.2623 0.8521 0.758   -0.2438
 C 0.2785 0.9663 0.6302   -0.085915
 C 0.1932 0.7866 0.2628   0.392831
 C 0.0203 0.8521 0.242   -0.241106
 C 0.9087 0.9663 0.3698   -0.088291
 C 0.544 0.2134 0.2628   0.394754
 C 0.7377 0.1479 0.242   -0.243808
 C 0.7215 0.0337 0.3698   -0.085911
 N 0.6227 0.3363 0.6468   0.014994
 N 0.5253 0.2452 0.7484   -0.120641
 N 0.6387 0.1663 0.807   -0.357332
 N 0.802 0.3196 0.636   -0.309552
 N 0.7305 0.6637 0.6468   0.016741
 N 0.7263 0.7548 0.7484   -0.122702
 N 0.5543 0.8337 0.807   -0.357909
 N 0.562 0.6804 0.636   -0.310386
 N 0.3773 0.6637 0.3532   0.014992
 N 0.4747 0.7548 0.2516   -0.120623
 N 0.3613 0.8337 0.193   -0.357329
 N 0.198 0.6804 0.364   -0.309555
 N 0.2695 0.3363 0.3532   0.016739
 N 0.2737 0.2452 0.2516   -0.122684
 N 0.4457 0.1663 0.193   -0.357905
 N 0.438 0.3196 0.364   -0.310389
 Cl 0.14903 0.5 0.70194   -0.492212
 Cl 0.85097 0.5 0.29806   -0.492205
