{'_ref': 'TBD', '_srcid': 'CAKYAQ_clean', 'submitters': [{'name': 'Dalar Nazarian Jeff Camp and David Sholl', 'email': 'dalar@gatech.edu jcamp6@gatech.edu'}], '_method': 'VASP DFT with PBE;DDEC'}
data_CoH7C5NO4
_symmetry_space_group_name_H-M   'P 1'
_cell_length_a   7.14900000
_cell_length_b   10.46800000
_cell_length_c   11.29500000
_cell_angle_alpha   90.00000000
_cell_angle_beta   90.00000000
_cell_angle_gamma   90.00000000
_symmetry_Int_Tables_number   1
_chemical_formula_structural   CoH7C5NO4
_chemical_formula_sum   'Co4 H28 C20 N4 O16'
_cell_volume   845.26959294
_cell_formula_units_Z   4
loop_
 _symmetry_equiv_pos_site_id
 _symmetry_equiv_pos_as_xyz
  1  'x, y, z'
loop_
 _atom_site_label
 _atom_site_fract_x
 _atom_site_fract_y
 _atom_site_fract_z
 _atom_site_charge
 Co 0.10683 0.93586 0.54189   0.923414
 Co 0.39317 0.06414 0.04189   0.923414
 Co 0.89317 0.43586 0.95811   0.923414
 Co 0.60683 0.56414 0.45811   0.923414
 H 0.195 0.1369 0.8628   0.340129
 H 0.3252 0.0413 0.8182   0.327451
 H 0.3525 0.2773 0.7797   0.095643
 H 0.4911 0.1237 0.6601   0.088011
 H 0.6256 0.2391 0.684   0.095963
 H 0.6493 0.0038 0.8045   0.120792
 H 0.7847 0.1188 0.8266   0.130474
 H 0.305 0.8631 0.3628   0.340129
 H 0.1748 0.9587 0.3182   0.327451
 H 0.1475 0.7227 0.2797   0.095643
 H 0.0089 0.8763 0.1601   0.088011
 H 0.8744 0.7609 0.184   0.095963
 H 0.8507 0.9962 0.3045   0.120792
 H 0.7153 0.8812 0.3266   0.130474
 H 0.805 0.6369 0.6372   0.340129
 H 0.6748 0.5413 0.6818   0.32745
 H 0.6475 0.7773 0.7203   0.095644
 H 0.5089 0.6237 0.8399   0.088011
 H 0.3744 0.7391 0.816   0.095963
 H 0.3507 0.5038 0.6955   0.120793
 H 0.2153 0.6188 0.6734   0.130475
 H 0.695 0.3631 0.1372   0.340129
 H 0.8252 0.4587 0.1818   0.32745
 H 0.8525 0.2227 0.2203   0.095644
 H 0.9911 0.3763 0.3399   0.088011
 H 0.1256 0.2609 0.316   0.095963
 H 0.1493 0.4962 0.1955   0.120793
 H 0.2847 0.3812 0.1734   0.130475
 C 0.5421 0.2805 0.9156   0.642024
 C 0.8435 0.0238 0.6732   0.683547
 C 0.4352 0.2136 0.8158   0.054225
 C 0.5642 0.1665 0.7206   -0.130834
 C 0.7116 0.0752 0.7666   -0.31133
 C 0.9579 0.7195 0.4156   0.642024
 C 0.6565 0.9762 0.1732   0.683547
 C 0.0648 0.7864 0.3158   0.054225
 C 0.9358 0.8335 0.2206   -0.130834
 C 0.7884 0.9248 0.2666   -0.31133
 C 0.4579 0.7805 0.5844   0.642024
 C 0.1565 0.5238 0.8268   0.683548
 C 0.5648 0.7136 0.6842   0.054225
 C 0.4358 0.6665 0.7794   -0.130833
 C 0.2884 0.5752 0.7334   -0.311331
 C 0.0421 0.2195 0.0844   0.642024
 C 0.3435 0.4762 0.3268   0.683548
 C 0.9352 0.2864 0.1842   0.054225
 C 0.0642 0.3335 0.2794   -0.130833
 C 0.2116 0.4248 0.2334   -0.311331
 N 0.3152 0.1112 0.8641   -0.721533
 N 0.1848 0.8888 0.3641   -0.721533
 N 0.6848 0.6112 0.6359   -0.721533
 N 0.8152 0.3888 0.1359   -0.721533
 O 0.9908 0.9652 0.7101   -0.608066
 O 0.8148 0.0364 0.5654   -0.594926
 O 0.5292 0.2357 0.0184   -0.544535
 O 0.6421 0.3736 0.8848   -0.590451
 O 0.5092 0.0348 0.2101   -0.608065
 O 0.6852 0.9636 0.0654   -0.594925
 O 0.9708 0.7643 0.5184   -0.544534
 O 0.8579 0.6264 0.3848   -0.590451
 O 0.0092 0.4652 0.7899   -0.608066
 O 0.1852 0.5364 0.9346   -0.594926
 O 0.4708 0.7357 0.4816   -0.544535
 O 0.3579 0.8736 0.6152   -0.590451
 O 0.4908 0.5348 0.2899   -0.608065
 O 0.3148 0.4636 0.4346   -0.594926
 O 0.0292 0.2643 0.9816   -0.544534
 O 0.1421 0.1264 0.1152   -0.590451
