{'_ref': 'TBD', '_srcid': 'CAKYAQ_clean', 'submitters': [{'name': 'Dalar Nazarian Jeff Camp and David Sholl', 'email': 'dalar@gatech.edu jcamp6@gatech.edu'}], '_method': 'VASP DFT with PBE;DDEC'}
data_ZnH8C14O5
_symmetry_space_group_name_H-M   'P 1'
_cell_length_a   13.29800000
_cell_length_b   13.29800016
_cell_length_c   29.54400000
_cell_angle_alpha   90.00000000
_cell_angle_beta   90.00000000
_cell_angle_gamma   119.99999961
_symmetry_Int_Tables_number   1
_chemical_formula_structural   ZnH8C14O5
_chemical_formula_sum   'Zn12 H96 C168 O60'
_cell_volume   4524.52081349
_cell_formula_units_Z   12
loop_
 _symmetry_equiv_pos_site_id
 _symmetry_equiv_pos_as_xyz
  1  'x, y, z'
loop_
 _atom_site_label
 _atom_site_fract_x
 _atom_site_fract_y
 _atom_site_fract_z
 _atom_site_charge
 Zn 0.46553 0.46537 0.10652   1.042478
 Zn 0.53463 0.000160000000001 0.773187   1.04197
 Zn 0.99984 0.53447 0.439853   1.042137
 Zn 0.46537 0.46553 0.89348   1.042468
 Zn 0.000160000000001 0.53463 0.226813   1.041973
 Zn 0.53447 0.99984 0.560147   1.042141
 Zn 0.28176 0.44995 0.18455   1.051817
 Zn 0.55005 0.83181 0.851217   1.051776
 Zn 0.16819 0.71824 0.517883   1.051931
 Zn 0.44995 0.28176 0.81545   1.051877
 Zn 0.83181 0.55005 0.148783   1.051669
 Zn 0.71824 0.16819 0.482117   1.051971
 H 0.736 0.7537 0.1657   0.098646
 H 0.2463 0.9823 0.832367   0.098724
 H 0.0177 0.264 0.499033   0.098916
 H 0.7537 0.736 0.8343   0.098693
 H 0.9823 0.2463 0.167633   0.098678
 H 0.264 0.0177 0.500967   0.098915
 H 0.8806 0.9164 0.1991   0.134516
 H 0.0836 0.9642 0.865767   0.134977
 H 0.0358 0.1194 0.532433   0.134463
 H 0.9164 0.8806 0.8009   0.134456
 H 0.9642 0.0836 0.134233   0.134851
 H 0.1194 0.0358 0.467567   0.134652
 H 0.6494 0.9537 0.272   0.109552
 H 0.0463 0.6957 0.938667   0.109712
 H 0.3043 0.3506 0.605333   0.110039
 H 0.9537 0.6494 0.728   0.109575
 H 0.6957 0.0463 0.061333   0.109686
 H 0.3506 0.3043 0.394667   0.110042
 H 0.5012 0.7902 0.2383   0.087881
 H 0.2098 0.711 0.904967   0.088334
 H 0.289 0.4988 0.571633   0.088316
 H 0.7902 0.5012 0.7617   0.087949
 H 0.711 0.2098 0.095033   0.088317
 H 0.4988 0.289 0.428367   0.088266
 H 0.8375 0.9899 0.3398   0.147662
 H 0.0101 0.8476 0.006467   0.147303
 H 0.1524 0.1625 0.673133   0.147645
 H 0.9899 0.8375 0.6602   0.147679
 H 0.8476 0.0101 0.993533   0.147311
 H 0.1625 0.1524 0.326867   0.147622
 H 0.8308 0.1017 0.3998   0.087554
 H 0.8983 0.7291 0.066467   0.087525
 H 0.2709 0.1692 0.733133   0.08797
 H 0.1017 0.8308 0.6002   0.087513
 H 0.7291 0.8983 0.933533   0.087475
 H 0.1692 0.2709 0.266867   0.088062
 H 0.8575 0.3432 0.3143   0.09069
 H 0.6568 0.5143 0.980967   0.09057
 H 0.4857 0.1425 0.647633   0.09082
 H 0.3432 0.8575 0.6857   0.090689
 H 0.5143 0.6568 0.019033   0.090535
 H 0.1425 0.4857 0.352367   0.090855
 H 0.8566 0.2318 0.2547   0.135422
 H 0.7682 0.6248 0.921367   0.135713
 H 0.3752 0.1434 0.588033   0.135979
 H 0.2318 0.8566 0.7453   0.135421
 H 0.6248 0.7682 0.078633   0.135754
 H 0.1434 0.3752 0.411967   0.13594
 H 0.0562 0.4665 0.097   0.090178
 H 0.5335 0.5897 0.763667   0.090027
 H 0.4103 0.9438 0.430333   0.089777
 H 0.4665 0.0562 0.903   0.090159
 H 0.5897 0.5335 0.236333   0.090055
 H 0.9438 0.4103 0.569667   0.089766
 H 0.9256 0.4662 0.0445   0.138913
 H 0.5338 0.4594 0.711167   0.138791
 H 0.5406 0.0744 0.377833   0.138829
 H 0.4662 0.9256 0.9555   0.138869
 H 0.4594 0.5338 0.288833   0.138781
 H 0.0744 0.5406 0.622167   0.138883
 H 0.1507 0.5133 0.9469   0.137549
 H 0.4867 0.6374 0.613567   0.137443
 H 0.3626 0.8493 0.280233   0.137346
 H 0.5133 0.1507 0.0531   0.137526
 H 0.6374 0.4867 0.386433   0.137385
 H 0.8493 0.3626 0.719767   0.137427
 H 0.2809 0.516 0.9987   0.101966
 H 0.484 0.7649 0.665367   0.101586
 H 0.2351 0.7191 0.332033   0.102093
 H 0.516 0.2809 0.0013   0.101983
 H 0.7649 0.484 0.334633   0.101615
 H 0.7191 0.2351 0.667967   0.102047
 H 0.9045 0.2741 0.9738   0.127138
 H 0.7259 0.6304 0.640467   0.127114
 H 0.3696 0.0955 0.307133   0.127231
 H 0.2741 0.9045 0.0262   0.127167
 H 0.6304 0.7259 0.359533   0.127108
 H 0.0955 0.3696 0.692867   0.127209
 H 0.7862 0.1095 0.9323   0.083579
 H 0.8905 0.6767 0.598967   0.083417
 H 0.3233 0.2138 0.265633   0.084179
 H 0.1095 0.7862 0.0677   0.083575
 H 0.6767 0.8905 0.401033   0.083431
 H 0.2138 0.3233 0.734367   0.084169
 H 0.7485 0.3089 0.8391   0.09888
 H 0.6911 0.4396 0.505767   0.099028
 H 0.5604 0.2515 0.172433   0.098944
 H 0.3089 0.7485 0.1609   0.098898
 H 0.4396 0.6911 0.494233   0.099024
 H 0.2515 0.5604 0.827567   0.098929
 H 0.8557 0.4664 0.8836   0.130771
 H 0.5336 0.3893 0.550267   0.131019
 H 0.6107 0.1443 0.216933   0.131524
 H 0.4664 0.8557 0.1164   0.13081
 H 0.3893 0.5336 0.449733   0.131064
 H 0.1443 0.6107 0.783067   0.131439
 C 0.5098 0.6461 0.1781   0.736472
 C 0.3539 0.8637 0.844767   0.736679
 C 0.1363 0.4902 0.511433   0.735572
 C 0.6461 0.5098 0.8219   0.73644
 C 0.8637 0.3539 0.155233   0.736744
 C 0.4902 0.1363 0.488567   0.735539
 C 0.601 0.7531 0.1983   -0.244752
 C 0.2469 0.8479 0.864967   -0.245653
 C 0.1521 0.399 0.531633   -0.244645
 C 0.7531 0.601 0.8017   -0.244773
 C 0.8479 0.2469 0.135033   -0.245653
 C 0.399 0.1521 0.468367   -0.244625
 C 0.7176 0.7936 0.1869   0.033845
 C 0.2064 0.924 0.853567   0.033874
 C 0.076 0.2824 0.520233   0.033173
 C 0.7936 0.7176 0.8131   0.033849
 C 0.924 0.2064 0.146433   0.033926
 C 0.2824 0.076 0.479767   0.033117
 C 0.8037 0.8908 0.2069   -0.246486
 C 0.1092 0.9129 0.873567   -0.247735
 C 0.0871 0.1963 0.540233   -0.246168
 C 0.8908 0.8037 0.7931   -0.246411
 C 0.9129 0.1092 0.126433   -0.247624
 C 0.1963 0.0871 0.459767   -0.246353
 C 0.7793 0.9518 0.2383   0.317513
 C 0.0482 0.8275 0.904967   0.31809
 C 0.1725 0.2207 0.571633   0.31762
 C 0.9518 0.7793 0.7617   0.317565
 C 0.8275 0.0482 0.095033   0.318022
 C 0.2207 0.1725 0.428367   0.317635
 C 0.6664 0.9136 0.2504   -0.27208
 C 0.0864 0.7528 0.917067   -0.272154
 C 0.2472 0.3336 0.583733   -0.272709
 C 0.9136 0.6664 0.7496   -0.272126
 C 0.7528 0.0864 0.082933   -0.272188
 C 0.3336 0.2472 0.416267   -0.272629
 C 0.5777 0.8152 0.2303   0.036792
 C 0.1848 0.7625 0.896967   0.03662
 C 0.2375 0.4223 0.563633   0.036285
 C 0.8152 0.5777 0.7697   0.036719
 C 0.7625 0.1848 0.103033   0.036653
 C 0.4223 0.2375 0.436367   0.036323
 C 0.8521 0.1072 0.2914   0.299182
 C 0.8928 0.7449 0.958067   0.298692
 C 0.2551 0.1479 0.624733   0.299488
 C 0.1072 0.8521 0.7086   0.299119
 C 0.7449 0.8928 0.041933   0.298796
 C 0.1479 0.2551 0.375267   0.299448
 C 0.8416 0.0609 0.3348   -0.236435
 C 0.9391 0.7807 0.001467   -0.235626
 C 0.2193 0.1584 0.668133   -0.236533
 C 0.0609 0.8416 0.6652   -0.236353
 C 0.7807 0.9391 0.998533   -0.235617
 C 0.1584 0.2193 0.331867   -0.236623
 C 0.8378 0.1287 0.3703   0.026153
 C 0.8713 0.7091 0.036967   0.025757
 C 0.2909 0.1622 0.703633   0.025084
 C 0.1287 0.8378 0.6297   0.026101
 C 0.7091 0.8713 0.963033   0.025797
 C 0.1622 0.2909 0.296367   0.025095
 C 0.8439 0.2328 0.3631   -0.223315
 C 0.7672 0.6111 0.029767   -0.22312
 C 0.3889 0.1561 0.696433   -0.223354
 C 0.2328 0.8439 0.6369   -0.223242
 C 0.6111 0.7672 0.970233   -0.223213
 C 0.1561 0.3889 0.303567   -0.223338
 C 0.8526 0.272 0.3197   0.044175
 C 0.728 0.5806 0.986367   0.04456
 C 0.4194 0.1474 0.653033   0.044326
 C 0.272 0.8526 0.6803   0.044122
 C 0.5806 0.728 0.013633   0.044635
 C 0.1474 0.4194 0.346967   0.044304
 C 0.8541 0.2062 0.2842   -0.21759
 C 0.7938 0.6479 0.950867   -0.218613
 C 0.3521 0.1459 0.617533   -0.218709
 C 0.2062 0.8541 0.7158   -0.217487
 C 0.6479 0.7938 0.049133   -0.218785
 C 0.1459 0.3521 0.382467   -0.21864
 C 0.8648 0.3125 0.4021   0.720838
 C 0.6875 0.5523 0.068767   0.721755
 C 0.4477 0.1352 0.735433   0.72058
 C 0.3125 0.8648 0.5979   0.720807
 C 0.5523 0.6875 0.931233   0.721739
 C 0.1352 0.4477 0.264567   0.720627
 C 0.2539 0.4724 0.0879   0.724049
 C 0.5276 0.7815 0.754567   0.725821
 C 0.2185 0.7461 0.421233   0.725152
 C 0.4724 0.2539 0.9121   0.724105
 C 0.7815 0.5276 0.245433   0.725768
 C 0.7461 0.2185 0.578767   0.725148
 C 0.1764 0.4827 0.0534   -0.189917
 C 0.5173 0.6937 0.720067   -0.190811
 C 0.3063 0.8236 0.386733   -0.190079
 C 0.4827 0.1764 0.9466   -0.189854
 C 0.6937 0.5173 0.279933   -0.190746
 C 0.8236 0.3063 0.613267   -0.190207
 C 0.0743 0.4731 0.0664   0.024231
 C 0.5269 0.6012 0.733067   0.024838
 C 0.3988 0.9257 0.399733   0.024976
 C 0.4731 0.0743 0.9336   0.024208
 C 0.6012 0.5269 0.266933   0.024819
 C 0.9257 0.3988 0.600267   0.025018
 C 0.9955 0.473 0.0352   -0.225001
 C 0.527 0.5225 0.701867   -0.225036
 C 0.4775 0.0045 0.368533   -0.225224
 C 0.473 0.9955 0.9648   -0.224901
 C 0.5225 0.527 0.298133   -0.225106
 C 0.0045 0.4775 0.631467   -0.225254
 C 0.0244 0.4831 0.9912   0.286942
 C 0.5169 0.5413 0.657867   0.287202
 C 0.4587 0.9756 0.324533   0.28621
 C 0.4831 0.0244 0.0088   0.286906
 C 0.5413 0.5169 0.342133   0.2872
 C 0.9756 0.4587 0.675467   0.286247
 C 0.1311 0.5015 0.9774   -0.230617
 C 0.4985 0.6296 0.644067   -0.230623
 C 0.3704 0.8689 0.310733   -0.23058
 C 0.5015 0.1311 0.0226   -0.230574
 C 0.6296 0.4985 0.355933   -0.230558
 C 0.8689 0.3704 0.689267   -0.230687
 C 0.2084 0.5025 0.008   0.014472
 C 0.4975 0.7059 0.674667   0.014738
 C 0.2941 0.7916 0.341333   0.014813
 C 0.5025 0.2084 0.992   0.014456
 C 0.7059 0.4975 0.325333   0.014733
 C 0.7916 0.2941 0.658667   0.014834
 C 0.8908 0.3846 0.9326   0.310442
 C 0.6154 0.5062 0.599267   0.309798
 C 0.4938 0.1092 0.265933   0.310026
 C 0.3846 0.8908 0.0674   0.310355
 C 0.5062 0.6154 0.400733   0.30995
 C 0.1092 0.4938 0.734067   0.309963
 C 0.8717 0.2801 0.9469   -0.272031
 C 0.7199 0.5916 0.613567   -0.272564
 C 0.4084 0.1283 0.280233   -0.272048
 C 0.2801 0.8717 0.0531   -0.271954
 C 0.5916 0.7199 0.386433   -0.272618
 C 0.1283 0.4084 0.719767   -0.272073
 C 0.8029 0.1818 0.9214   0.045285
 C 0.8182 0.6211 0.588067   0.045623
 C 0.3789 0.1971 0.254733   0.044571
 C 0.1818 0.8029 0.0786   0.045251
 C 0.6211 0.8182 0.411933   0.045705
 C 0.1971 0.3789 0.745267   0.044521
 C 0.7589 0.1891 0.8802   -0.236198
 C 0.8109 0.5698 0.546867   -0.23682
 C 0.4302 0.2411 0.213533   -0.236572
 C 0.1891 0.7589 0.1198   -0.236233
 C 0.5698 0.8109 0.453133   -0.236841
 C 0.2411 0.4302 0.786467   -0.236516
 C 0.7793 0.3007 0.8663   0.023566
 C 0.6993 0.4786 0.532967   0.023796
 C 0.5214 0.2207 0.199633   0.024327
 C 0.3007 0.7793 0.1337   0.02366
 C 0.4786 0.6993 0.467033   0.023675
 C 0.2207 0.5214 0.800367   0.024354
 C 0.8434 0.3942 0.8926   -0.232893
 C 0.6058 0.4492 0.559267   -0.23285
 C 0.5508 0.1566 0.225933   -0.233884
 C 0.3942 0.8434 0.1074   -0.232933
 C 0.4492 0.6058 0.440733   -0.232853
 C 0.1566 0.5508 0.774067   -0.233841
 C 0.6875 0.086 0.8515   0.747647
 C 0.914 0.6015 0.518167   0.747882
 C 0.3985 0.3125 0.184833   0.748786
 C 0.086 0.6875 0.1485   0.747654
 C 0.6015 0.914 0.481833   0.747879
 C 0.3125 0.3985 0.815167   0.748781
 O 0.5343 0.6066 0.1454   -0.617582
 O 0.3934 0.9277 0.812067   -0.616909
 O 0.0723 0.4657 0.478733   -0.61686
 O 0.6066 0.5343 0.8546   -0.617613
 O 0.9277 0.3934 0.187933   -0.616924
 O 0.4657 0.0723 0.521267   -0.616816
 O 0.4113 0.6018 0.1966   -0.636802
 O 0.3982 0.8095 0.863267   -0.636932
 O 0.1905 0.5887 0.529933   -0.636209
 O 0.6018 0.4113 0.8034   -0.636788
 O 0.8095 0.3982 0.136733   -0.636923
 O 0.5887 0.1905 0.470067   -0.636232
 O 0.871 0.0488 0.2554   -0.27529
 O 0.9512 0.8222 0.922067   -0.274789
 O 0.1778 0.129 0.588733   -0.274878
 O 0.0488 0.871 0.7446   -0.275358
 O 0.8222 0.9512 0.077933   -0.274789
 O 0.129 0.1778 0.411267   -0.274809
 O 0.9151 0.4209 0.39358   -0.577189
 O 0.5791 0.4942 0.060247   -0.578044
 O 0.5058 0.0849 0.726913   -0.576997
 O 0.4209 0.9151 0.60642   -0.577136
 O 0.4942 0.5791 0.939753   -0.577979
 O 0.0849 0.5058 0.273087   -0.577114
 O 0.8388 0.2732 0.44181   -0.613517
 O 0.7268 0.5656 0.108477   -0.613308
 O 0.4344 0.1612 0.775143   -0.612805
 O 0.2732 0.8388 0.55819   -0.613483
 O 0.5656 0.7268 0.891523   -0.613338
 O 0.1612 0.4344 0.224857   -0.61281
 O 0.351 0.4925 0.0755   -0.600055
 O 0.5075 0.8585 0.742167   -0.6007
 O 0.1415 0.649 0.408833   -0.600649
 O 0.4925 0.351 0.9245   -0.600074
 O 0.8585 0.5075 0.257833   -0.600675
 O 0.649 0.1415 0.591167   -0.600658
 O 0.2129 0.4396 0.1264   -0.618862
 O 0.5604 0.7733 0.793067   -0.619308
 O 0.2267 0.7871 0.459733   -0.619509
 O 0.4396 0.2129 0.8736   -0.618982
 O 0.7733 0.5604 0.206933   -0.619286
 O 0.7871 0.2267 0.540267   -0.619409
 O 0.9499 0.4846 0.9577   -0.260117
 O 0.5154 0.4653 0.624367   -0.259343
 O 0.5347 0.0501 0.291033   -0.259206
 O 0.4846 0.9499 0.0423   -0.260109
 O 0.4653 0.5154 0.375633   -0.259419
 O 0.0501 0.5347 0.708967   -0.259136
 O 0.665 0.9895 0.8669   -0.634134
 O 0.0105 0.6755 0.533567   -0.633971
 O 0.3245 0.335 0.200233   -0.635197
 O 0.9895 0.665 0.1331   -0.634101
 O 0.6755 0.0105 0.466433   -0.634029
 O 0.335 0.3245 0.799767   -0.635171
 O 0.6565 0.1005 0.8136   -0.62583
 O 0.8995 0.556 0.480267   -0.626102
 O 0.444 0.3435 0.146933   -0.62615
 O 0.1005 0.6565 0.1864   -0.625869
 O 0.556 0.8995 0.519733   -0.626051
 O 0.3435 0.444 0.853067   -0.626157
