{'_ref': 'TBD', '_srcid': 'CAKYAQ_clean', 'submitters': [{'name': 'Dalar Nazarian Jeff Camp and David Sholl', 'email': 'dalar@gatech.edu jcamp6@gatech.edu'}], '_method': 'VASP DFT with PBE;DDEC'}
data_Er2Cu3H30C24(NO4)6
_symmetry_space_group_name_H-M   'P 1'
_cell_length_a   13.34730000
_cell_length_b   13.34730011
_cell_length_c   14.25990000
_cell_angle_alpha   90.00000000
_cell_angle_beta   90.00000000
_cell_angle_gamma   119.99999973
_symmetry_Int_Tables_number   1
_chemical_formula_structural   Er2Cu3H30C24(NO4)6
_chemical_formula_sum   'Er4 Cu6 H60 C48 N12 O48'
_cell_volume   2200.05713969
_cell_formula_units_Z   2
loop_
 _symmetry_equiv_pos_site_id
 _symmetry_equiv_pos_as_xyz
  1  'x, y, z'
loop_
 _atom_site_label
 _atom_site_fract_x
 _atom_site_fract_y
 _atom_site_fract_z
 _atom_site_charge
 Er 0.33333 0.66666 0.33304   1.458345
 Er 0.66667 0.33334 0.16696   1.458345
 Er 0.66667 0.33334 0.66696   1.458345
 Er 0.33333 0.66666 0.83304   1.458345
 Cu 0.5 0.0 0.5   0.857036
 Cu 0.5 0.5 0.5   0.857021
 Cu 0.0 0.5 0.5   0.85702
 Cu 0.5 0.0 0.0   0.857036
 Cu 0.0 0.5 0.0   0.85702
 Cu 0.5 0.5 0.0   0.85702
 H 0.6729 0.0226 0.5797   0.253569
 H 0.6829 0.8625 0.5202   0.113967
 H 0.705 0.9601 0.4479   0.128407
 H 0.601 0.9133 0.6956   0.141223
 H 0.5395 0.8055 0.6293   0.137655
 H 0.3497 0.3271 0.5797   0.253571
 H 0.1796 0.3171 0.5202   0.113973
 H 0.2551 0.295 0.4479   0.128416
 H 0.3123 0.399 0.6956   0.141223
 H 0.266 0.4605 0.6293   0.137656
 H 0.9774 0.6503 0.5797   0.253573
 H 0.1375 0.8204 0.5202   0.113971
 H 0.0399 0.7449 0.4479   0.128417
 H 0.0867 0.6877 0.6956   0.141223
 H 0.1945 0.734 0.6293   0.137659
 H 0.6503 0.9774 0.9203   0.253569
 H 0.8204 0.1375 0.9798   0.113967
 H 0.7449 0.0399 0.0521   0.128407
 H 0.6877 0.0867 0.8044   0.141224
 H 0.734 0.1945 0.8707   0.137655
 H 0.0226 0.6729 0.9203   0.253571
 H 0.8625 0.6829 0.9798   0.113973
 H 0.9601 0.705 0.0521   0.128416
 H 0.9133 0.601 0.8044   0.141224
 H 0.8055 0.5395 0.8707   0.137656
 H 0.3271 0.3497 0.9203   0.253573
 H 0.3171 0.1796 0.9798   0.113971
 H 0.295 0.2551 0.0521   0.128417
 H 0.399 0.3123 0.8044   0.141224
 H 0.4605 0.266 0.8707   0.137659
 H 0.3271 0.9774 0.4203   0.253569
 H 0.3171 0.1375 0.4798   0.113967
 H 0.295 0.0399 0.5521   0.128407
 H 0.399 0.0867 0.3044   0.141223
 H 0.4605 0.1945 0.3707   0.137655
 H 0.6503 0.6729 0.4203   0.253571
 H 0.8204 0.6829 0.4798   0.113972
 H 0.7449 0.705 0.5521   0.128416
 H 0.6877 0.601 0.3044   0.141224
 H 0.734 0.5395 0.3707   0.137656
 H 0.0226 0.3497 0.4203   0.253573
 H 0.8625 0.1796 0.4798   0.113971
 H 0.9601 0.2551 0.5521   0.128417
 H 0.9133 0.3123 0.3044   0.141224
 H 0.8055 0.266 0.3707   0.137659
 H 0.3497 0.0226 0.0797   0.253569
 H 0.1796 0.8625 0.0202   0.113967
 H 0.2551 0.9601 0.9479   0.128407
 H 0.3123 0.9133 0.1956   0.141224
 H 0.266 0.8055 0.1293   0.137655
 H 0.9774 0.3271 0.0797   0.253571
 H 0.1375 0.3171 0.0202   0.113972
 H 0.0399 0.295 0.9479   0.128416
 H 0.0867 0.399 0.1956   0.141224
 H 0.1945 0.4605 0.1293   0.137656
 H 0.6729 0.6503 0.0797   0.253573
 H 0.6829 0.8204 0.0202   0.113971
 H 0.705 0.7449 0.9479   0.128417
 H 0.601 0.6877 0.1956   0.141224
 H 0.5395 0.734 0.1293   0.137659
 C 0.5467 0.8145 0.4302   0.673088
 C 0.6474 0.9013 0.4886   -0.203313
 C 0.5513 0.8821 0.6411   -0.215418
 C 0.4366 0.8733 0.6617   0.701164
 C 0.2678 0.4533 0.4302   0.673089
 C 0.2539 0.3526 0.4886   -0.20331
 C 0.3308 0.4487 0.6411   -0.215415
 C 0.4367 0.5634 0.6617   0.70116
 C 0.1855 0.7322 0.4302   0.673092
 C 0.0987 0.7461 0.4886   -0.203317
 C 0.1179 0.6692 0.6411   -0.215415
 C 0.1267 0.5633 0.6617   0.701161
 C 0.7322 0.1855 0.0698   0.673088
 C 0.7461 0.0987 0.0114   -0.203313
 C 0.6692 0.1179 0.8589   -0.215419
 C 0.5633 0.1267 0.8383   0.701164
 C 0.8145 0.5467 0.0698   0.673089
 C 0.9013 0.6474 0.0114   -0.20331
 C 0.8821 0.5513 0.8589   -0.215415
 C 0.8733 0.4366 0.8383   0.70116
 C 0.4533 0.2678 0.0698   0.673092
 C 0.3526 0.2539 0.0114   -0.203317
 C 0.4487 0.3308 0.8589   -0.215415
 C 0.5634 0.4367 0.8383   0.701161
 C 0.4533 0.1855 0.5698   0.673088
 C 0.3526 0.0987 0.5114   -0.203313
 C 0.4487 0.1179 0.3589   -0.215419
 C 0.5634 0.1267 0.3383   0.701164
 C 0.7322 0.5467 0.5698   0.673089
 C 0.7461 0.6474 0.5114   -0.20331
 C 0.6692 0.5513 0.3589   -0.215415
 C 0.5633 0.4366 0.3383   0.70116
 C 0.8145 0.2678 0.5698   0.673091
 C 0.9013 0.2539 0.5114   -0.203317
 C 0.8821 0.3308 0.3589   -0.215415
 C 0.8733 0.4367 0.3383   0.701161
 C 0.2678 0.8145 0.9302   0.673088
 C 0.2539 0.9013 0.9886   -0.203313
 C 0.3308 0.8821 0.1411   -0.215419
 C 0.4367 0.8733 0.1617   0.701164
 C 0.1855 0.4533 0.9302   0.673089
 C 0.0987 0.3526 0.9886   -0.20331
 C 0.1179 0.4487 0.1411   -0.215415
 C 0.1267 0.5634 0.1617   0.70116
 C 0.5467 0.7322 0.9302   0.673092
 C 0.6474 0.7461 0.9886   -0.203317
 C 0.5513 0.6692 0.1411   -0.215415
 C 0.4366 0.5633 0.1617   0.701161
 N 0.6096 0.9569 0.55913   -0.239772
 N 0.3473 0.3904 0.55913   -0.23978
 N 0.0431 0.6527 0.55913   -0.23978
 N 0.6527 0.0431 0.94087   -0.239772
 N 0.9569 0.6096 0.94087   -0.23978
 N 0.3904 0.3473 0.94087   -0.23978
 N 0.3904 0.0431 0.44087   -0.239772
 N 0.6527 0.6096 0.44087   -0.23978
 N 0.9569 0.3473 0.44087   -0.23978
 N 0.3473 0.9569 0.05913   -0.239772
 N 0.0431 0.3904 0.05913   -0.23978
 N 0.6096 0.6527 0.05913   -0.23978
 O 0.4499 0.8097 0.44074   -0.660468
 O 0.5599 0.7526 0.37202   -0.616405
 O 0.402 0.9263 0.60909   -0.539544
 O 0.3794 0.8139 0.73003   -0.588783
 O 0.3598 0.5501 0.44074   -0.66048
 O 0.1927 0.4401 0.37202   -0.61642
 O 0.5243 0.598 0.60909   -0.539542
 O 0.4345 0.6206 0.73003   -0.588773
 O 0.1903 0.6402 0.44074   -0.660479
 O 0.2474 0.8073 0.37202   -0.616404
 O 0.0737 0.4757 0.60909   -0.53954
 O 0.1861 0.5655 0.73003   -0.588783
 O 0.6402 0.1903 0.05926   -0.660468
 O 0.8073 0.2474 0.12798   -0.616405
 O 0.4757 0.0737 0.89091   -0.539544
 O 0.5655 0.1861 0.76997   -0.588783
 O 0.8097 0.4499 0.05926   -0.66048
 O 0.7526 0.5599 0.12798   -0.61642
 O 0.9263 0.402 0.89091   -0.539542
 O 0.8139 0.3794 0.76997   -0.588774
 O 0.5501 0.3598 0.05926   -0.660479
 O 0.4401 0.1927 0.12798   -0.616404
 O 0.598 0.5243 0.89091   -0.539539
 O 0.6206 0.4345 0.76997   -0.588783
 O 0.5501 0.1903 0.55926   -0.660468
 O 0.4401 0.2474 0.62798   -0.616405
 O 0.598 0.0737 0.39091   -0.539544
 O 0.6206 0.1861 0.26997   -0.588783
 O 0.6402 0.4499 0.55926   -0.66048
 O 0.8073 0.5599 0.62798   -0.61642
 O 0.4757 0.402 0.39091   -0.539542
 O 0.5655 0.3794 0.26997   -0.588773
 O 0.8097 0.3598 0.55926   -0.660479
 O 0.7526 0.1927 0.62798   -0.616404
 O 0.9263 0.5243 0.39091   -0.53954
 O 0.8139 0.4345 0.26997   -0.588783
 O 0.3598 0.8097 0.94074   -0.660468
 O 0.1927 0.7526 0.87202   -0.616405
 O 0.5243 0.9263 0.10909   -0.539544
 O 0.4345 0.8139 0.23003   -0.588783
 O 0.1903 0.5501 0.94074   -0.66048
 O 0.2474 0.4401 0.87202   -0.61642
 O 0.0737 0.598 0.10909   -0.539542
 O 0.1861 0.6206 0.23003   -0.588774
 O 0.4499 0.6402 0.94074   -0.660479
 O 0.5599 0.8073 0.87202   -0.616404
 O 0.402 0.4757 0.10909   -0.539539
 O 0.3794 0.5655 0.23003   -0.588783
