{'_ref': 'TBD', '_srcid': 'CAKYAQ_clean', 'submitters': [{'name': 'Dalar Nazarian Jeff Camp and David Sholl', 'email': 'dalar@gatech.edu jcamp6@gatech.edu'}], '_method': 'VASP DFT with PBE;DDEC'}
data_ZnH15C11Br(NO)2
_symmetry_space_group_name_H-M   'P 1'
_cell_length_a   10.47960000
_cell_length_b   17.76799968
_cell_length_c   17.76800000
_cell_angle_alpha   120.00000060
_cell_angle_beta   90.00000000
_cell_angle_gamma   90.00000000
_symmetry_Int_Tables_number   1
_chemical_formula_structural   ZnH15C11Br(NO)2
_chemical_formula_sum   'Zn6 H90 C66 Br6 N12 O12'
_cell_volume   2865.18334782
_cell_formula_units_Z   6
loop_
 _symmetry_equiv_pos_site_id
 _symmetry_equiv_pos_as_xyz
  1  'x, y, z'
loop_
 _atom_site_label
 _atom_site_fract_x
 _atom_site_fract_y
 _atom_site_fract_z
 _atom_site_charge
 Zn 0.73715 0.47221 0.54293   0.733806
 Zn 0.40382 0.07072 0.52779   0.734613
 Zn 0.07048 0.45707 0.92928   0.734295
 Zn 0.23715 0.52779 0.45707   0.733806
 Zn 0.90382 0.92928 0.47221   0.734613
 Zn 0.57048 0.54293 0.07072   0.734295
 H 0.8292 0.5549 0.4753   0.266399
 H 0.6233 0.6248 0.4709   0.086569
 H 0.5982 0.5208 0.325   0.060225
 H 0.7572 0.4085 0.2605   0.109773
 H 0.6476 0.3933 0.3116   0.116323
 H 0.7821 0.425 0.3546   0.087862
 H 0.8579 0.5682 0.3515   0.091806
 H 0.7505 0.6357 0.3664   0.10405
 H 0.773 0.5556 0.2734   0.114635
 H 0.7018 0.8973 0.5732   0.078284
 H 0.0217 0.7768 0.4724   0.088435
 H 0.6458 0.7938 0.6121   0.136216
 H 0.9811 0.6778 0.5163   0.120478
 H 0.6949 0.6694 0.6202   0.089539
 H 0.8401 0.6497 0.6224   0.109236
 H 0.49587 0.9204 0.4451   0.266468
 H 0.28997 0.8461 0.3752   0.08682
 H 0.26487 0.8042 0.4792   0.060164
 H 0.42387 0.852 0.5915   0.108974
 H 0.31427 0.9183 0.6067   0.115836
 H 0.44877 0.9296 0.575   0.087174
 H 0.52457 0.7833 0.4318   0.091662
 H 0.41717 0.7307 0.3643   0.104361
 H 0.43967 0.7178 0.4444   0.114272
 H 0.36847 0.6759 0.1027   0.078639
 H 0.68837 0.6956 0.2232   0.088231
 H 0.31247 0.8183 0.2062   0.136689
 H 0.64777 0.8385 0.3222   0.119296
 H 0.36157 0.9508 0.3306   0.089279
 H 0.50677 0.9727 0.3503   0.10932
 H 0.16253 0.5247 0.0796   0.266901
 H 0.95663 0.5291 0.1539   0.086482
 H 0.93153 0.675 0.1958   0.060173
 H 0.09053 0.7395 0.148   0.109441
 H 0.98093 0.6884 0.0817   0.116483
 H 0.11543 0.6454 0.0704   0.087511
 H 0.19123 0.6485 0.2167   0.091807
 H 0.08383 0.6336 0.2693   0.104266
 H 0.10633 0.7266 0.2822   0.114731
 H 0.03513 0.4268 0.3241   0.07828
 H 0.35503 0.5276 0.3044   0.088291
 H 0.97913 0.3879 0.1817   0.136541
 H 0.31443 0.4837 0.1615   0.120277
 H 0.02823 0.3798 0.0492   0.088871
 H 0.17343 0.3776 0.0273   0.108683
 H 0.3292 0.4451 0.5247   0.266399
 H 0.1233 0.3752 0.5291   0.086569
 H 0.0982 0.4792 0.675   0.060225
 H 0.2572 0.5915 0.7395   0.109773
 H 0.1476 0.6067 0.6884   0.116324
 H 0.2821 0.575 0.6454   0.087862
 H 0.3579 0.4318 0.6485   0.091806
 H 0.2505 0.3643 0.6336   0.10405
 H 0.273 0.4444 0.7266   0.114635
 H 0.2018 0.1027 0.4268   0.078284
 H 0.5217 0.2232 0.5276   0.088435
 H 0.1458 0.2062 0.3879   0.136216
 H 0.4811 0.3222 0.4837   0.120478
 H 0.1949 0.3306 0.3798   0.089539
 H 0.3401 0.3503 0.3776   0.109236
 H 0.99587 0.0796 0.5549   0.266468
 H 0.78997 0.1539 0.6248   0.08682
 H 0.76487 0.1958 0.5208   0.060164
 H 0.92387 0.148 0.4085   0.108974
 H 0.81427 0.0817 0.3933   0.115837
 H 0.94877 0.0704 0.425   0.087174
 H 0.02457 0.2167 0.5682   0.091662
 H 0.91717 0.2693 0.6357   0.104361
 H 0.93967 0.2822 0.5556   0.114272
 H 0.86847 0.3241 0.8973   0.078638
 H 0.18837 0.3044 0.7768   0.088231
 H 0.81247 0.1817 0.7938   0.136689
 H 0.14777 0.1615 0.6778   0.119296
 H 0.86157 0.0492 0.6694   0.089279
 H 0.00677 0.0273 0.6497   0.10932
 H 0.66253 0.4753 0.9204   0.266901
 H 0.45663 0.4709 0.8461   0.086482
 H 0.43153 0.325 0.8042   0.060173
 H 0.59053 0.2605 0.852   0.109441
 H 0.48093 0.3116 0.9183   0.116483
 H 0.61543 0.3546 0.9296   0.087511
 H 0.69123 0.3515 0.7833   0.091807
 H 0.58383 0.3664 0.7307   0.104266
 H 0.60633 0.2734 0.7178   0.114731
 H 0.53513 0.5732 0.6759   0.07828
 H 0.85503 0.4724 0.6956   0.088291
 H 0.47913 0.6121 0.8183   0.136541
 H 0.81443 0.5163 0.8385   0.120277
 H 0.52823 0.6202 0.9508   0.08887
 H 0.67343 0.6224 0.9727   0.108684
 C 0.531 0.521 0.4678   0.640172
 C 0.6471 0.5644 0.4511   -0.087501
 C 0.678 0.522 0.3544   0.09163
 C 0.72 0.4287 0.3168   -0.354634
 C 0.7739 0.5754 0.3346   -0.354985
 C 0.7568 0.8512 0.5599   0.164737
 C 0.9462 0.7808 0.5017   0.172378
 C 0.7233 0.7897 0.5847   -0.223308
 C 0.8068 0.7238 0.5677   0.116055
 C 0.9214 0.7207 0.5267   -0.185023
 C 0.7734 0.6538 0.5868   -0.025848
 C 0.19767 0.9468 0.479   0.638228
 C 0.31377 0.8867 0.4356   -0.08755
 C 0.34467 0.8324 0.478   0.090989
 C 0.38667 0.8881 0.5713   -0.352185
 C 0.44057 0.7592 0.4246   -0.354637
 C 0.42347 0.7087 0.1488   0.164446
 C 0.61287 0.7209 0.2192   0.172088
 C 0.38997 0.795 0.2103   -0.223788
 C 0.47347 0.8439 0.2762   0.114505
 C 0.58807 0.806 0.2793   -0.183142
 C 0.44007 0.933 0.3462   -0.024362
 C 0.86433 0.5322 0.0532   0.638411
 C 0.98043 0.5489 0.1133   -0.086839
 C 0.01133 0.6456 0.1676   0.091292
 C 0.05333 0.6832 0.1119   -0.353999
 C 0.10723 0.6654 0.2408   -0.355269
 C 0.09013 0.4401 0.2913   0.165806
 C 0.27953 0.4983 0.2791   0.172568
 C 0.05663 0.4153 0.205   -0.224052
 C 0.14013 0.4323 0.1561   0.114628
 C 0.25473 0.4733 0.194   -0.184892
 C 0.10673 0.4132 0.067   -0.022896
 C 0.031 0.479 0.5322   0.640172
 C 0.1471 0.4356 0.5489   -0.087501
 C 0.178 0.478 0.6456   0.09163
 C 0.22 0.5713 0.6832   -0.354634
 C 0.2739 0.4246 0.6654   -0.354985
 C 0.2568 0.1488 0.4401   0.164737
 C 0.4462 0.2192 0.4983   0.172378
 C 0.2233 0.2103 0.4153   -0.223308
 C 0.3068 0.2762 0.4323   0.116055
 C 0.4214 0.2793 0.4733   -0.185023
 C 0.2734 0.3462 0.4132   -0.025848
 C 0.69767 0.0532 0.521   0.638228
 C 0.81377 0.1133 0.5644   -0.08755
 C 0.84467 0.1676 0.522   0.090989
 C 0.88667 0.1119 0.4287   -0.352186
 C 0.94057 0.2408 0.5754   -0.354637
 C 0.92347 0.2913 0.8512   0.164446
 C 0.11287 0.2791 0.7808   0.172088
 C 0.88997 0.205 0.7897   -0.223788
 C 0.97347 0.1561 0.7238   0.114505
 C 0.08807 0.194 0.7207   -0.183142
 C 0.94007 0.067 0.6538   -0.024362
 C 0.36433 0.4678 0.9468   0.638411
 C 0.48043 0.4511 0.8867   -0.086839
 C 0.51133 0.3544 0.8324   0.091292
 C 0.55333 0.3168 0.8881   -0.353999
 C 0.60723 0.3346 0.7592   -0.355269
 C 0.59013 0.5599 0.7087   0.165806
 C 0.77953 0.5017 0.7209   0.172568
 C 0.55663 0.5847 0.795   -0.224052
 C 0.64013 0.5677 0.8439   0.114628
 C 0.75473 0.5267 0.806   -0.184892
 C 0.60673 0.5868 0.933   -0.022896
 Br 0.74839 0.32032 0.45183   -0.514397
 Br 0.41506 0.13151 0.67968   -0.514285
 Br 0.08172 0.54817 0.86849   -0.514378
 Br 0.24839 0.67968 0.54817   -0.514397
 Br 0.91506 0.86849 0.32032   -0.514285
 Br 0.58172 0.45183 0.13151   -0.514378
 N 0.7565 0.5669 0.5074   -0.370645
 N 0.8639 0.8452 0.5185   -0.306249
 N 0.42317 0.9405 0.4331   -0.371473
 N 0.53057 0.6733 0.1548   -0.305846
 N 0.08983 0.4926 0.0595   -0.372458
 N 0.19723 0.4815 0.3267   -0.306327
 N 0.2565 0.4331 0.4926   -0.370645
 N 0.3639 0.1548 0.4815   -0.306249
 N 0.92317 0.0595 0.5669   -0.371473
 N 0.03057 0.3267 0.8452   -0.305846
 N 0.58983 0.5074 0.9405   -0.372458
 N 0.69723 0.5185 0.6733   -0.306327
 O 0.5411 0.4883 0.5156   -0.568355
 O 0.4323 0.5207 0.428   -0.588043
 O 0.20777 0.0273 0.5117   -0.567318
 O 0.09897 0.9073 0.4793   -0.587342
 O 0.87443 0.4844 0.9727   -0.567443
 O 0.76563 0.572 0.0927   -0.586937
 O 0.0411 0.5117 0.4844   -0.568355
 O 0.9323 0.4793 0.572   -0.588043
 O 0.70777 0.9727 0.4883   -0.567318
 O 0.59897 0.0927 0.5207   -0.587342
 O 0.37443 0.5156 0.0273   -0.567443
 O 0.26563 0.428 0.9073   -0.586937
