{'_ref': 'TBD', '_srcid': 'CAKYAQ_clean', 'submitters': [{'name': 'Dalar Nazarian Jeff Camp and David Sholl', 'email': 'dalar@gatech.edu jcamp6@gatech.edu'}], '_method': 'VASP DFT with PBE;DDEC'}
data_ZnH15C11N2ClO2
_symmetry_space_group_name_H-M   'P 1'
_cell_length_a   10.56170000
_cell_length_b   17.69099964
_cell_length_c   17.69100000
_cell_angle_alpha   120.00000068
_cell_angle_beta   90.00000000
_cell_angle_gamma   90.00000000
_symmetry_Int_Tables_number   1
_chemical_formula_structural   ZnH15C11N2ClO2
_chemical_formula_sum   'Zn6 H90 C66 N12 Cl6 O12'
_cell_volume   2862.65632582
_cell_formula_units_Z   6
loop_
 _symmetry_equiv_pos_site_id
 _symmetry_equiv_pos_as_xyz
  1  'x, y, z'
loop_
 _atom_site_label
 _atom_site_fract_x
 _atom_site_fract_y
 _atom_site_fract_z
 _atom_site_charge
 Zn 0.88236 0.54039 0.071   0.77797
 Zn 0.54903 0.53061 0.45961   0.777848
 Zn 0.21569 0.929 0.46939   0.778926
 Zn 0.38236 0.45961 0.929   0.77797
 Zn 0.04903 0.46939 0.54039   0.777848
 Zn 0.71569 0.071 0.53061   0.778926
 H 0.974 0.4689 0.9188   0.267731
 H 0.1674 0.4679 0.6922   0.089427
 H 0.8497 0.5725 0.6773   0.075212
 H 0.7995 0.6145 0.8186   0.13911
 H 0.1261 0.5072 0.8345   0.12555
 H 0.9908 0.6171 0.9735   0.109768
 H 0.8466 0.6184 0.9535   0.091186
 H 0.7731 0.4706 0.8456   0.086433
 H 0.7398 0.3244 0.8054   0.063913
 H 0.8845 0.2542 0.8511   0.113451
 H 0.7924 0.3176 0.9254   0.114077
 H 0.9323 0.3462 0.9234   0.092061
 H 0.9972 0.3524 0.7834   0.087998
 H 0.8879 0.3539 0.7241   0.107436
 H 0.921 0.267 0.7231   0.118045
 H 0.64067 0.4499 0.5311   0.26838
 H 0.83407 0.2243 0.5321   0.088885
 H 0.51637 0.1048 0.4275   0.075027
 H 0.46617 0.2041 0.3855   0.139276
 H 0.79277 0.3273 0.4928   0.126238
 H 0.65747 0.3564 0.3829   0.109474
 H 0.51327 0.3351 0.3816   0.090681
 H 0.43977 0.375 0.5294   0.086233
 H 0.40647 0.481 0.6756   0.064068
 H 0.55117 0.5969 0.7458   0.113595
 H 0.45907 0.6078 0.6824   0.11487
 H 0.59897 0.5772 0.6538   0.092489
 H 0.66387 0.431 0.6476   0.088283
 H 0.55457 0.3702 0.6461   0.106743
 H 0.58767 0.4561 0.733   0.117533
 H 0.30733 0.0812 0.5501   0.267716
 H 0.50073 0.3078 0.7757   0.088951
 H 0.18303 0.3227 0.8952   0.074716
 H 0.13283 0.1814 0.7959   0.13954
 H 0.45943 0.1655 0.6727   0.127297
 H 0.32413 0.0265 0.6436   0.110159
 H 0.17993 0.0465 0.6649   0.091135
 H 0.10643 0.1544 0.625   0.085851
 H 0.07313 0.1946 0.519   0.064135
 H 0.21783 0.1489 0.4031   0.113297
 H 0.12573 0.0746 0.3922   0.113629
 H 0.26563 0.0766 0.4228   0.091516
 H 0.33053 0.2166 0.569   0.087635
 H 0.22123 0.2759 0.6298   0.106724
 H 0.25433 0.2769 0.5439   0.117665
 H 0.474 0.5311 0.0812   0.267731
 H 0.6674 0.5321 0.3078   0.089427
 H 0.3497 0.4275 0.3227   0.075212
 H 0.2995 0.3855 0.1814   0.13911
 H 0.6261 0.4928 0.1655   0.12555
 H 0.4908 0.3829 0.0265   0.109769
 H 0.3466 0.3816 0.0465   0.091186
 H 0.2731 0.5294 0.1544   0.086433
 H 0.2398 0.6756 0.1946   0.063913
 H 0.3845 0.7458 0.1489   0.113452
 H 0.2924 0.6824 0.0746   0.114077
 H 0.4323 0.6538 0.0766   0.092061
 H 0.4972 0.6476 0.2166   0.087998
 H 0.3879 0.6461 0.2759   0.107436
 H 0.421 0.733 0.2769   0.118045
 H 0.14067 0.5501 0.4689   0.26838
 H 0.33407 0.7757 0.4679   0.088885
 H 0.01637 0.8952 0.5725   0.075027
 H 0.96617 0.7959 0.6145   0.139276
 H 0.29277 0.6727 0.5072   0.126238
 H 0.15747 0.6436 0.6171   0.109475
 H 0.01327 0.6649 0.6184   0.090681
 H 0.93977 0.625 0.4706   0.086233
 H 0.90647 0.519 0.3244   0.064068
 H 0.05117 0.4031 0.2542   0.113596
 H 0.95907 0.3922 0.3176   0.11487
 H 0.09897 0.4228 0.3462   0.092489
 H 0.16387 0.569 0.3524   0.088283
 H 0.05457 0.6298 0.3539   0.106743
 H 0.08767 0.5439 0.267   0.117533
 H 0.80733 0.9188 0.4499   0.267716
 H 0.000729999999997 0.6922 0.2243   0.088951
 H 0.68303 0.6773 0.1048   0.074716
 H 0.63283 0.8186 0.2041   0.13954
 H 0.95943 0.8345 0.3273   0.127297
 H 0.82413 0.9735 0.3564   0.11016
 H 0.67993 0.9535 0.3351   0.091135
 H 0.60643 0.8456 0.375   0.085851
 H 0.57313 0.8054 0.481   0.064135
 H 0.71783 0.8511 0.5969   0.113297
 H 0.62573 0.9254 0.6078   0.113629
 H 0.76563 0.9234 0.5772   0.091516
 H 0.83053 0.7834 0.431   0.087635
 H 0.72123 0.7241 0.3702   0.106724
 H 0.75433 0.7231 0.4561   0.117665
 C 0.0925 0.4971 0.7178   0.177091
 C 0.9054 0.5587 0.7093   0.166502
 C 0.8743 0.5842 0.7943   -0.223588
 C 0.9554 0.5644 0.8435   0.114733
 C 0.068 0.5205 0.8034   -0.186338
 C 0.923 0.5833 0.9342   -0.026122
 C 0.6769 0.4681 0.9459   0.644985
 C 0.7938 0.45051 0.88661   -0.086826
 C 0.82 0.3526 0.833   0.086768
 C 0.861 0.3142 0.8883   -0.352814
 C 0.9155 0.3293 0.759   -0.358506
 C 0.75917 0.2207 0.5029   0.178422
 C 0.57207 0.1506 0.4413   0.167945
 C 0.54097 0.2101 0.4158   -0.224063
 C 0.62207 0.2791 0.4356   0.113422
 C 0.73467 0.2829 0.4795   -0.187027
 C 0.58967 0.3509 0.4167   -0.024712
 C 0.34357 0.4778 0.5319   0.645339
 C 0.46047 0.4361 0.54949   -0.086961
 C 0.48667 0.4804 0.6474   0.086837
 C 0.52767 0.5741 0.6858   -0.35448
 C 0.58217 0.4297 0.6707   -0.357722
 C 0.42583 0.2822 0.7793   0.178347
 C 0.23873 0.2907 0.8494   0.168242
 C 0.20763 0.2057 0.7899   -0.22531
 C 0.28873 0.1565 0.7209   0.115485
 C 0.40133 0.1966 0.7171   -0.188418
 C 0.25633 0.0658 0.6491   -0.026854
 C 0.01023 0.0541 0.5222   0.645054
 C 0.12713 0.11339 0.5639   -0.085304
 C 0.15333 0.167 0.5196   0.085258
 C 0.19433 0.1117 0.4259   -0.35141
 C 0.24883 0.241 0.5703   -0.356654
 C 0.5925 0.5029 0.2822   0.177091
 C 0.4054 0.4413 0.2907   0.166502
 C 0.3743 0.4158 0.2057   -0.223588
 C 0.4554 0.4356 0.1565   0.114733
 C 0.568 0.4795 0.1966   -0.186338
 C 0.423 0.4167 0.0658   -0.026122
 C 0.1769 0.5319 0.0541   0.644985
 C 0.2938 0.54949 0.11339   -0.086826
 C 0.32 0.6474 0.167   0.086768
 C 0.361 0.6858 0.1117   -0.352815
 C 0.4155 0.6707 0.241   -0.358506
 C 0.25917 0.7793 0.4971   0.178422
 C 0.07207 0.8494 0.5587   0.167945
 C 0.04097 0.7899 0.5842   -0.224063
 C 0.12207 0.7209 0.5644   0.113422
 C 0.23467 0.7171 0.5205   -0.187027
 C 0.08967 0.6491 0.5833   -0.024712
 C 0.84357 0.5222 0.4681   0.645339
 C 0.96047 0.5639 0.45051   -0.086961
 C 0.98667 0.5196 0.3526   0.086837
 C 0.02767 0.4259 0.3142   -0.35448
 C 0.08217 0.5703 0.3293   -0.357722
 C 0.92583 0.7178 0.2207   0.178347
 C 0.73873 0.7093 0.1506   0.168242
 C 0.70763 0.7943 0.2101   -0.22531
 C 0.78873 0.8435 0.2791   0.115485
 C 0.90133 0.8034 0.2829   -0.188418
 C 0.75633 0.9342 0.3509   -0.026854
 C 0.51023 0.9459 0.4778   0.645054
 C 0.62713 0.88661 0.4361   -0.085304
 C 0.65333 0.833 0.4804   0.085258
 C 0.69433 0.8883 0.5741   -0.351411
 C 0.74883 0.759 0.4297   -0.356654
 N 0.0109 0.5152 0.6701   -0.317581
 N 0.9032 0.50247 0.93933   -0.377683
 N 0.67757 0.1549 0.4848   -0.319163
 N 0.56987 0.43686 0.49753   -0.377862
 N 0.34423 0.3299 0.8451   -0.318957
 N 0.23653 0.06067 0.56314   -0.377943
 N 0.5109 0.4848 0.3299   -0.317581
 N 0.4032 0.49753 0.06067   -0.377683
 N 0.17757 0.8451 0.5152   -0.319163
 N 0.06987 0.56314 0.50247   -0.377862
 N 0.84423 0.6701 0.1549   -0.318957
 N 0.73653 0.93933 0.43686   -0.377943
 Cl 0.88118 0.45509 0.13107   -0.552791
 Cl 0.54785 0.67598 0.54491   -0.552849
 Cl 0.21451 0.86893 0.32402   -0.553021
 Cl 0.38118 0.54491 0.86893   -0.552791
 Cl 0.04785 0.32402 0.45509   -0.552849
 Cl 0.71451 0.13107 0.67598   -0.553021
 O 0.688 0.51491 0.02642   -0.572456
 O 0.5765 0.43361 0.90608   -0.594469
 O 0.35467 0.51151 0.48509   -0.572441
 O 0.24317 0.47247 0.56639   -0.594651
 O 0.02133 0.97358 0.48849   -0.573047
 O 0.90983 0.09392 0.52753   -0.594294
 O 0.188 0.48509 0.97358   -0.572456
 O 0.0765 0.56639 0.09392   -0.594469
 O 0.85467 0.48849 0.51491   -0.572441
 O 0.74317 0.52753 0.43361   -0.594651
 O 0.52133 0.02642 0.51151   -0.573047
 O 0.40983 0.90608 0.47247   -0.594294
