{'_ref': 'TBD', '_srcid': 'CAKYAQ_clean', 'submitters': [{'name': 'Dalar Nazarian Jeff Camp and David Sholl', 'email': 'dalar@gatech.edu jcamp6@gatech.edu'}], '_method': 'VASP DFT with PBE;DDEC'}
data_CuH4C6N5
_symmetry_space_group_name_H-M   'P 1'
_cell_length_a   5.72660000
_cell_length_b   9.94120012
_cell_length_c   16.47400000
_cell_angle_alpha   90.00000000
_cell_angle_beta   90.00000000
_cell_angle_gamma   94.29399761
_symmetry_Int_Tables_number   1
_chemical_formula_structural   CuH4C6N5
_chemical_formula_sum   'Cu4 H16 C24 N20'
_cell_volume   935.220333572
_cell_formula_units_Z   4
loop_
 _symmetry_equiv_pos_site_id
 _symmetry_equiv_pos_as_xyz
  1  'x, y, z'
loop_
 _atom_site_label
 _atom_site_fract_x
 _atom_site_fract_y
 _atom_site_fract_z
 _atom_site_charge
 Cu 0.24641 0.51161 0.5673   0.210035
 Cu 0.75359 0.98839 0.0673   0.210035
 Cu 0.75359 0.48839 0.4327   0.210034
 Cu 0.24641 0.01161 0.9327   0.210034
 H 0.565 0.303 0.59   0.062672
 H 0.742 0.185 0.688   0.128861
 H 0.307 0.324 0.847   0.126574
 H 0.131 0.437 0.742   0.079007
 H 0.435 0.197 0.09   0.062672
 H 0.258 0.315 0.188   0.128861
 H 0.693 0.176 0.347   0.126574
 H 0.869 0.063 0.242   0.079007
 H 0.435 0.697 0.41   0.062672
 H 0.258 0.815 0.312   0.128863
 H 0.693 0.676 0.153   0.126574
 H 0.869 0.563 0.258   0.07901
 H 0.565 0.803 0.91   0.062672
 H 0.742 0.685 0.812   0.128863
 H 0.307 0.824 0.653   0.126574
 H 0.131 0.937 0.758   0.07901
 C 0.5156 0.3019 0.6425   0.142599
 C 0.6251 0.2322 0.702   -0.166506
 C 0.5435 0.2372 0.781   0.039541
 C 0.3574 0.3125 0.7962   -0.157102
 C 0.2586 0.3803 0.7335   0.130299
 C 0.6654 0.1674 0.8454   0.301292
 C 0.4844 0.1981 0.1425   0.142598
 C 0.3749 0.2678 0.202   -0.166506
 C 0.4565 0.2628 0.281   0.039541
 C 0.6426 0.1875 0.2962   -0.157102
 C 0.7414 0.1197 0.2335   0.130299
 C 0.3346 0.3326 0.3454   0.301292
 C 0.4844 0.6981 0.3575   0.142599
 C 0.3749 0.7678 0.298   -0.166505
 C 0.4565 0.7628 0.219   0.039541
 C 0.6426 0.6875 0.2038   -0.157101
 C 0.7414 0.6197 0.2665   0.130298
 C 0.3346 0.8326 0.1546   0.301292
 C 0.5156 0.8019 0.8575   0.142598
 C 0.6251 0.7322 0.798   -0.166505
 C 0.5435 0.7372 0.719   0.039541
 C 0.3574 0.8125 0.7038   -0.157101
 C 0.2586 0.8803 0.7665   0.130298
 C 0.6654 0.6674 0.6546   0.301292
 N 0.3352 0.3762 0.6565   -0.277659
 N 0.5735 0.1251 0.91665   -0.27535
 N 0.7517 0.0713 0.95581   -0.019376
 N 0.9395 0.0829 0.9083   0.01328
 N 0.8887 0.1411 0.8383   -0.338168
 N 0.6648 0.1238 0.1565   -0.277659
 N 0.4265 0.3749 0.41665   -0.27535
 N 0.2483 0.4287 0.45581   -0.019376
 N 0.0605 0.4171 0.4083   0.01328
 N 0.1113 0.3589 0.3383   -0.338168
 N 0.6648 0.6238 0.3435   -0.277659
 N 0.4265 0.8749 0.08335   -0.27535
 N 0.2483 0.9287 0.04419   -0.019376
 N 0.0605 0.9171 0.0917   0.01328
 N 0.1113 0.8589 0.1617   -0.338168
 N 0.3352 0.8762 0.8435   -0.277659
 N 0.5735 0.6251 0.58335   -0.27535
 N 0.7517 0.5713 0.54419   -0.019376
 N 0.9395 0.5829 0.5917   0.01328
 N 0.8887 0.6411 0.6617   -0.338168
