{'_ref': 'TBD', '_srcid': 'CAKYAQ_clean', 'submitters': [{'name': 'Dalar Nazarian Jeff Camp and David Sholl', 'email': 'dalar@gatech.edu jcamp6@gatech.edu'}], '_method': 'VASP DFT with PBE;DDEC'}
data_La2H4C12S2NClO11
_symmetry_space_group_name_H-M   'P 1'
_cell_length_a   6.53660000
_cell_length_b   12.82699985
_cell_length_c   16.09600000
_cell_angle_alpha   90.34000222
_cell_angle_beta   90.00000000
_cell_angle_gamma   90.00000000
_symmetry_Int_Tables_number   1
_chemical_formula_structural   La2H4C12S2NClO11
_chemical_formula_sum   'La4 H8 C24 S4 N2 Cl2 O22'
_cell_volume   1349.54482998
_cell_formula_units_Z   2
loop_
 _symmetry_equiv_pos_site_id
 _symmetry_equiv_pos_as_xyz
  1  'x, y, z'
loop_
 _atom_site_label
 _atom_site_fract_x
 _atom_site_fract_y
 _atom_site_fract_z
 _atom_site_charge
 La 0.92829 0.01706 0.60585   2.132864
 La 0.32122 0.21595 0.73133   2.167103
 La 0.42829 0.98294 0.39415   2.132865
 La 0.82122 0.78405 0.26867   2.167103
 H 0.9177 0.1071 0.0662   0.130266
 H 0.9422 0.1615 0.9211   0.114714
 H 0.9479 0.4625 0.6402   0.118734
 H 0.9336 0.6158 0.5625   0.122358
 H 0.4177 0.8929 0.9338   0.130266
 H 0.4422 0.8385 0.0789   0.114714
 H 0.4479 0.5375 0.3598   0.118734
 H 0.4336 0.3842 0.4375   0.122358
 C 0.9509 0.2613 0.5689   0.765718
 C 0.9014 0.8973 0.1077   0.670888
 C 0.9208 0.0607 0.0216   -0.075481
 C 0.9469 0.0123 0.7929   0.762926
 C 0.9286 0.0098 0.8843   -0.231981
 C 0.9143 0.9547 0.0303   -0.172234
 C 0.9327 0.0924 0.9378   -0.002772
 C 0.9303 0.5307 0.4581   -0.141006
 C 0.913 0.6103 0.389   0.68537
 C 0.9389 0.3678 0.5376   -0.237669
 C 0.9416 0.4616 0.5825   -0.004088
 C 0.9349 0.5494 0.5389   -0.087838
 C 0.4509 0.7387 0.4311   0.765718
 C 0.4014 0.1027 0.8923   0.670892
 C 0.4208 0.9393 0.9784   -0.075481
 C 0.4469 0.9877 0.2071   0.762926
 C 0.4286 0.9902 0.1157   -0.23198
 C 0.4143 0.0453 0.9697   -0.172232
 C 0.4327 0.9076 0.0622   -0.002768
 C 0.4303 0.4693 0.5419   -0.141004
 C 0.413 0.3897 0.611   0.685372
 C 0.4389 0.6322 0.4624   -0.237668
 C 0.4416 0.5384 0.4175   -0.004085
 C 0.4349 0.4506 0.4611   -0.087839
 S 0.9147 0.89299 0.93437   0.230283
 S 0.9264 0.39513 0.43427   0.170912
 S 0.4147 0.10701 0.06563   0.230279
 S 0.4264 0.60487 0.56573   0.170909
 N 0.4794 0.0703 0.5994   0.811025
 N 0.9794 0.9297 0.4006   0.811025
 Cl 0.742 0.381 0.887   -0.340747
 Cl 0.242 0.619 0.113   -0.340768
 O 0.2852 0.0865 0.6085   -0.697923
 O 0.9901 0.2445 0.6446   -0.736702
 O 0.9218 0.1862 0.5185   -0.724812
 O 0.9145 0.9439 0.1761   -0.666493
 O 0.8707 0.7979 0.1041   -0.66917
 O 0.5994 0.1004 0.6591   -0.584256
 O 0.0096 0.0958 0.7575   -0.780337
 O 0.9317 0.7039 0.409   -0.699898
 O 0.5565 0.0275 0.5354   -0.695635
 O 0.8983 0.9325 0.7505   -0.684988
 O 0.8855 0.5807 0.3184   -0.649126
 O 0.7852 0.9135 0.3915   -0.697923
 O 0.4901 0.7555 0.3554   -0.736702
 O 0.4218 0.8138 0.4815   -0.724812
 O 0.4145 0.0561 0.8239   -0.666492
 O 0.3707 0.2021 0.8959   -0.669171
 O 0.0994 0.8996 0.3409   -0.584256
 O 0.5096 0.9042 0.2425   -0.780337
 O 0.4317 0.2961 0.591   -0.699898
 O 0.0565 0.9725 0.4646   -0.695635
 O 0.3983 0.0675 0.2495   -0.684988
 O 0.3855 0.4193 0.6816   -0.649126
