{'_ref': 'TBD', '_srcid': 'CAKYAQ_clean', 'submitters': [{'name': 'Dalar Nazarian Jeff Camp and David Sholl', 'email': 'dalar@gatech.edu jcamp6@gatech.edu'}], '_method': 'VASP DFT with PBE;DDEC'}
data_LaH12(C3O2)3
_symmetry_space_group_name_H-M   'P 1'
_cell_length_a   8.75440028
_cell_length_b   10.00369959
_cell_length_c   11.78950000
_cell_angle_alpha   74.69499856
_cell_angle_beta   69.84799734
_cell_angle_gamma   86.18199766
_symmetry_Int_Tables_number   1
_chemical_formula_structural   LaH12(C3O2)3
_chemical_formula_sum   'La2 H24 C18 O12'
_cell_volume   934.56131048
_cell_formula_units_Z   2
loop_
 _symmetry_equiv_pos_site_id
 _symmetry_equiv_pos_as_xyz
  1  'x, y, z'
loop_
 _atom_site_label
 _atom_site_fract_x
 _atom_site_fract_y
 _atom_site_fract_z
 _atom_site_charge
 La 0.25466 0.52247 0.48761   2.147325
 La 0.74534 0.47753 0.51239   2.147323
 H 0.7667 0.7004 0.1364   0.133467
 H 0.7938 0.5406 0.1625   0.128406
 H 0.6265 0.6907 0.0052   0.067032
 H 0.6271 0.5284 0.0413   0.066774
 H 0.913 0.5396 0.9403   0.061912
 H 0.9046 0.7015 0.8978   0.06735
 H 0.7565 0.6862 0.7748   0.128061
 H 0.7368 0.5254 0.8278   0.137229
 H 0.2756 0.033 0.3995   0.111089
 H 0.2402 0.0199 0.2812   0.121503
 H 0.0218 0.1218 0.4017   0.062385
 H 0.9646 0.9785 0.3977   0.063793
 H 0.2333 0.2996 0.8636   0.133467
 H 0.2062 0.4594 0.8375   0.128407
 H 0.3735 0.3093 0.9948   0.067032
 H 0.3729 0.4716 0.9587   0.066772
 H 0.087 0.4604 0.0597   0.061913
 H 0.0954 0.2985 0.1022   0.06735
 H 0.2435 0.3138 0.2252   0.128061
 H 0.2632 0.4746 0.1722   0.137229
 H 0.7244 0.967 0.6005   0.111087
 H 0.7598 0.9801 0.7188   0.121504
 H 0.9782 0.8782 0.5983   0.062385
 H 0.0354 0.0215 0.6023   0.063792
 C 0.5659 0.5881 0.261   0.793964
 C 0.7173 0.6119 0.1475   -0.35296
 C 0.6902 0.6112 0.0268   -0.065681
 C 0.8451 0.6152 0.9174   -0.059573
 C 0.8116 0.6035 0.8031   -0.361628
 C 0.956 0.5855 0.6945   0.763854
 C 0.2361 0.8322 0.4046   0.736884
 C 0.2075 0.986 0.3714   -0.318818
 C 0.032 0.0223 0.4288   -0.075093
 C 0.4341 0.4119 0.739   0.793964
 C 0.2827 0.3881 0.8525   -0.352961
 C 0.3098 0.3888 0.9732   -0.065681
 C 0.1549 0.3848 0.0826   -0.059574
 C 0.1884 0.3965 0.1969   -0.361628
 C 0.044 0.4145 0.3055   0.763854
 C 0.7639 0.1678 0.5954   0.736884
 C 0.7925 0.014 0.6286   -0.318818
 C 0.968 0.9777 0.5712   -0.07509
 O 0.4272 0.6074 0.2505   -0.643466
 O 0.5773 0.5461 0.37   -0.852148
 O 0.0986 0.6178 0.6831   -0.638147
 O 0.9332 0.5357 0.61178   -0.817507
 O 0.1373 0.7498 0.3995   -0.708042
 O 0.3568 0.7855 0.4376   -0.697963
 O 0.5728 0.3926 0.7495   -0.643466
 O 0.4227 0.4539 0.63   -0.852148
 O 0.9014 0.3822 0.3169   -0.638147
 O 0.0668 0.4643 0.38822   -0.817507
 O 0.8627 0.2502 0.6005   -0.708042
 O 0.6432 0.2145 0.5624   -0.697963
