{'_ref': 'TBD', '_srcid': 'CAKYAQ_clean', 'submitters': [{'name': 'Dalar Nazarian Jeff Camp and David Sholl', 'email': 'dalar@gatech.edu jcamp6@gatech.edu'}], '_method': 'VASP DFT with PBE;DDEC'}
data_Mn2H8(C2N)7
_symmetry_space_group_name_H-M   'P 1'
_cell_length_a   7.36200000
_cell_length_b   13.90799978
_cell_length_c   18.01500000
_cell_angle_alpha   90.00000000
_cell_angle_beta   90.00000000
_cell_angle_gamma   90.51999889
_symmetry_Int_Tables_number   1
_chemical_formula_structural   Mn2H8(C2N)7
_chemical_formula_sum   'Mn8 H32 C56 N28'
_cell_volume   1844.4923935
_cell_formula_units_Z   4
loop_
 _symmetry_equiv_pos_site_id
 _symmetry_equiv_pos_as_xyz
  1  'x, y, z'
loop_
 _atom_site_label
 _atom_site_fract_x
 _atom_site_fract_y
 _atom_site_fract_z
 _atom_site_charge
 Mn 0.10103 0.92 0.68591   1.026315
 Mn 0.60571 0.18751 0.70829   -0.074456
 Mn 0.89897 0.58 0.18591   1.026315
 Mn 0.39429 0.31249 0.20829   -0.074456
 Mn 0.89897 0.08 0.31409   1.026313
 Mn 0.39429 0.81249 0.29171   -0.074457
 Mn 0.10103 0.42 0.81409   1.026313
 Mn 0.60571 0.68751 0.79171   -0.074457
 H 0.5816 0.7284 0.6143   0.094455
 H 0.5779 0.4781 0.7107   0.093229
 H 0.527 0.6619 0.5021   0.126832
 H 0.5255 0.4031 0.5998   0.109388
 H 0.0845 0.8222 0.8423   0.085317
 H 0.0802 0.0966 0.8018   0.086544
 H 0.0291 0.8448 0.9638   0.136789
 H 0.0252 0.1287 0.9243   0.127479
 H 0.4184 0.7716 0.1143   0.094455
 H 0.4221 0.0219 0.2107   0.093229
 H 0.473 0.8381 0.0021   0.126832
 H 0.4745 0.0969 0.0998   0.109388
 H 0.9155 0.6778 0.3423   0.085317
 H 0.9198 0.4034 0.3018   0.086544
 H 0.9709 0.6552 0.4638   0.136789
 H 0.9748 0.3713 0.4243   0.127479
 H 0.4184 0.2716 0.3857   0.094455
 H 0.4221 0.5219 0.2893   0.093229
 H 0.473 0.3381 0.4979   0.126831
 H 0.4745 0.5969 0.4002   0.109387
 H 0.9155 0.1778 0.1577   0.085317
 H 0.9198 0.9034 0.1982   0.086544
 H 0.9709 0.1552 0.0362   0.136791
 H 0.9748 0.8713 0.0757   0.127481
 H 0.5816 0.2284 0.8857   0.094455
 H 0.5779 0.9781 0.7893   0.093229
 H 0.527 0.1619 0.9979   0.126832
 H 0.5255 0.9031 0.9002   0.109387
 H 0.0845 0.3222 0.6577   0.085317
 H 0.0802 0.5966 0.6982   0.086544
 H 0.0291 0.3448 0.5362   0.136792
 H 0.0252 0.6287 0.5757   0.127481
 C 0.7796 0.0843 0.6831   0.187265
 C 0.4063 0.0973 0.6829   0.188662
 C 0.4259 0.7747 0.7457   0.185867
 C 0.7978 0.7601 0.7374   0.18727
 C 0.5679 0.6619 0.6115   0.113694
 C 0.5664 0.5157 0.6683   0.132958
 C 0.5364 0.6225 0.5436   -0.180386
 C 0.5352 0.4697 0.6013   -0.170616
 C 0.5181 0.5226 0.5361   0.075167
 C 0.0692 0.8849 0.8589   0.180472
 C 0.0672 0.0454 0.8346   0.18543
 C 0.0376 0.8976 0.9322   -0.190414
 C 0.0352 0.0652 0.9088   -0.198217
 C 0.0178 0.991 0.9604   0.084945
 C 0.2204 0.4157 0.1831   0.187265
 C 0.5937 0.4027 0.1829   0.188662
 C 0.5741 0.7253 0.2457   0.185867
 C 0.2022 0.7399 0.2374   0.18727
 C 0.4321 0.8381 0.1115   0.113694
 C 0.4336 0.9843 0.1683   0.132958
 C 0.4636 0.8775 0.0436   -0.180386
 C 0.4648 0.0303 0.1013   -0.170616
 C 0.4819 0.9774 0.0361   0.075167
 C 0.9308 0.6151 0.3589   0.180472
 C 0.9328 0.4546 0.3346   0.18543
 C 0.9624 0.6024 0.4322   -0.190414
 C 0.9648 0.4348 0.4088   -0.198217
 C 0.9822 0.509 0.4604   0.084945
 C 0.2204 0.9157 0.3169   0.187265
 C 0.5937 0.9027 0.3171   0.188661
 C 0.5741 0.2253 0.2543   0.185866
 C 0.2022 0.2399 0.2626   0.187269
 C 0.4321 0.3381 0.3885   0.113694
 C 0.4336 0.4843 0.3317   0.132958
 C 0.4636 0.3775 0.4564   -0.180386
 C 0.4648 0.5303 0.3987   -0.170616
 C 0.4819 0.4774 0.4639   0.075167
 C 0.9308 0.1151 0.1411   0.180472
 C 0.9328 0.9546 0.1654   0.185431
 C 0.9624 0.1024 0.0678   -0.190415
 C 0.9648 0.9348 0.0912   -0.198218
 C 0.9822 0.009 0.0396   0.084947
 C 0.7796 0.5843 0.8169   0.187265
 C 0.4063 0.5973 0.8171   0.188661
 C 0.4259 0.2747 0.7543   0.185866
 C 0.7978 0.2601 0.7626   0.187269
 C 0.5679 0.1619 0.8885   0.113694
 C 0.5664 0.0157 0.8317   0.132958
 C 0.5364 0.1225 0.9564   -0.180386
 C 0.5352 0.9697 0.8987   -0.170616
 C 0.5181 0.0226 0.9639   0.075167
 C 0.0692 0.3849 0.6411   0.180473
 C 0.0672 0.5454 0.6654   0.185431
 C 0.0376 0.3976 0.5678   -0.190415
 C 0.0352 0.5652 0.5912   -0.198218
 C 0.0178 0.491 0.5396   0.084947
 N 0.6218 0.239 0.6341   -0.173437
 N 0.5808 0.6111 0.6755   -0.182835
 N 0.0803 0.9558 0.8079   -0.352005
 N 0.3251 0.8252 0.7184   -0.468072
 N 0.2952 0.0418 0.6694   -0.468002
 N 0.8772 0.0237 0.6676   -0.469641
 N 0.9027 0.8044 0.7045   -0.479996
 N 0.3782 0.261 0.1341   -0.173437
 N 0.4192 0.8889 0.1755   -0.182835
 N 0.9197 0.5442 0.3079   -0.352005
 N 0.6749 0.6748 0.2184   -0.468072
 N 0.7048 0.4582 0.1694   -0.468002
 N 0.1228 0.4763 0.1676   -0.469641
 N 0.0973 0.6956 0.2045   -0.479996
 N 0.3782 0.761 0.3659   -0.173437
 N 0.4192 0.3889 0.3245   -0.182835
 N 0.9197 0.0442 0.1921   -0.352005
 N 0.6749 0.1748 0.2816   -0.468072
 N 0.7048 0.9582 0.3306   -0.468002
 N 0.1228 0.9763 0.3324   -0.46964
 N 0.0973 0.1956 0.2955   -0.479996
 N 0.6218 0.739 0.8659   -0.173437
 N 0.5808 0.1111 0.8245   -0.182835
 N 0.0803 0.4558 0.6921   -0.352005
 N 0.3251 0.3252 0.7816   -0.468072
 N 0.2952 0.5418 0.8306   -0.468002
 N 0.8772 0.5237 0.8324   -0.46964
 N 0.9027 0.3044 0.7955   -0.479996
