{'_ref': 'TBD', '_srcid': 'CAKYAQ_clean', 'submitters': [{'name': 'Dalar Nazarian Jeff Camp and David Sholl', 'email': 'dalar@gatech.edu jcamp6@gatech.edu'}], '_method': 'VASP DFT with PBE;DDEC'}
data_CuH6C12(NO2)2
_symmetry_space_group_name_H-M   'P 1'
_cell_length_a   10.90800028
_cell_length_b   12.43400000
_cell_length_c   14.35400000
_cell_angle_alpha   90.00000000
_cell_angle_beta   107.49499951
_cell_angle_gamma   90.00000000
_symmetry_Int_Tables_number   1
_chemical_formula_structural   CuH6C12(NO2)2
_chemical_formula_sum   'Cu4 H24 C48 N8 O16'
_cell_volume   1856.77977117
_cell_formula_units_Z   4
loop_
 _symmetry_equiv_pos_site_id
 _symmetry_equiv_pos_as_xyz
  1  'x, y, z'
loop_
 _atom_site_label
 _atom_site_fract_x
 _atom_site_fract_y
 _atom_site_fract_z
 _atom_site_charge
 Cu 0.90114 0.93281 0.97522   0.813352
 Cu 0.09886 0.43281 0.52478   0.813352
 Cu 0.09886 0.06719 0.02478   0.813349
 Cu 0.90114 0.56719 0.47522   0.813349
 H 0.8839 0.7991 0.4491   0.092304
 H 0.5284 0.9174 0.3479   0.094045
 H 0.5827 0.6002 0.4018   0.098872
 H 0.3612 0.8594 0.2279   0.107744
 H 0.0301 0.7375 0.2508   0.120429
 H 0.3697 0.6278 0.4257   0.110774
 H 0.1161 0.2991 0.0509   0.092304
 H 0.4716 0.4174 0.1521   0.094045
 H 0.4173 0.1002 0.0982   0.098872
 H 0.6388 0.3594 0.2721   0.107744
 H 0.9699 0.2375 0.2492   0.120429
 H 0.6303 0.1278 0.0743   0.110774
 H 0.1161 0.2009 0.5509   0.092303
 H 0.4716 0.0826 0.6521   0.094045
 H 0.4173 0.3998 0.5982   0.098872
 H 0.6388 0.1406 0.7721   0.107744
 H 0.9699 0.2625 0.7492   0.120429
 H 0.6303 0.3722 0.5743   0.110774
 H 0.8839 0.7009 0.9491   0.092303
 H 0.5284 0.5826 0.8479   0.094045
 H 0.5827 0.8998 0.9018   0.098872
 H 0.3612 0.6406 0.7279   0.107744
 H 0.0301 0.7625 0.7508   0.120429
 H 0.3697 0.8722 0.9257   0.110774
 C 0.7955 0.7882 0.4288   0.376369
 C 0.583 0.859 0.3688   0.203671
 C 0.531 0.756 0.3697   -0.12058
 C 0.6153 0.6692 0.4007   0.17756
 C 0.3876 0.7446 0.3327   0.036704
 C 0.3183 0.8124 0.2577   -0.087833
 C 0.1843 0.8091 0.228   -0.091737
 C 0.1194 0.7391 0.2712   -0.016392
 C 0.1884 0.6708 0.3455   -0.097534
 C 0.3235 0.6735 0.3763   -0.085361
 C 0.1138 0.8807 0.1439   0.654921
 C 0.1193 0.6027 0.3999   0.652454
 C 0.2045 0.2882 0.0712   0.376369
 C 0.417 0.359 0.1312   0.203671
 C 0.469 0.256 0.1303   -0.12058
 C 0.3847 0.1692 0.0993   0.17756
 C 0.6124 0.2446 0.1673   0.036704
 C 0.6817 0.3124 0.2423   -0.087833
 C 0.8157 0.3091 0.272   -0.091737
 C 0.8806 0.2391 0.2288   -0.016392
 C 0.8116 0.1708 0.1545   -0.097534
 C 0.6765 0.1735 0.1237   -0.085361
 C 0.8862 0.3807 0.3561   0.65492
 C 0.8807 0.1027 0.1001   0.652454
 C 0.2045 0.2118 0.5712   0.376369
 C 0.417 0.141 0.6312   0.203671
 C 0.469 0.244 0.6303   -0.12058
 C 0.3847 0.3308 0.5993   0.17756
 C 0.6124 0.2554 0.6673   0.036704
 C 0.6817 0.1876 0.7423   -0.087832
 C 0.8157 0.1909 0.772   -0.091738
 C 0.8806 0.2609 0.7288   -0.016392
 C 0.8116 0.3292 0.6545   -0.097534
 C 0.6765 0.3265 0.6237   -0.085361
 C 0.8862 0.1193 0.8561   0.654921
 C 0.8807 0.3973 0.6001   0.652455
 C 0.7955 0.7118 0.9288   0.376369
 C 0.583 0.641 0.8688   0.203671
 C 0.531 0.744 0.8697   -0.12058
 C 0.6153 0.8308 0.9007   0.17756
 C 0.3876 0.7554 0.8327   0.036704
 C 0.3183 0.6876 0.7577   -0.087832
 C 0.1843 0.6909 0.728   -0.091738
 C 0.1194 0.7609 0.7712   -0.016392
 C 0.1884 0.8292 0.8455   -0.097534
 C 0.3235 0.8265 0.8763   -0.085361
 C 0.1138 0.6193 0.6439   0.654921
 C 0.1193 0.8973 0.8999   0.652454
 N 0.7471 0.6858 0.4297   -0.384325
 N 0.714 0.8746 0.3983   -0.459669
 N 0.2529 0.1858 0.0703   -0.384325
 N 0.286 0.3746 0.1017   -0.459669
 N 0.2529 0.3142 0.5703   -0.384325
 N 0.286 0.1254 0.6017   -0.459669
 N 0.7471 0.8142 0.9297   -0.384325
 N 0.714 0.6254 0.8983   -0.459669
 O 0.0029 0.8498 0.09175   -0.555043
 O 0.1697 0.9643 0.13242   -0.540493
 O 0.0076 0.6341 0.39921   -0.559603
 O 0.175 0.5191 0.4415   -0.540627
 O 0.9971 0.3498 0.40825   -0.555043
 O 0.8303 0.4643 0.36758   -0.540493
 O 0.9924 0.1341 0.10079   -0.559602
 O 0.825 0.0191 0.0585   -0.540627
 O 0.9971 0.1502 0.90825   -0.555043
 O 0.8303 0.0357 0.86758   -0.540493
 O 0.9924 0.3659 0.60079   -0.559603
 O 0.825 0.4809 0.5585   -0.540626
 O 0.0029 0.6502 0.59175   -0.555043
 O 0.1697 0.5357 0.63242   -0.540493
 O 0.0076 0.8659 0.89921   -0.559602
 O 0.175 0.9809 0.9415   -0.540626
