{'_ref': 'TBD', '_srcid': 'CAKYAQ_clean', 'submitters': [{'name': 'Dalar Nazarian Jeff Camp and David Sholl', 'email': 'dalar@gatech.edu jcamp6@gatech.edu'}], '_method': 'VASP DFT with PBE;DDEC'}
data_MnHC4SO2
_symmetry_space_group_name_H-M   'P 1'
_cell_length_a   15.48389993
_cell_length_b   16.35410000
_cell_length_c   16.35409951
_cell_angle_alpha   110.52390114
_cell_angle_beta   108.39699819
_cell_angle_gamma   108.39680187
_symmetry_Int_Tables_number   1
_chemical_formula_structural   MnHC4SO2
_chemical_formula_sum   'Mn12 H12 C48 S12 O24'
_cell_volume   3229.2266987
_cell_formula_units_Z   12
loop_
 _symmetry_equiv_pos_site_id
 _symmetry_equiv_pos_as_xyz
  1  'x, y, z'
loop_
 _atom_site_label
 _atom_site_fract_x
 _atom_site_fract_y
 _atom_site_fract_z
 _atom_site_charge
 Mn 0.59221 0.34221 0.68442   0.89721
 Mn 0.25 0.34221 0.65779   0.896806
 Mn 0.90779 0.31558 0.65779   0.897219
 Mn 0.40779 0.65779 0.31558   0.897158
 Mn 0.75 0.65779 0.34221   0.89684
 Mn 0.09221 0.68442 0.34221   0.897209
 Mn 0.75 0.40716 0.59284   0.847662
 Mn 0.34284 0.18568 0.59284   0.848131
 Mn 0.15716 0.40716 0.81432   0.848144
 Mn 0.25 0.59284 0.40716   0.848453
 Mn 0.65716 0.81432 0.40716   0.848241
 Mn 0.84284 0.59284 0.18568   0.848262
 H 0.6172 0.0262 0.4393   0.114606
 H 0.591 0.4131 0.9738   0.114759
 H 0.1779 0.5607 0.5869   0.11456
 H 0.909 0.0262 0.5869   0.114763
 H 0.3221 0.4131 0.4393   0.114559
 H 0.8828 0.5607 0.9738   0.114608
 H 0.3828 0.9738 0.5607   0.114578
 H 0.409 0.5869 0.0262   0.114747
 H 0.8221 0.4393 0.4131   0.114582
 H 0.091 0.9738 0.4131   0.114749
 H 0.6779 0.5869 0.5607   0.11458
 H 0.1172 0.4393 0.0262   0.114576
 C 0.57667 0.09654 0.53798   -0.131637
 C 0.66204 0.19675 0.57259   0.710859
 C 0.56895 0.01508 0.46362   -0.107895
 C 0.50726 0.08248 0.57658   0.119115
 C 0.48013 0.44144 0.90346   -0.132131
 C 0.46529 0.37584 0.80325   0.711658
 C 0.55387 0.44854 0.98492   -0.107984
 C 0.42478 0.4941 0.91752   0.11945
 C 0.03869 0.46202 0.55856   -0.132316
 C 0.08945 0.42741 0.62416   0.711648
 C 0.10533 0.53638 0.55146   -0.107814
 C 0.93068 0.42342 0.5059   0.119698
 C 0.01987 0.09654 0.55856   -0.1321
 C 0.03471 0.19675 0.62416   0.711645
 C 0.94613 0.01508 0.55146   -0.108003
 C 0.07522 0.08248 0.5059   0.119423
 C 0.46131 0.44144 0.53798   -0.132315
 C 0.41055 0.37584 0.57259   0.711668
 C 0.39467 0.44854 0.46362   -0.107832
 C 0.56932 0.4941 0.57658   0.119696
 C 0.92333 0.46202 0.90346   -0.131636
 C 0.83796 0.42741 0.80325   0.710846
 C 0.93105 0.53638 0.98492   -0.107903
 C 0.99274 0.42342 0.91752   0.119101
 C 0.42333 0.90346 0.46202   -0.131737
 C 0.33796 0.80325 0.42741   0.710926
 C 0.43105 0.98492 0.53638   -0.10788
 C 0.49274 0.91752 0.42342   0.11909
 C 0.51987 0.55856 0.09654   -0.13218
 C 0.53471 0.62416 0.19675   0.71169
 C 0.44613 0.55146 0.01508   -0.107969
 C 0.57522 0.5059 0.08248   0.119387
 C 0.96131 0.53798 0.44144   -0.132342
 C 0.91055 0.57259 0.37584   0.711657
 C 0.89467 0.46362 0.44854   -0.107794
 C 0.06932 0.57658 0.4941   0.119586
 C 0.98013 0.90346 0.44144   -0.132154
 C 0.96529 0.80325 0.37584   0.711673
 C 0.05387 0.98492 0.44854   -0.107992
 C 0.92478 0.91752 0.4941   0.119398
 C 0.53869 0.55856 0.46202   -0.132361
 C 0.58945 0.62416 0.42741   0.711677
 C 0.60533 0.55146 0.53638   -0.107797
 C 0.43068 0.5059 0.42342   0.119639
 C 0.07667 0.53798 0.09654   -0.131787
 C 0.16204 0.57259 0.19675   0.710922
 C 0.06895 0.46362 0.01508   -0.107851
 C 0.00726 0.57658 0.08248   0.119198
 S 0.51429 0.17885 0.67601   -0.433404
 S 0.33544 0.49716 0.82116   -0.433581
 S 0.83828 0.32399 0.50284   -0.433707
 S 0.16456 0.17885 0.50284   -0.43358
 S 0.66172 0.49716 0.67601   -0.433716
 S 0.98571 0.32399 0.82115   -0.433392
 S 0.48571 0.82115 0.32399   -0.433282
 S 0.66456 0.50284 0.17885   -0.433472
 S 0.16172 0.67601 0.49716   -0.433552
 S 0.83544 0.82115 0.49716   -0.433475
 S 0.33828 0.50284 0.324   -0.43354
 S 0.01428 0.676 0.17884   -0.43335
 O 0.63916 0.26593 0.5734   -0.611796
 O 0.75008 0.20478 0.59465   -0.532564
 O 0.37323 0.30747 0.73407   -0.61181
 O 0.5453 0.38987 0.79522   -0.532922
 O 0.06576 0.4266 0.69253   -0.612015
 O 0.15543 0.40535 0.61013   -0.53274
 O 0.12677 0.26593 0.69253   -0.611803
 O 0.9547 0.20478 0.61013   -0.532918
 O 0.43424 0.30747 0.5734   -0.612029
 O 0.34457 0.38987 0.59465   -0.532757
 O 0.86084 0.4266 0.73407   -0.611792
 O 0.74992 0.40535 0.79522   -0.53255
 O 0.36084 0.73407 0.4266   -0.611818
 O 0.24992 0.79522 0.40535   -0.532505
 O 0.62677 0.69253 0.26593   -0.611804
 O 0.4547 0.61013 0.20478   -0.532905
 O 0.93424 0.5734 0.30747   -0.612027
 O 0.84457 0.59465 0.38987   -0.532694
 O 0.87323 0.73407 0.30747   -0.6118
 O 0.0453 0.79522 0.38987   -0.532899
 O 0.56576 0.69253 0.4266   -0.612032
 O 0.65543 0.61013 0.40535   -0.532709
 O 0.13916 0.5734 0.26593   -0.61181
 O 0.25008 0.59465 0.20478   -0.532493
