{'_ref': 'TBD', '_srcid': 'CAKYAQ_clean', 'submitters': [{'name': 'Dalar Nazarian Jeff Camp and David Sholl', 'email': 'dalar@gatech.edu jcamp6@gatech.edu'}], '_method': 'VASP DFT with PBE;DDEC'}
data_ZnH11C18N2O3
_symmetry_space_group_name_H-M   'P 1'
_cell_length_a   5.23509961
_cell_length_b   18.92810000
_cell_length_c   18.92809987
_cell_angle_alpha   88.90419957
_cell_angle_beta   82.05129990
_cell_angle_gamma   82.05120169
_symmetry_Int_Tables_number   1
_chemical_formula_structural   ZnH11C18N2O3
_chemical_formula_sum   'Zn4 H44 C72 N8 O12'
_cell_volume   1839.72698845
_cell_formula_units_Z   4
loop_
 _symmetry_equiv_pos_site_id
 _symmetry_equiv_pos_as_xyz
  1  'x, y, z'
loop_
 _atom_site_label
 _atom_site_fract_x
 _atom_site_fract_y
 _atom_site_fract_z
 _atom_site_charge
 Zn 0.29866 0.05905 0.51149   0.968694
 Zn 0.8692 0.94095 0.48851   0.967372
 Zn 0.64229 0.48851 0.05905   0.969075
 Zn 0.18985 0.51149 0.94095   0.969707
 H 0.9593 0.1877 0.5971   0.110242
 H 0.6608 0.0076 0.6324   0.12587
 H 0.9897 0.9512 0.7074   0.116169
 H 0.1485 0.9416 0.8156   0.089728
 H 0.9489 0.0146 0.912   0.08869
 H 0.5944 0.0974 0.901   0.102467
 H 0.2827 0.1617 0.8265   0.115948
 H 0.905 0.2989 0.6375   0.142062
 H 0.7169 0.4097 0.6921   0.12205
 H 0.6289 0.3094 0.8824   0.097218
 H 0.8384 0.2023 0.8273   0.102028
 H 0.7441 0.8123 0.4029   0.108701
 H 0.3008 0.9924 0.3676   0.126211
 H 0.6483 0.0488 0.2926   0.115883
 H 0.9057 0.0584 0.1844   0.091408
 H 0.8755 0.9854 0.088   0.087695
 H 0.5928 0.9026 0.099   0.102764
 H 0.2709 0.8383 0.1735   0.115256
 H 0.8414 0.7011 0.3625   0.142534
 H 0.8187 0.5903 0.3079   0.122292
 H 0.8207 0.6906 0.1176   0.096528
 H 0.868 0.7977 0.1727   0.102257
 H 0.853 0.4029 0.1877   0.110821
 H 0.3316 0.3676 0.0076   0.126764
 H 0.0591 0.2926 0.9512   0.116241
 H 0.9099 0.1844 0.9416   0.092995
 H 0.0365 0.088 0.0146   0.087873
 H 0.3082 0.099 0.0974   0.102432
 H 0.5556 0.1735 0.1617   0.115592
 H 0.7961 0.3625 0.2989   0.143277
 H 0.8734 0.3079 0.4097   0.122182
 H 0.0617 0.1176 0.3094   0.09803
 H 0.9593 0.1727 0.2023   0.102911
 H 0.4436 0.5971 0.8123   0.108082
 H 0.7068 0.6324 0.9924   0.126999
 H 0.3029 0.7074 0.0488   0.117003
 H 0.0359 0.8156 0.0584   0.090953
 H 0.1391 0.912 0.9854   0.088311
 H 0.5046 0.901 0.9026   0.103124
 H 0.8908 0.8265 0.8383   0.116904
 H 0.4575 0.6375 0.7011   0.141582
 H 0.591 0.6921 0.5903   0.12125
 H 0.4887 0.8824 0.6906   0.098707
 H 0.3343 0.8273 0.7977   0.101767
 C 0.07534 0.16419 0.62713   0.24258
 C 0.38017 0.09026 0.6656   0.169929
 C 0.58637 0.03799 0.67147   -0.180023
 C 0.683 0.03114 0.73726   0.038378
 C 0.9064 0.98093 0.74607   -0.118737
 C 0.000770000000003 0.97545 0.81001   -0.09128
 C 0.88149 0.01945 0.86777   -0.081196
 C 0.67252 0.0685 0.86126   -0.14021
 C 0.56733 0.07738 0.79516   0.057149
 C 0.35934 0.13098 0.78794   -0.206045
 C 0.27093 0.13721 0.72293   0.072511
 C 0.92164 0.24558 0.72954   0.160172
 C 0.8622 0.3025 0.6879   -0.197687
 C 0.7368 0.3671 0.7193   -0.000477
 C 0.63941 0.36622 0.79396   -0.128401
 C 0.686 0.3083 0.8325   -0.026557
 C 0.81919 0.24505 0.80037   -0.18196
 C 0.4791 0.4318 0.83   0.636752
 C 0.86666 0.83581 0.37287   0.245304
 C 0.13603 0.90974 0.3344   0.174555
 C 0.29583 0.96201 0.32853   -0.183608
 C 0.4514 0.96886 0.26274   0.039114
 C 0.6334 0.01907 0.25393   -0.11588
 C 0.78623 0.02455 0.18999   -0.096027
 C 0.76871 0.98055 0.13223   -0.078757
 C 0.60228 0.9315 0.13874   -0.140703
 C 0.43987 0.92262 0.20484   0.056103
 C 0.27826 0.86902 0.21206   -0.204342
 C 0.13107 0.86279 0.27707   0.071069
 C 0.89676 0.75442 0.27046   0.16088
 C 0.8526 0.6975 0.3121   -0.198492
 C 0.8232 0.6329 0.2807   -0.000696
 C 0.79959 0.63378 0.20604   -0.128221
 C 0.8268 0.6917 0.1675   -0.025498
 C 0.86461 0.75495 0.19963   -0.182253
 C 0.7409 0.5682 0.17   0.634719
 C 0.76047 0.37287 0.16419   0.240921
 C 0.52957 0.3344 0.09026   0.174489
 C 0.37564 0.32853 0.03799   -0.184676
 C 0.28586 0.26274 0.03114   0.040929
 C 0.11267 0.25393 0.98093   -0.116816
 C 0.02378 0.18999 0.97545   -0.097148
 C 0.09906 0.13223 0.01945   -0.079995
 C 0.25898 0.13874 0.0685   -0.138787
 C 0.35529 0.20484 0.07738   0.055532
 C 0.50968 0.21206 0.13098   -0.205026
 C 0.59186 0.27707 0.13721   0.071729
 C 0.83278 0.27046 0.24558   0.163958
 C 0.8353 0.3121 0.3025   -0.201385
 C 0.8961 0.2807 0.3671   -0.00013
 C 0.99437 0.20604 0.36622   -0.128048
 C 0.0057 0.1675 0.3083   -0.026165
 C 0.93576 0.19963 0.24505   -0.184894
 C 0.0891 0.17 0.4318   0.635822
 C 0.29753 0.62713 0.83581   0.245319
 C 0.95423 0.6656 0.90974   0.173728
 C 0.74216 0.67147 0.96201   -0.182743
 C 0.57974 0.73726 0.96886   0.039128
 C 0.34753 0.74607 0.01907   -0.117371
 C 0.18922 0.81001 0.02455   -0.094413
 C 0.25074 0.86777 0.98055   -0.080736
 C 0.46622 0.86126 0.9315   -0.140384
 C 0.63751 0.79516 0.92262   0.055987
 C 0.85272 0.78794 0.86902   -0.205983
 C 0.00614 0.72293 0.86279   0.070923
 C 0.34882 0.72954 0.75442   0.160545
 C 0.4499 0.6879 0.6975   -0.197142
 C 0.5439 0.7193 0.6329   0.001455
 C 0.56663 0.79396 0.63378   -0.13013
 C 0.4815 0.8325 0.6917   -0.027163
 C 0.38044 0.80037 0.75495   -0.183127
 C 0.6909 0.83 0.5682   0.636072
 N 0.25016 0.1097 0.60678   -0.425499
 N 0.07667 0.18373 0.69613   -0.041534
 N 0.96664 0.8903 0.39322   -0.427383
 N 0.95653 0.81627 0.30387   -0.04223
 N 0.64014 0.39322 0.1097   -0.42601
 N 0.7396 0.30387 0.18373   -0.044308
 N 0.14306 0.60678 0.8903   -0.428059
 N 0.2272 0.69613 0.81627   -0.041788
 O 0.1627 0.97009 0.52511   -0.69303
 O 0.46113 0.44316 0.88818   -0.46036
 O 0.4621 0.488 0.7818   -0.585064
 O 0.6579 0.02991 0.47489   -0.693528
 O 0.79247 0.55684 0.11182   -0.45978
 O 0.7319 0.512 0.2182   -0.584229
 O 0.86721 0.47489 0.97009   -0.69469
 O 0.09571 0.11182 0.44316   -0.459625
 O 0.0499 0.2182 0.488   -0.584551
 O 0.31219 0.52511 0.02991   -0.6938
 O 0.65069 0.88818 0.55684   -0.459112
 O 0.7561 0.7818 0.512   -0.584507
