{'_ref': 'TBD', '_srcid': 'CAKYAQ_clean', 'submitters': [{'name': 'Dalar Nazarian Jeff Camp and David Sholl', 'email': 'dalar@gatech.edu jcamp6@gatech.edu'}], '_method': 'VASP DFT with PBE;DDEC'}
data_ZnH11C18N2O3
_symmetry_space_group_name_H-M   'P 1'
_cell_length_a   5.06620045
_cell_length_b   19.09939968
_cell_length_c   19.09940000
_cell_angle_alpha   88.99209858
_cell_angle_beta   82.37859935
_cell_angle_gamma   82.37860035
_symmetry_Int_Tables_number   1
_chemical_formula_structural   ZnH11C18N2O3
_chemical_formula_sum   'Zn4 H44 C72 N8 O12'
_cell_volume   1815.57697529
_cell_formula_units_Z   4
loop_
 _symmetry_equiv_pos_site_id
 _symmetry_equiv_pos_as_xyz
  1  'x, y, z'
loop_
 _atom_site_label
 _atom_site_fract_x
 _atom_site_fract_y
 _atom_site_fract_z
 _atom_site_charge
 Zn 0.52093 0.98386 0.5577   0.933428
 Zn 0.06249 0.01614 0.4423   0.93346
 Zn 0.92137 0.5577 0.01614   0.934217
 Zn 0.49521 0.4423 0.98386   0.935136
 H 0.2658 0.8989 0.6857   0.118552
 H 0.0221 0.8675 0.5073   0.135011
 H 0.4345 0.7942 0.4494   0.121718
 H 0.7237 0.6883 0.4399   0.097076
 H 0.6231 0.5919 0.5133   0.090235
 H 0.2529 0.602 0.5972   0.104283
 H 0.8521 0.6755 0.6621   0.119315
 H 0.0083 0.8152 0.7398   0.11436
 H 0.8066 0.7586 0.8396   0.097315
 H 0.5299 0.6549 0.8701   0.123865
 H 0.7329 0.7137 0.7729   0.097954
 H 0.8504 0.1011 0.3143   0.1187
 H 0.3969 0.1325 0.4927   0.1355
 H 0.6781 0.2058 0.5506   0.121738
 H 0.8519 0.3117 0.5601   0.097464
 H 0.7283 0.4081 0.4867   0.090016
 H 0.4521 0.398 0.4028   0.103171
 H 0.1897 0.3245 0.3379   0.119405
 H 0.5633 0.1848 0.2602   0.112913
 H 0.4048 0.2414 0.1604   0.097993
 H 0.0549 0.3451 0.1299   0.123611
 H 0.2195 0.2863 0.2271   0.097515
 H 0.0485 0.6857 0.1011   0.118397
 H 0.4706 0.5073 0.1325   0.135475
 H 0.1161 0.4494 0.2058   0.122632
 H 0.8364 0.4399 0.3117   0.098207
 H 0.8636 0.5133 0.4081   0.090018
 H 0.1499 0.5972 0.398   0.103846
 H 0.4858 0.6621 0.3245   0.119908
 H 0.2519 0.7398 0.1848   0.113532
 H 0.3538 0.8396 0.2414   0.097172
 H 0.6 0.8701 0.3451   0.123335
 H 0.4942 0.7729 0.2863   0.097128
 H 0.8353 0.3143 0.8989   0.117935
 H 0.1104 0.4927 0.8675   0.13517
 H 0.7713 0.5506 0.7942   0.122758
 H 0.588 0.5601 0.6883   0.097714
 H 0.785 0.4867 0.5919   0.088853
 H 0.1451 0.4028 0.602   0.103338
 H 0.4724 0.3379 0.6755   0.118409
 H 0.1765 0.2602 0.8152   0.113756
 H 0.4348 0.1604 0.7586   0.09822
 H 0.8152 0.1299 0.6549   0.124369
 H 0.5534 0.2271 0.7137   0.098601
 C 0.41807 0.86991 0.66255   0.211252
 C 0.77364 0.83368 0.58984   0.161014
 C 0.9905 0.82883 0.53777   -0.174169
 C 0.16458 0.76449 0.53115   0.041452
 C 0.39614 0.75596 0.47996   -0.114348
 C 0.56724 0.69293 0.47379   -0.093974
 C 0.5075 0.63546 0.51834   -0.08012
 C 0.28827 0.64136 0.5681   -0.138737
 C 0.1095 0.70617 0.57743   0.054114
 C 0.88846 0.7134 0.63088   -0.198
 C 0.7267 0.77741 0.63639   0.058519
 C 0.38179 0.76956 0.74566   0.136331
 C 0.16321 0.70571 0.86667   -0.114834
 C 0.03451 0.6709 0.93128   0.594662
 C 0.116 0.7832 0.7662   -0.20641
 C 0.9956 0.7507 0.8263   -0.003878
 C 0.4251 0.6892 0.8452   0.009841
 C 0.544 0.7224 0.7862   -0.176303
 C 0.95053 0.13009 0.33745   0.209421
 C 0.19716 0.16632 0.41016   0.159563
 C 0.3571 0.17117 0.46223   -0.174587
 C 0.46022 0.23551 0.46885   0.042791
 C 0.63206 0.24404 0.52004   -0.11377
 C 0.73396 0.30707 0.52621   -0.095221
 C 0.6613 0.36454 0.48166   -0.079622
 C 0.49773 0.35864 0.4319   -0.136716
 C 0.3931 0.29383 0.42257   0.052588
 C 0.23274 0.2866 0.36912   -0.198732
 C 0.1405 0.22259 0.36361   0.059624
 C 0.89701 0.23044 0.25434   0.134164
 C 0.73559 0.29429 0.13333   -0.114221
 C 0.63669 0.3291 0.06872   0.593803
 C 0.6654 0.2168 0.2338   -0.203749
 C 0.5726 0.2493 0.1737   -0.005511
 C 0.9595 0.3108 0.1548   0.009445
 C 0.0526 0.2776 0.2138   -0.174767
 C 0.91938 0.66255 0.13009   0.210542
 C 0.63652 0.58984 0.16632   0.159932
 C 0.47173 0.53777 0.17117   -0.174663
 C 0.30427 0.53115 0.23551   0.042278
 C 0.1239 0.47996 0.24404   -0.114212
 C 0.95897 0.47379 0.30707   -0.09659
 C 0.97416 0.51834 0.36454   -0.079493
 C 0.14363 0.5681 0.35864   -0.13778
 C 0.31307 0.57743 0.29383   0.053636
 C 0.48066 0.63088 0.2866   -0.198621
 C 0.63691 0.63639 0.22259   0.058858
 C 0.87255 0.74566 0.23044   0.135579
 C 0.97012 0.86667 0.29429   -0.11427
 C 0.03421 0.93128 0.3291   0.592184
 C 0.1178 0.7662 0.2168   -0.206785
 C 0.1781 0.8263 0.2493   -0.002448
 C 0.7297 0.8452 0.3108   0.009787
 C 0.6698 0.7862 0.2776   -0.174918
 C 0.71202 0.33745 0.86991   0.211579
 C 0.39268 0.41016 0.83368   0.159914
 C 0.18067 0.46223 0.82883   -0.174474
 C 0.07093 0.46885 0.76449   0.042036
 C 0.8479 0.52004 0.75596   -0.114348
 C 0.73983 0.52621 0.69293   -0.096394
 C 0.85704 0.48166 0.63546   -0.078273
 C 0.07037 0.4319 0.64136   -0.136089
 C 0.18433 0.42257 0.70617   0.052144
 C 0.39814 0.36912 0.7134   -0.196183
 C 0.49589 0.36361 0.77741   0.058045
 C 0.84865 0.25434 0.76956   0.135582
 C 0.13108 0.13333 0.70571   -0.112478
 C 0.29459 0.06872 0.6709   0.59082
 C 0.1008 0.2338 0.7832   -0.206134
 C 0.2537 0.1737 0.7507   -0.004942
 C 0.8857 0.1548 0.6892   0.008094
 C 0.7336 0.2138 0.7224   -0.176153
 N 0.57225 0.89063 0.60767   -0.409486
 N 0.49787 0.80284 0.68302   -0.027874
 N 0.07055 0.10937 0.39233   -0.40807
 N 0.98373 0.19716 0.31698   -0.026403
 N 0.82008 0.60767 0.10937   -0.408514
 N 0.81911 0.68302 0.19716   -0.026866
 N 0.53712 0.39233 0.89063   -0.408638
 N 0.69929 0.31698 0.80284   -0.027249
 O 0.39505 0.96965 0.46805   -0.620167
 O 0.14565 0.61211 0.94879   -0.502708
 O 0.7727 0.6852 0.9482   -0.55983
 O 0.83275 0.03035 0.53195   -0.62041
 O 0.70655 0.38789 0.05121   -0.502457
 O 0.4061 0.3148 0.0518   -0.559187
 O 0.1369 0.46805 0.03035   -0.621269
 O 0.90556 0.94879 0.38789   -0.50134
 O 0.2791 0.9482 0.3148   -0.558812
 O 0.6353 0.53195 0.96965   -0.620948
 O 0.24224 0.05121 0.61211   -0.50065
 O 0.5421 0.0518 0.6852   -0.558526
