{'_ref': 'TBD', '_srcid': 'CAKYAQ_clean', 'submitters': [{'name': 'Dalar Nazarian Jeff Camp and David Sholl', 'email': 'dalar@gatech.edu jcamp6@gatech.edu'}], '_method': 'VASP DFT with PBE;DDEC'}
data_ZnH11C18N2O3
_symmetry_space_group_name_H-M   'P 1'
_cell_length_a   5.39600016
_cell_length_b   18.71589966
_cell_length_c   18.71590000
_cell_angle_alpha   88.80930002
_cell_angle_beta   81.71190095
_cell_angle_gamma   81.71160010
_symmetry_Int_Tables_number   1
_chemical_formula_structural   ZnH11C18N2O3
_chemical_formula_sum   'Zn4 H44 C72 N8 O12'
_cell_volume   1850.86005005
_cell_formula_units_Z   4
loop_
 _symmetry_equiv_pos_site_id
 _symmetry_equiv_pos_as_xyz
  1  'x, y, z'
loop_
 _atom_site_label
 _atom_site_fract_x
 _atom_site_fract_y
 _atom_site_fract_z
 _atom_site_charge
 Zn 0.66126 0.94231 0.48865   0.950264
 Zn 0.09222 0.05769 0.51135   0.951556
 Zn 0.85009 0.48865 0.05769   0.949103
 Zn 0.39643 0.51135 0.94231   0.950684
 H 0.7447 0.8454 0.1664   0.112472
 H 0.4233 0.9053 0.0929   0.10034
 H 0.0037 0.0424 0.2938   0.123516
 H 0.1958 0.651 0.129   0.103274
 H 0.659 0.6675 0.2769   0.104208
 H 0.04 0.8166 0.4012   0.123246
 H 0.8456 0.0526 0.1844   0.094465
 H 0.3286 0.9877 0.3681   0.127998
 H 0.9072 0.7452 0.1844   0.107376
 H 0.3799 0.7655 0.3303   0.122744
 H 0.0609 0.9847 0.0835   0.089513
 H 0.7565 0.1546 0.8336   0.112268
 H 0.4215 0.0947 0.9071   0.099848
 H 0.3399 0.9576 0.7062   0.122977
 H 0.9758 0.349 0.871   0.103469
 H 0.6034 0.3325 0.7231   0.104369
 H 0.2578 0.1834 0.5988   0.122496
 H 0.0826 0.9474 0.8156   0.093782
 H 0.6844 0.0123 0.6319   0.127254
 H 0.8368 0.2548 0.8156   0.107893
 H 0.4757 0.2345 0.6697   0.121372
 H 0.1291 0.0153 0.9165   0.089081
 H 0.0889 0.1664 0.1546   0.110706
 H 0.4838 0.0929 0.0947   0.0994
 H 0.7025 0.2938 0.9576   0.123087
 H 0.6752 0.129 0.349   0.104664
 H 0.0641 0.2769 0.3325   0.104934
 H 0.5588 0.4012 0.1834   0.122187
 H 0.97 0.1844 0.9474   0.093836
 H 0.3033 0.3681 0.0123   0.127124
 H 0.9084 0.1844 0.2548   0.106321
 H 0.2898 0.3303 0.2345   0.121662
 H 0.8556 0.0835 0.0153   0.089624
 H 0.4099 0.8336 0.8454   0.111298
 H 0.6714 0.9071 0.9053   0.100528
 H 0.9539 0.7062 0.0424   0.123229
 H 0.1532 0.871 0.651   0.10409
 H 0.6735 0.7231 0.6675   0.104068
 H 0.1434 0.5988 0.8166   0.122002
 H 0.1018 0.8156 0.0526   0.095611
 H 0.6837 0.6319 0.9877   0.126626
 H 0.3476 0.8156 0.7452   0.105804
 H 0.8546 0.6697 0.7655   0.122442
 H 0.9544 0.9165 0.9847   0.090636
 C 0.11323 0.76328 0.26406   0.147378
 C 0.6584 0.87321 0.20679   -0.189998
 C 0.63176 0.58523 0.16445   0.632279
 C 0.74178 0.86545 0.27279   0.060828
 C 0.44181 0.92333 0.20045   0.054908
 C 0.33999 0.93242 0.134   -0.128552
 C 0.08987 0.0143 0.25356   -0.116807
 C 0.61923 0.90928 0.33226   0.16112
 C 0.31388 0.96615 0.26109   0.041431
 C 0.23094 0.67282 0.1711   0.019102
 C 0.44974 0.64758 0.19854   -0.134848
 C 0.50574 0.68312 0.2582   -0.001983
 C 0.92648 0.83933 0.37051   0.216665
 C 0.99637 0.02062 0.18864   -0.089413
 C 0.40839 0.95896 0.32766   -0.175194
 C 0.05984 0.7295 0.20342   -0.191591
 C 0.33888 0.74122 0.29042   -0.21679
 C 0.12478 0.97951 0.12833   -0.085205
 C 0.14057 0.23672 0.73594   0.147569
 C 0.7384 0.12679 0.79321   -0.187148
 C 0.38144 0.41477 0.83555   0.634354
 C 0.88002 0.13455 0.72721   0.061035
 C 0.56559 0.07667 0.79955   0.051582
 C 0.40641 0.06758 0.866   -0.127637
 C 0.35773 0.9857 0.74644   -0.117431
 C 0.86077 0.09072 0.66774   0.156491
 C 0.54112 0.03385 0.73891   0.042717
 C 0.07486 0.32718 0.8289   0.016948
 C 0.29586 0.35242 0.80146   -0.131633
 C 0.44706 0.31688 0.7418   -0.005916
 C 0.13632 0.16067 0.62949   0.217982
 C 0.20563 0.97938 0.81136   -0.091074
 C 0.69501 0.04104 0.67234   -0.170463
 C 0.99276 0.2705 0.79658   -0.191369
 C 0.37052 0.25878 0.70958   -0.212289
 C 0.23262 0.02049 0.87167   -0.08261
 C 0.62271 0.26406 0.23672   0.142844
 C 0.13481 0.20679 0.12679   -0.188033
 C 0.20379 0.16445 0.41477   0.63356
 C 0.98543 0.27279 0.13455   0.060553
 C 0.35774 0.20045 0.07667   0.055169
 C 0.52601 0.134 0.06758   -0.128058
 C 0.65657 0.25356 0.9857   -0.116624
 C 0.04851 0.33226 0.09072   0.156952
 C 0.42503 0.26109 0.03385   0.040246
 C 0.59796 0.1711 0.32718   0.015444
 C 0.35172 0.19854 0.35242   -0.131566
 C 0.23606 0.2582 0.31688   -0.00557
 C 0.70301 0.37051 0.16067   0.217697
 C 0.81499 0.18864 0.97938   -0.089395
 C 0.26395 0.32766 0.04104   -0.170069
 C 0.73674 0.20342 0.2705   -0.186596
 C 0.3707 0.29042 0.25878   -0.214304
 C 0.74689 0.12833 0.02049   -0.084685
 C 0.12349 0.73594 0.76328   0.144147
 C 0.46839 0.79321 0.87321   -0.18695
 C 0.78301 0.83555 0.58523   0.633291
 C 0.39277 0.72721 0.86545   0.059697
 C 0.63486 0.79955 0.92333   0.053271
 C 0.72759 0.866 0.93242   -0.12803
 C 0.89583 0.74644 0.0143   -0.118673
 C 0.47149 0.66774 0.90928   0.160627
 C 0.71997 0.73891 0.96615   0.041137
 C 0.09624 0.8289 0.67282   0.019258
 C 0.90268 0.80146 0.64758   -0.13289
 C 0.81114 0.7418 0.68312   -0.002179
 C 0.23419 0.62949 0.83933   0.216414
 C 0.98301 0.81136 0.02062   -0.091161
 C 0.63265 0.67234 0.95896   -0.172343
 C 0.21066 0.79658 0.7295   -0.18881
 C 0.9199 0.70958 0.74122   -0.217139
 C 0.89571 0.87167 0.97951   -0.084435
 N 0.74333 0.89115 0.39199   -0.407853
 N 0.93944 0.82075 0.29957   -0.028323
 N 0.02647 0.10885 0.60801   -0.406698
 N 0.05976 0.17925 0.70043   -0.029771
 N 0.86468 0.39199 0.10885   -0.406131
 N 0.76099 0.29957 0.17925   -0.026219
 N 0.36552 0.60801 0.89115   -0.405247
 N 0.23981 0.70043 0.82075   -0.02777
 O 0.30616 0.96558 0.5211   -0.622876
 O 0.57727 0.55894 0.10772   -0.557088
 O 0.82538 0.56457 0.19207   -0.547521
 O 0.79284 0.03442 0.4789   -0.621454
 O 0.24393 0.44106 0.89228   -0.558708
 O 0.58202 0.43543 0.80793   -0.549821
 O 0.17274 0.5211 0.03442   -0.62131
 O 0.31501 0.10772 0.44106   -0.558687
 O 0.98255 0.19207 0.43543   -0.549167
 O 0.72826 0.4789 0.96558   -0.62145
 O 0.86379 0.89228 0.55894   -0.556457
 O 0.61005 0.80793 0.56457   -0.550124
