{'_ref': 'TBD', '_srcid': 'CAKYAQ_clean', 'submitters': [{'name': 'Dalar Nazarian Jeff Camp and David Sholl', 'email': 'dalar@gatech.edu jcamp6@gatech.edu'}], '_method': 'VASP DFT with PBE;DDEC'}
data_CoHC5O4
_symmetry_space_group_name_H-M   'P 1'
_cell_length_a   6.93620027
_cell_length_b   7.45590017
_cell_length_c   8.27970000
_cell_angle_alpha   90.34199848
_cell_angle_beta   109.84799513
_cell_angle_gamma   93.16100075
_symmetry_Int_Tables_number   1
_chemical_formula_structural   CoHC5O4
_chemical_formula_sum   'Co2 H2 C10 O8'
_cell_volume   402.002120576
_cell_formula_units_Z   2
loop_
 _symmetry_equiv_pos_site_id
 _symmetry_equiv_pos_as_xyz
  1  'x, y, z'
loop_
 _atom_site_label
 _atom_site_fract_x
 _atom_site_fract_y
 _atom_site_fract_z
 _atom_site_charge
 Co 0.0 0.0 0.5   1.094634
 Co 0.5 0.5 0.5   1.10855
 H 0.5759 0.7088 0.9601   0.118873
 H 0.4241 0.2912 0.0399   0.118873
 C 0.6477 0.7589 0.2845   0.72666
 C 0.5807 0.8919 0.1426   -0.109975
 C 0.536 0.0677 0.1667   -0.114755
 C 0.5754 0.1563 0.3404   0.709839
 C 0.5451 0.8259 0.9762   -0.020895
 C 0.3523 0.2411 0.7155   0.72666
 C 0.4193 0.1081 0.8574   -0.109979
 C 0.464 0.9323 0.8333   -0.114745
 C 0.4246 0.8437 0.6596   0.709839
 C 0.4549 0.1741 0.0238   -0.020885
 O 0.8306 0.7675 0.3881   -0.618218
 O 0.5125 0.6424 0.2877   -0.58122
 O 0.7355 0.1283 0.4622   -0.609491
 O 0.443 0.262 0.3501   -0.602417
 O 0.1694 0.2325 0.6119   -0.618218
 O 0.4875 0.3576 0.7123   -0.58122
 O 0.2645 0.8717 0.5378   -0.609491
 O 0.557 0.738 0.6499   -0.602417
