{'_ref': 'TBD', '_srcid': 'CAKYAQ_clean', 'submitters': [{'name': 'Dalar Nazarian Jeff Camp and David Sholl', 'email': 'dalar@gatech.edu jcamp6@gatech.edu'}], '_method': 'VASP DFT with PBE;DDEC'}
data_Zn5H6C18(N9Cl2)2
_symmetry_space_group_name_H-M   'P 1'
_cell_length_a   15.34209970
_cell_length_b   15.34209990
_cell_length_c   15.34210000
_cell_angle_alpha   59.99999979
_cell_angle_beta   59.99999935
_cell_angle_gamma   59.99999876
_symmetry_Int_Tables_number   1
_chemical_formula_structural   Zn5H6C18(N9Cl2)2
_chemical_formula_sum   'Zn10 H12 C36 N36 Cl8'
_cell_volume   2553.52086905
_cell_formula_units_Z   2
loop_
 _symmetry_equiv_pos_site_id
 _symmetry_equiv_pos_as_xyz
  1  'x, y, z'
loop_
 _atom_site_label
 _atom_site_fract_x
 _atom_site_fract_y
 _atom_site_fract_z
 _atom_site_charge
 Zn 0.15416 0.15416 0.53752   0.632241
 Zn 0.15416 0.15416 0.15416   0.63224
 Zn 0.53752 0.15416 0.15416   0.632241
 Zn 0.15416 0.53752 0.15416   0.632241
 Zn 0.84584 0.84584 0.46248   0.632241
 Zn 0.84584 0.84584 0.84584   0.63224
 Zn 0.84584 0.46248 0.84584   0.632241
 Zn 0.46248 0.84584 0.84584   0.632241
 Zn 0.25 0.25 0.25   0.369671
 Zn 0.75 0.75 0.75   0.369671
 H 0.0 0.3408 0.6592   0.146637
 H 0.3408 0.0 0.0   0.146637
 H 0.6592 0.0 0.0   0.146637
 H 0.0 0.6592 0.3408   0.146637
 H 0.0 0.6592 0.0   0.146637
 H 0.3408 0.0 0.6592   0.146637
 H 0.6592 0.0 0.3408   0.146637
 H 0.0 0.3408 0.0   0.146637
 H 0.0 0.0 0.3408   0.146637
 H 0.3408 0.6592 0.0   0.146637
 H 0.6592 0.3408 0.0   0.146637
 H 0.0 0.0 0.6592   0.146637
 C 0.0536 0.401 0.4918   0.127968
 C 0.401 0.0536 0.0536   0.127968
 C 0.4918 0.0536 0.0536   0.127967
 C 0.0536 0.4918 0.401   0.127967
 C 0.0536 0.4918 0.0536   0.127967
 C 0.401 0.0536 0.4918   0.127968
 C 0.4918 0.0536 0.401   0.127967
 C 0.0536 0.401 0.0536   0.127968
 C 0.0536 0.0536 0.401   0.127968
 C 0.401 0.4918 0.0536   0.127968
 C 0.4918 0.401 0.0536   0.127967
 C 0.0536 0.0536 0.4918   0.127967
 C 0.599 0.9464 0.5082   0.127967
 C 0.9464 0.599 0.9464   0.127968
 C 0.9464 0.5082 0.9464   0.127967
 C 0.5082 0.9464 0.599   0.127967
 C 0.5082 0.9464 0.9464   0.127968
 C 0.9464 0.599 0.5082   0.127967
 C 0.9464 0.5082 0.599   0.127967
 C 0.599 0.9464 0.9464   0.127968
 C 0.9464 0.9464 0.599   0.127968
 C 0.5082 0.599 0.9464   0.127968
 C 0.599 0.5082 0.9464   0.127967
 C 0.9464 0.9464 0.5082   0.127967
 C 0.0 0.4014 0.5986   -0.188375
 C 0.4014 0.0 0.0   -0.188375
 C 0.5986 0.0 0.0   -0.188375
 C 0.0 0.5986 0.4014   -0.188375
 C 0.0 0.5986 0.0   -0.188374
 C 0.4014 0.0 0.5986   -0.188374
 C 0.5986 0.0 0.4014   -0.188374
 C 0.0 0.4014 0.0   -0.188374
 C 0.0 0.0 0.4014   -0.188374
 C 0.4014 0.5986 0.0   -0.188374
 C 0.5986 0.4014 0.0   -0.188374
 C 0.0 0.0 0.5986   -0.188374
 N 0.1142 0.31484 0.45676   -0.229432
 N 0.31484 0.1142 0.1142   -0.229432
 N 0.45676 0.1142 0.1142   -0.229432
 N 0.1142 0.45676 0.31484   -0.229432
 N 0.1142 0.45676 0.1142   -0.229432
 N 0.31484 0.1142 0.45676   -0.229432
 N 0.45676 0.1142 0.31484   -0.229432
 N 0.1142 0.31484 0.1142   -0.229432
 N 0.1142 0.1142 0.31484   -0.229432
 N 0.31484 0.45676 0.1142   -0.229432
 N 0.45676 0.31484 0.1142   -0.229432
 N 0.1142 0.1142 0.45676   -0.229432
 N 0.68516 0.8858 0.54324   -0.229432
 N 0.8858 0.68516 0.8858   -0.229432
 N 0.8858 0.54324 0.8858   -0.229432
 N 0.54324 0.8858 0.68516   -0.229432
 N 0.54324 0.8858 0.8858   -0.229432
 N 0.8858 0.68516 0.54324   -0.229432
 N 0.8858 0.54324 0.68516   -0.229432
 N 0.68516 0.8858 0.8858   -0.229432
 N 0.8858 0.8858 0.68516   -0.229432
 N 0.54324 0.68516 0.8858   -0.229432
 N 0.68516 0.54324 0.8858   -0.229432
 N 0.8858 0.8858 0.54324   -0.229432
 N 0.1481 0.3519 0.3519   0.051179
 N 0.3519 0.1481 0.1481   0.051179
 N 0.1481 0.3519 0.1481   0.051179
 N 0.3519 0.1481 0.3519   0.051179
 N 0.1481 0.1481 0.3519   0.051179
 N 0.3519 0.3519 0.1481   0.051179
 N 0.6481 0.8519 0.6481   0.051179
 N 0.8519 0.6481 0.8519   0.051179
 N 0.6481 0.8519 0.8519   0.051179
 N 0.8519 0.6481 0.6481   0.051179
 N 0.8519 0.8519 0.6481   0.051179
 N 0.6481 0.6481 0.8519   0.051179
 Cl 0.09812 0.09812 0.70564   -0.434427
 Cl 0.09812 0.09812 0.09812   -0.434425
 Cl 0.70564 0.09812 0.09812   -0.434427
 Cl 0.09812 0.70564 0.09812   -0.434427
 Cl 0.90188 0.90188 0.29436   -0.434428
 Cl 0.90188 0.90188 0.90188   -0.434426
 Cl 0.90188 0.29436 0.90188   -0.434428
 Cl 0.29436 0.90188 0.90188   -0.434428
