{'_ref': 'TBD', '_srcid': 'CAKYAQ_clean', 'submitters': [{'name': 'Dalar Nazarian Jeff Camp and David Sholl', 'email': 'dalar@gatech.edu jcamp6@gatech.edu'}], '_method': 'VASP DFT with PBE;DDEC'}
data_Zn3H22C38(NO3)4
_symmetry_space_group_name_H-M   'P 1'
_cell_length_a   9.34899966
_cell_length_b   10.44099993
_cell_length_c   12.17700000
_cell_angle_alpha   109.95600187
_cell_angle_beta   103.38799823
_cell_angle_gamma   90.27500072
_symmetry_Int_Tables_number   1
_chemical_formula_structural   Zn3H22C38(NO3)4
_chemical_formula_sum   'Zn3 H22 C38 N4 O12'
_cell_volume   1082.32207636
_cell_formula_units_Z   1
loop_
 _symmetry_equiv_pos_site_id
 _symmetry_equiv_pos_as_xyz
  1  'x, y, z'
loop_
 _atom_site_label
 _atom_site_fract_x
 _atom_site_fract_y
 _atom_site_fract_z
 _atom_site_charge
 Zn 0.26055 0.07308 0.48656   0.973659
 Zn 0.73945 0.92692 0.51344   0.973659
 Zn 0.5 0.5 0.5   1.087023
 H 0.4445 0.0827 0.1732   0.096595
 H 0.6092 0.0677 0.0549   0.091969
 H 0.8596 0.1178 0.142   0.105201
 H 0.11 0.1765 0.676   0.104035
 H 0.1538 0.2744 0.8821   0.135635
 H 0.5876 0.2872 0.9015   0.137844
 H 0.5326 0.1912 0.6953   0.098984
 H 0.1987 0.317 0.0644   0.14044
 H 0.2491 0.3912 0.269   0.104172
 H 0.6622 0.4839 0.2969   0.105092
 H 0.6237 0.4041 0.0915   0.131975
 H 0.5555 0.9173 0.8268   0.096591
 H 0.3908 0.9323 0.9451   0.091964
 H 0.1404 0.8822 0.858   0.1052
 H 0.89 0.8235 0.324   0.104035
 H 0.8462 0.7256 0.1179   0.135638
 H 0.4124 0.7128 0.0985   0.137844
 H 0.4674 0.8088 0.3047   0.098984
 H 0.8013 0.683 0.9356   0.140441
 H 0.7509 0.6088 0.731   0.104171
 H 0.3378 0.5161 0.7031   0.105092
 H 0.3763 0.5959 0.9085   0.131976
 C 0.84695 0.15978 0.31503   -0.063821
 C 0.7484 0.17321 0.38808   -0.094002
 C 0.59679 0.14923 0.33424   -0.153035
 C 0.54498 0.10495 0.20894   -0.080337
 C 0.64398 0.09435 0.13816   -0.122112
 C 0.79405 0.12297 0.19006   -0.08383
 C 0.01164 0.17676 0.36615   0.679452
 C 0.80479 0.2136 0.5232   0.675488
 C 0.48786 0.17313 0.41128   0.716367
 C 0.207 0.1986 0.72206   0.207352
 C 0.2327 0.2575 0.84622   -0.187372
 C 0.37729 0.29137 0.91741   0.079536
 C 0.4895 0.26535 0.85783   -0.196892
 C 0.45572 0.20698 0.73361   0.193794
 C 0.40738 0.34913 0.05144   0.099113
 C 0.2949 0.3486 0.10963   -0.189855
 C 0.3261 0.3945 0.23326   0.206305
 C 0.5679 0.44782 0.24977   0.191504
 C 0.5449 0.40068 0.12524   -0.20764
 C 0.15305 0.84022 0.68497   -0.063821
 C 0.2516 0.82679 0.61192   -0.094002
 C 0.40321 0.85077 0.66576   -0.153035
 C 0.45502 0.89505 0.79106   -0.080336
 C 0.35602 0.90565 0.86184   -0.122111
 C 0.20595 0.87703 0.80994   -0.08383
 C 0.98836 0.82324 0.63385   0.679452
 C 0.19521 0.7864 0.4768   0.675488
 C 0.51214 0.82687 0.58872   0.716367
 C 0.793 0.8014 0.27794   0.207352
 C 0.7673 0.7425 0.15378   -0.187373
 C 0.62271 0.70863 0.08259   0.079536
 C 0.5105 0.73465 0.14217   -0.196893
 C 0.54428 0.79302 0.26639   0.193793
 C 0.59262 0.65087 0.94856   0.099113
 C 0.7051 0.6514 0.89037   -0.189856
 C 0.6739 0.6055 0.76674   0.206305
 C 0.4321 0.55218 0.75023   0.191503
 C 0.4551 0.59932 0.87476   -0.207642
 N 0.31648 0.17215 0.66585   -0.367491
 N 0.46049 0.4439 0.30562   -0.374525
 N 0.68352 0.82785 0.33415   -0.367491
 N 0.53951 0.5561 0.69438   -0.374525
 O 0.05698 0.11285 0.43758   -0.615664
 O 0.09017 0.24499 0.33352   -0.622573
 O 0.87232 0.32819 0.58156   -0.600441
 O 0.77689 0.1291 0.57069   -0.635735
 O 0.48617 0.28799 0.48733   -0.654208
 O 0.40121 0.06933 0.3919   -0.568486
 O 0.94302 0.88715 0.56242   -0.615664
 O 0.90983 0.75501 0.66648   -0.622573
 O 0.12768 0.67181 0.41844   -0.600441
 O 0.22311 0.8709 0.42931   -0.635735
 O 0.51383 0.71201 0.51267   -0.654208
 O 0.59879 0.93067 0.6081   -0.568485
