{'_ref': 'TBD', '_srcid': 'CAKYAQ_clean', 'submitters': [{'name': 'Dalar Nazarian Jeff Camp and David Sholl', 'email': 'dalar@gatech.edu jcamp6@gatech.edu'}], '_method': 'VASP DFT with PBE;DDEC'}
data_ErH14C24(NO3)2
_symmetry_space_group_name_H-M   'P 1'
_cell_length_a   10.06909960
_cell_length_b   10.94909992
_cell_length_c   13.22110000
_cell_angle_alpha   99.75499830
_cell_angle_beta   110.24500167
_cell_angle_gamma   107.79300256
_symmetry_Int_Tables_number   1
_chemical_formula_structural   ErH14C24(NO3)2
_chemical_formula_sum   'Er2 H28 C48 N4 O12'
_cell_volume   1238.81802579
_cell_formula_units_Z   2
loop_
 _symmetry_equiv_pos_site_id
 _symmetry_equiv_pos_as_xyz
  1  'x, y, z'
loop_
 _atom_site_label
 _atom_site_fract_x
 _atom_site_fract_y
 _atom_site_fract_z
 _atom_site_charge
 Er 0.15495 0.70649 0.19582   1.256553
 Er 0.84505 0.29351 0.80418   1.256553
 H 0.7239 0.6195 0.1626   0.101894
 H 0.504 0.3662 0.8463   0.105529
 H 0.8375 0.9156 0.3111   0.1055
 H 0.2263 0.9689 0.5643   0.0938
 H 0.2334 0.4097 0.4254   0.112378
 H 0.6262 0.6689 0.4412   0.106148
 H 0.9639 0.6419 0.9136   0.060437
 H 0.902 0.7349 0.7709   0.12241
 H 0.0217 0.9661 0.8098   0.103288
 H 0.2042 0.1903 0.956   0.114104
 H 0.3855 0.3119 0.1365   0.106319
 H 0.5429 0.3156 0.3353   0.098365
 H 0.6014 0.1947 0.4584   0.131279
 H 0.4652 0.9646 0.4003   0.073763
 H 0.2761 0.3805 0.8374   0.101892
 H 0.496 0.6338 0.1537   0.105526
 H 0.1625 0.0844 0.6889   0.105495
 H 0.7737 0.0311 0.4357   0.093797
 H 0.7666 0.5903 0.5746   0.112382
 H 0.3738 0.3311 0.5588   0.106147
 H 0.0361 0.3581 0.0864   0.060437
 H 0.098 0.2651 0.2291   0.12241
 H 0.9783 0.0339 0.1902   0.103287
 H 0.7958 0.8097 0.044   0.114103
 H 0.6145 0.6881 0.8635   0.106319
 H 0.4571 0.6844 0.6647   0.098367
 H 0.3986 0.8053 0.5416   0.131278
 H 0.5348 0.0354 0.5997   0.073758
 C 0.7866 0.4857 0.0099   0.67708
 C 0.6372 0.492 0.0048   -0.1355
 C 0.6336 0.5714 0.0968   -0.054633
 C 0.5031 0.4203 0.9083   -0.058639
 C 0.0771 0.8515 0.3433   0.609102
 C 0.0383 0.9294 0.4243   -0.10094
 C 0.904 0.9496 0.3878   -0.06919
 C 0.1343 0.981 0.5376   -0.051483
 C 0.3261 0.601 0.3362   0.602845
 C 0.4159 0.5475 0.4209   -0.104172
 C 0.3404 0.4461 0.4554   -0.068039
 C 0.5756 0.6013 0.4649   -0.071634
 C 0.0111 0.7349 0.931   0.223147
 C 0.9736 0.7895 0.8437   -0.177736
 C 0.0441 0.926 0.8668   -0.006632
 C 0.1507 0.004 0.9778   -0.024537
 C 0.2277 0.1459 0.0096   -0.081978
 C 0.3361 0.219 0.1178   -0.075076
 C 0.3738 0.1542 0.2017   -0.033903
 C 0.49 0.2226 0.3123   -0.00704
 C 0.5241 0.1512 0.3852   -0.174511
 C 0.4415 0.0118 0.349   0.202058
 C 0.2958 0.0131 0.1721   0.1649
 C 0.1788 0.9381 0.058   0.172597
 C 0.2134 0.5143 0.9901   0.677082
 C 0.3628 0.508 0.9952   -0.135504
 C 0.3664 0.4286 0.9032   -0.054624
 C 0.4969 0.5797 0.0917   -0.05863
 C 0.9229 0.1485 0.6567   0.609102
 C 0.9617 0.0706 0.5757   -0.100937
 C 0.096 0.0504 0.6122   -0.069201
 C 0.8657 0.019 0.4624   -0.051493
 C 0.6739 0.399 0.6638   0.602844
 C 0.5841 0.4525 0.5791   -0.104169
 C 0.6596 0.5539 0.5446   -0.068049
 C 0.4244 0.3987 0.5351   -0.071645
 C 0.9889 0.2651 0.069   0.223148
 C 0.0264 0.2105 0.1563   -0.177736
 C 0.9559 0.074 0.1332   -0.006633
 C 0.8493 0.996 0.0222   -0.024538
 C 0.7723 0.8541 0.9904   -0.081979
 C 0.6639 0.781 0.8822   -0.075077
 C 0.6262 0.8458 0.7983   -0.033903
 C 0.51 0.7774 0.6877   -0.007039
 C 0.4759 0.8488 0.6148   -0.174512
 C 0.5585 0.9882 0.651   0.202059
 C 0.7042 0.9869 0.8279   0.1649
 C 0.8212 0.0619 0.942   0.172596
 N 0.1085 0.804 0.0371   -0.374211
 N 0.3317 0.9432 0.2458   -0.376749
 N 0.8915 0.196 0.9629   -0.374211
 N 0.6683 0.0568 0.7542   -0.37675
 O 0.9088 0.5596 0.0959   -0.554732
 O 0.7805 0.407 0.9259   -0.559984
 O 0.0117 0.8337 0.2382   -0.552593
 O 0.1762 0.8017 0.3804   -0.554973
 O 0.1808 0.5376 0.2824   -0.535466
 O 0.394 0.709 0.3206   -0.539125
 O 0.0912 0.4404 0.9041   -0.554732
 O 0.2195 0.593 0.0741   -0.559984
 O 0.9883 0.1663 0.7618   -0.552593
 O 0.8238 0.1983 0.6196   -0.554973
 O 0.8192 0.4624 0.7176   -0.535466
 O 0.606 0.291 0.6794   -0.539124
