{'_ref': 'TBD', '_srcid': 'CAKYAQ_clean', 'submitters': [{'name': 'Dalar Nazarian Jeff Camp and David Sholl', 'email': 'dalar@gatech.edu jcamp6@gatech.edu'}], '_method': 'VASP DFT with PBE;DDEC'}
data_ErH26C30(NO3)2
_symmetry_space_group_name_H-M   'P 1'
_cell_length_a   9.49299973
_cell_length_b   13.22500023
_cell_length_c   16.23200000
_cell_angle_alpha   111.72900127
_cell_angle_beta   100.55399909
_cell_angle_gamma   91.87900111
_symmetry_Int_Tables_number   1
_chemical_formula_structural   ErH26C30(NO3)2
_chemical_formula_sum   'Er2 H52 C60 N4 O12'
_cell_volume   1849.6957281
_cell_formula_units_Z   2
loop_
 _symmetry_equiv_pos_site_id
 _symmetry_equiv_pos_as_xyz
  1  'x, y, z'
loop_
 _atom_site_label
 _atom_site_fract_x
 _atom_site_fract_y
 _atom_site_fract_z
 _atom_site_charge
 Er 0.91772 0.54389 0.84482   1.278884
 Er 0.08228 0.45611 0.15518   1.278884
 H 0.6629 0.7449 0.0404   0.139716
 H 0.612 0.7612 0.1306   0.101964
 H 0.7547 0.7085 0.1131   0.114506
 H 0.6621 0.2768 0.9883   0.143309
 H 0.6053 0.2581 0.8862   0.106115
 H 0.7511 0.3311 0.9401   0.127379
 H 0.8856 0.8208 0.7881   0.132167
 H 0.821 0.9273 0.7852   0.118018
 H 0.9813 0.9115 0.7764   0.110386
 H 0.0086 0.7897 0.0697   0.125477
 H 0.1418 0.8701 0.1363   0.113907
 H 0.9866 0.8888 0.155   0.104918
 H 0.1418 0.6726 0.7116   0.130281
 H 0.2443 0.7002 0.6556   0.122578
 H 0.0991 0.7527 0.6626   0.113377
 H 0.717 0.3602 0.5205   0.13296
 H 0.8124 0.2689 0.4764   0.10537
 H 0.8493 0.3363 0.5814   0.108565
 H 0.587 0.6273 0.8514   0.084039
 H 0.3387 0.5704 0.8068   0.140312
 H 0.2613 0.3934 0.7234   0.095224
 H 0.325 0.1977 0.6466   0.098473
 H 0.4859 0.0817 0.6196   0.107047
 H 0.7499 0.0537 0.6152   0.095731
 H 0.9874 0.1222 0.6707   0.123231
 H 0.0447 0.3044 0.7647   0.059655
 H 0.3371 0.2551 0.9596   0.139716
 H 0.388 0.2388 0.8694   0.101965
 H 0.2453 0.2915 0.8869   0.114506
 H 0.3379 0.7232 0.0117   0.143309
 H 0.3947 0.7419 0.1138   0.106117
 H 0.2489 0.6689 0.0599   0.12738
 H 0.1144 0.1792 0.2119   0.132167
 H 0.179 0.0727 0.2148   0.118019
 H 0.0187 0.0885 0.2236   0.110387
 H 0.9914 0.2103 0.9303   0.125477
 H 0.8582 0.1299 0.8637   0.11391
 H 0.0134 0.1112 0.845   0.104919
 H 0.8582 0.3274 0.2884   0.130281
 H 0.7557 0.2998 0.3444   0.122576
 H 0.9009 0.2473 0.3374   0.113377
 H 0.283 0.6398 0.4795   0.132956
 H 0.1876 0.7311 0.5236   0.105371
 H 0.1507 0.6637 0.4186   0.108564
 H 0.413 0.3727 0.1486   0.084039
 H 0.6613 0.4296 0.1932   0.140313
 H 0.7387 0.6066 0.2766   0.095224
 H 0.675 0.8023 0.3534   0.098474
 H 0.5141 0.9183 0.3804   0.107048
 H 0.2501 0.9463 0.3848   0.095731
 H 0.0126 0.8778 0.3293   0.123232
 H 0.9553 0.6956 0.2353   0.059655
 C 0.809 0.5269 0.0315   0.697087
 C 0.648 0.5142 0.0147   -0.188591
 C 0.5767 0.6052 0.0418   0.066867
 C 0.6587 0.7144 0.0853   -0.339612
 C 0.5763 0.4086 0.9726   0.083097
 C 0.6558 0.3098 0.9443   -0.357304
 C 0.9564 0.7695 0.916   0.629839
 C 0.9785 0.8887 0.9598   -0.153358
 C 0.9548 0.9533 0.9063   0.081896
 C 0.9063 0.8982 0.8048   -0.337849
 C 0.0236 0.9371 0.0519   0.060381
 C 0.0419 0.8645 0.1086   -0.340239
 C 0.9593 0.5262 0.6777   0.631107
 C 0.9793 0.5116 0.5843   -0.145767
 C 0.0696 0.5931 0.5754   0.0694
 C 0.1455 0.6882 0.6588   -0.340229
 C 0.908 0.422 0.5102   0.063836
 C 0.8132 0.3395 0.5233   -0.342037
 C 0.556 0.5535 0.8178   0.199726
 C 0.4045 0.5198 0.7906   -0.157987
 C 0.3599 0.4154 0.7421   -0.012364
 C 0.4562 0.3363 0.7178   -0.019871
 C 0.422 0.2248 0.6678   -0.079632
 C 0.5163 0.1563 0.6489   -0.13535
 C 0.6693 0.1941 0.6728   -0.013534
 C 0.7747 0.1273 0.6521   -0.027539
 C 0.9149 0.1672 0.6847   -0.200313
 C 0.9479 0.2784 0.7404   0.208462
 C 0.7155 0.3033 0.7262   0.160364
 C 0.6072 0.3785 0.7485   0.143988
 C 0.191 0.4731 0.9685   0.697088
 C 0.352 0.4858 0.9853   -0.188591
 C 0.4233 0.3948 0.9582   0.066867
 C 0.3413 0.2856 0.9147   -0.339613
 C 0.4237 0.5914 0.0274   0.083096
 C 0.3442 0.6902 0.0557   -0.357304
 C 0.0436 0.2305 0.084   0.629839
 C 0.0215 0.1113 0.0402   -0.153361
 C 0.0452 0.0467 0.0937   0.081905
 C 0.0937 0.1018 0.1952   -0.337851
 C 0.9764 0.0629 0.9481   0.06039
 C 0.9581 0.1355 0.8914   -0.340242
 C 0.0407 0.4738 0.3223   0.631107
 C 0.0207 0.4884 0.4157   -0.145767
 C 0.9304 0.4069 0.4246   0.069399
 C 0.8545 0.3118 0.3412   -0.340229
 C 0.092 0.578 0.4898   0.063836
 C 0.1868 0.6605 0.4767   -0.342036
 C 0.444 0.4465 0.1822   0.199726
 C 0.5955 0.4802 0.2094   -0.157987
 C 0.6401 0.5846 0.2579   -0.012365
 C 0.5438 0.6637 0.2822   -0.019871
 C 0.578 0.7752 0.3322   -0.079633
 C 0.4837 0.8437 0.3511   -0.13535
 C 0.3307 0.8059 0.3272   -0.013534
 C 0.2253 0.8727 0.3479   -0.027539
 C 0.0851 0.8328 0.3153   -0.200313
 C 0.0521 0.7216 0.2596   0.208462
 C 0.2845 0.6967 0.2738   0.160364
 C 0.3928 0.6215 0.2515   0.143988
 N 0.6532 0.4855 0.7976   -0.361561
 N 0.855 0.3475 0.7607   -0.365526
 N 0.3468 0.5145 0.2024   -0.361561
 N 0.145 0.6525 0.2393   -0.365526
 O 0.8676 0.5507 0.9756   -0.590667
 O 0.8766 0.515 0.0986   -0.550805
 O 0.8274 0.7161 0.8951   -0.579292
 O 0.0575 0.7124 0.8973   -0.558335
 O 0.052 0.4983 0.7277   -0.561238
 O 0.8476 0.5608 0.7031   -0.570647
 O 0.1324 0.4493 0.0244   -0.590667
 O 0.1234 0.485 0.9014   -0.550805
 O 0.1726 0.2839 0.1049   -0.579292
 O 0.9425 0.2876 0.1027   -0.558335
 O 0.948 0.5017 0.2723   -0.561238
 O 0.1524 0.4392 0.2969   -0.570647
