{'_ref': 'TBD', '_srcid': 'CAKYAQ_clean', 'submitters': [{'name': 'Dalar Nazarian Jeff Camp and David Sholl', 'email': 'dalar@gatech.edu jcamp6@gatech.edu'}], '_method': 'VASP DFT with PBE;DDEC'}
data_AgH6C6(SO)2
_symmetry_space_group_name_H-M   'P 1'
_cell_length_a   12.96770000
_cell_length_b   12.96770000
_cell_length_c   13.54500000
_cell_angle_alpha   90.00000000
_cell_angle_beta   90.00000000
_cell_angle_gamma   90.00000000
_symmetry_Int_Tables_number   1
_chemical_formula_structural   AgH6C6(SO)2
_chemical_formula_sum   'Ag8 H48 C48 S16 O16'
_cell_volume   2277.74404036
_cell_formula_units_Z   8
loop_
 _symmetry_equiv_pos_site_id
 _symmetry_equiv_pos_as_xyz
  1  'x, y, z'
loop_
 _atom_site_label
 _atom_site_fract_x
 _atom_site_fract_y
 _atom_site_fract_z
 _atom_site_charge
 Ag 0.83191 0.33163 0.7474   0.31623
 Ag 0.66809 0.16837 0.7474   0.316229
 Ag 0.66837 0.33191 0.2474   0.31623
 Ag 0.83163 0.16809 0.2474   0.316229
 Ag 0.16809 0.66837 0.2526   0.31623
 Ag 0.33191 0.83163 0.2526   0.316229
 Ag 0.33163 0.66809 0.7526   0.31623
 Ag 0.16837 0.83191 0.7526   0.316229
 H 0.0758 0.3145 0.7822   0.114883
 H 0.1063 0.3692 0.6803   0.140731
 H 0.1561 0.4083 0.7818   0.125818
 H 0.0289 0.7888 0.9912   0.145794
 H 0.1018 0.8557 0.0619   0.140083
 H 0.0076 0.7919 0.1076   0.110132
 H 0.4242 0.1855 0.7822   0.114883
 H 0.3937 0.1308 0.6803   0.140732
 H 0.3439 0.0917 0.7818   0.125818
 H 0.4711 0.7112 0.9912   0.145794
 H 0.3982 0.6443 0.0619   0.140083
 H 0.4924 0.7081 0.1076   0.110132
 H 0.6855 0.5758 0.2822   0.114883
 H 0.6308 0.6063 0.1803   0.140732
 H 0.5917 0.6561 0.2818   0.125818
 H 0.2112 0.5289 0.4912   0.145794
 H 0.1443 0.6018 0.5619   0.140083
 H 0.2081 0.5076 0.6076   0.110133
 H 0.8145 0.9242 0.2822   0.114883
 H 0.8692 0.8937 0.1803   0.140732
 H 0.9083 0.8439 0.2818   0.125818
 H 0.2888 0.9711 0.4912   0.145795
 H 0.3557 0.8982 0.5619   0.140083
 H 0.2919 0.9924 0.6076   0.110133
 H 0.9242 0.6855 0.2178   0.114884
 H 0.8937 0.6308 0.3197   0.140733
 H 0.8439 0.5917 0.2182   0.125819
 H 0.9711 0.2112 0.0088   0.145794
 H 0.8982 0.1443 0.9381   0.140083
 H 0.9924 0.2081 0.8924   0.110133
 H 0.5758 0.8145 0.2178   0.114884
 H 0.6063 0.8692 0.3197   0.140733
 H 0.6561 0.9083 0.2182   0.125819
 H 0.5289 0.2888 0.0088   0.145794
 H 0.6018 0.3557 0.9381   0.140083
 H 0.5076 0.2919 0.8924   0.110133
 H 0.3145 0.4242 0.7178   0.114884
 H 0.3692 0.3937 0.8197   0.140733
 H 0.4083 0.3439 0.7182   0.125819
 H 0.7888 0.4711 0.5088   0.145794
 H 0.8557 0.3982 0.4381   0.140083
 H 0.7919 0.4924 0.3924   0.110133
 H 0.1855 0.0758 0.7178   0.114884
 H 0.1308 0.1063 0.8197   0.140733
 H 0.0917 0.1561 0.7182   0.125819
 H 0.7112 0.0289 0.5088   0.145794
 H 0.6443 0.1018 0.4381   0.140083
 H 0.7081 0.0076 0.3924   0.110133
 C 0.123 0.6224 0.8639   0.603393
 C 0.0574 0.5591 0.9343   -0.07814
 C 0.9966 0.4823 0.8977   0.02734
 C 0.0583 0.5812 0.0371   0.012243
 C 0.0937 0.3803 0.7509   -0.303919
 C 0.0612 0.7922 0.0566   -0.300715
 C 0.377 0.8776 0.8639   0.603393
 C 0.4426 0.9409 0.9343   -0.07814
 C 0.5034 0.0177 0.8977   0.02734
 C 0.4417 0.9188 0.0371   0.012243
 C 0.4063 0.1197 0.7509   -0.303919
 C 0.4388 0.7078 0.0566   -0.300715
 C 0.3776 0.623 0.3639   0.603393
 C 0.4409 0.5574 0.4343   -0.07814
 C 0.5177 0.4966 0.3977   0.02734
 C 0.4188 0.5583 0.5371   0.012243
 C 0.6197 0.5937 0.2509   -0.303919
 C 0.2078 0.5612 0.5566   -0.300715
 C 0.1224 0.877 0.3639   0.603393
 C 0.0591 0.9426 0.4343   -0.07814
 C 0.9823 0.0034 0.3977   0.02734
 C 0.0812 0.9417 0.5371   0.012243
 C 0.8803 0.9063 0.2509   -0.303919
 C 0.2922 0.9388 0.5566   -0.300715
 C 0.877 0.3776 0.1361   0.603393
 C 0.9426 0.4409 0.0657   -0.07814
 C 0.0034 0.5177 0.1023   0.027341
 C 0.9417 0.4188 0.9629   0.012244
 C 0.9063 0.6197 0.2491   -0.30392
 C 0.9388 0.2078 0.9434   -0.300715
 C 0.623 0.1224 0.1361   0.603393
 C 0.5574 0.0591 0.0657   -0.07814
 C 0.4966 0.9823 0.1023   0.027341
 C 0.5583 0.0812 0.9629   0.012244
 C 0.5937 0.8803 0.2491   -0.30392
 C 0.5612 0.2922 0.9434   -0.300715
 C 0.6224 0.377 0.6361   0.603393
 C 0.5591 0.4426 0.5657   -0.07814
 C 0.4823 0.5034 0.6023   0.027341
 C 0.5812 0.4417 0.4629   0.012244
 C 0.3803 0.4063 0.7491   -0.30392
 C 0.7922 0.4388 0.4434   -0.300715
 C 0.8776 0.123 0.6361   0.603393
 C 0.9409 0.0574 0.5657   -0.07814
 C 0.0177 0.9966 0.6023   0.027341
 C 0.9188 0.0583 0.4629   0.012244
 C 0.1197 0.0937 0.7491   -0.30392
 C 0.7078 0.0612 0.4434   -0.300715
 S 0.9886 0.4704 0.7664   0.024809
 S 0.1458 0.6807 0.0735   0.02403
 S 0.5114 0.0296 0.7664   0.024809
 S 0.3542 0.8193 0.0735   0.02403
 S 0.5296 0.4886 0.2664   0.024809
 S 0.3193 0.6458 0.5735   0.02403
 S 0.9704 0.0114 0.2664   0.024809
 S 0.1807 0.8542 0.5735   0.02403
 S 0.0114 0.5296 0.2336   0.02481
 S 0.8542 0.3193 0.9265   0.02403
 S 0.4886 0.9704 0.2336   0.02481
 S 0.6458 0.1807 0.9265   0.02403
 S 0.4704 0.5114 0.7336   0.02481
 S 0.6807 0.3542 0.4265   0.02403
 S 0.0296 0.9886 0.7336   0.02481
 S 0.8193 0.1458 0.4265   0.02403
 O 0.0859 0.7053 0.8369   -0.543219
 O 0.2096 0.5853 0.8414   -0.559496
 O 0.4141 0.7947 0.8369   -0.543219
 O 0.2904 0.9147 0.8414   -0.559496
 O 0.2947 0.5859 0.3369   -0.543219
 O 0.4147 0.7096 0.3414   -0.559496
 O 0.2053 0.9141 0.3369   -0.543219
 O 0.0853 0.7904 0.3414   -0.559496
 O 0.9141 0.2947 0.1631   -0.543219
 O 0.7904 0.4147 0.1586   -0.559496
 O 0.5859 0.2053 0.1631   -0.543219
 O 0.7096 0.0853 0.1586   -0.559496
 O 0.7053 0.4141 0.6631   -0.543219
 O 0.5853 0.2904 0.6586   -0.559496
 O 0.7947 0.0859 0.6631   -0.543219
 O 0.9147 0.2096 0.6586   -0.559496
