{'_ref': 'TBD', '_srcid': 'CAKYAQ_clean', 'submitters': [{'name': 'Dalar Nazarian Jeff Camp and David Sholl', 'email': 'dalar@gatech.edu jcamp6@gatech.edu'}], '_method': 'VASP DFT with PBE;DDEC'}
data_MnH2(CO2)2
_symmetry_space_group_name_H-M   'P 1'
_cell_length_a   10.20700000
_cell_length_b   11.72030026
_cell_length_c   14.95560000
_cell_angle_alpha   91.43900112
_cell_angle_beta   90.00000000
_cell_angle_gamma   90.00000000
_symmetry_Int_Tables_number   1
_chemical_formula_structural   MnH2(CO2)2
_chemical_formula_sum   'Mn12 H24 C24 O48'
_cell_volume   1788.56079828
_cell_formula_units_Z   12
loop_
 _symmetry_equiv_pos_site_id
 _symmetry_equiv_pos_as_xyz
  1  'x, y, z'
loop_
 _atom_site_label
 _atom_site_fract_x
 _atom_site_fract_y
 _atom_site_fract_z
 _atom_site_charge
 Mn 0.07935 0.74315 0.86888   1.158456
 Mn 0.39286 0.73978 0.81304   1.149638
 Mn 0.57935 0.75685 0.63112   1.158456
 Mn 0.89286 0.76022 0.68696   1.149639
 Mn 0.92065 0.25685 0.13112   1.158456
 Mn 0.60714 0.26022 0.18696   1.149639
 Mn 0.42065 0.24315 0.36888   1.158456
 Mn 0.10714 0.23978 0.31304   1.149639
 Mn 0.0 0.0 0.0   1.160332
 Mn 0.5 0.5 0.5   1.160332
 Mn 0.0 0.5 0.0   1.173854
 Mn 0.5 0.0 0.5   1.173853
 H 0.8076 0.5265 0.7726   -0.006484
 H 0.2944 0.5068 0.9832   0.004191
 H 0.2412 0.6402 0.6354   -0.007305
 H 0.3765 0.9372 0.96   0.001928
 H 0.9662 0.0197 0.7385   0.001574
 H 0.847 0.7997 0.0728   0.003127
 H 0.3076 0.9735 0.7274   -0.006485
 H 0.7944 0.9932 0.5168   0.004191
 H 0.7412 0.8598 0.8646   -0.007305
 H 0.8765 0.5628 0.54   0.001928
 H 0.4662 0.4803 0.7615   0.001573
 H 0.347 0.7003 0.4272   0.003127
 H 0.1924 0.4735 0.2274   -0.006483
 H 0.7056 0.4932 0.0168   0.00419
 H 0.7588 0.3598 0.3646   -0.007305
 H 0.6235 0.0628 0.04   0.001922
 H 0.0338 0.9803 0.2615   0.001574
 H 0.153 0.2003 0.9272   0.003129
 H 0.6924 0.0265 0.2726   -0.006484
 H 0.2056 0.0068 0.4832   0.004189
 H 0.2588 0.1402 0.1354   -0.007305
 H 0.1235 0.4372 0.46   0.001922
 H 0.5338 0.5197 0.2385   0.001573
 H 0.653 0.2997 0.5728   0.003129
 C 0.8687 0.5519 0.8157   0.698179
 C 0.2774 0.5673 0.9448   0.703193
 C 0.1734 0.6711 0.6709   0.702774
 C 0.2868 0.9224 0.9511   0.694275
 C 0.9856 0.9794 0.7905   0.699002
 C 0.8999 0.7578 0.0324   0.709014
 C 0.3687 0.9481 0.6843   0.698178
 C 0.7774 0.9327 0.5552   0.703193
 C 0.6734 0.8289 0.8291   0.702771
 C 0.7868 0.5776 0.5489   0.694275
 C 0.4856 0.5206 0.7095   0.699002
 C 0.3999 0.7422 0.4676   0.709013
 C 0.1313 0.4481 0.1843   0.698179
 C 0.7226 0.4327 0.0552   0.703193
 C 0.8266 0.3289 0.3291   0.702774
 C 0.7132 0.0776 0.0489   0.694277
 C 0.0144 0.0206 0.2095   0.699002
 C 0.1001 0.2422 0.9676   0.709014
 C 0.6313 0.0519 0.3157   0.698178
 C 0.2226 0.0673 0.4448   0.703194
 C 0.3266 0.1711 0.1709   0.702771
 C 0.2132 0.4224 0.4511   0.694277
 C 0.5144 0.4794 0.2905   0.699002
 C 0.6001 0.2578 0.5324   0.709013
 O 0.9192 0.6488 0.80415   -0.677977
 O 0.066 0.6844 0.63412   -0.609033
 O 0.2577 0.8458 0.89266   -0.680364
 O 0.971 0.8141 0.97941   -0.680885
 O 0.2005 0.6952 0.75174   -0.672315
 O 0.9926 0.87222 0.78228   -0.67942
 O 0.1587 0.5992 0.93837   -0.673151
 O 0.2097 0.9789 0.99701   -0.591848
 O 0.3722 0.6074 0.90578   -0.602251
 O 0.0016 0.0357 0.85901   -0.602766
 O 0.8947 0.6536 0.0352   -0.610354
 O 0.8906 0.4876 0.87697   -0.598288
 O 0.4192 0.8512 0.69585   -0.677977
 O 0.566 0.8156 0.86588   -0.609032
 O 0.7577 0.6542 0.60734   -0.680364
 O 0.471 0.6859 0.52059   -0.680885
 O 0.7005 0.8048 0.74826   -0.672315
 O 0.4926 0.62778 0.71772   -0.67942
 O 0.6587 0.9008 0.56163   -0.673151
 O 0.7097 0.5211 0.50299   -0.591848
 O 0.8722 0.8926 0.59422   -0.602251
 O 0.5016 0.4643 0.64099   -0.602766
 O 0.3947 0.8464 0.4648   -0.610354
 O 0.3906 0.0124 0.62303   -0.598288
 O 0.0808 0.3512 0.19585   -0.677977
 O 0.934 0.3156 0.36588   -0.609033
 O 0.7423 0.1542 0.10734   -0.680364
 O 0.029 0.1859 0.02059   -0.680885
 O 0.7995 0.3048 0.24826   -0.672315
 O 0.0074 0.12778 0.21772   -0.67942
 O 0.8413 0.4008 0.06163   -0.673151
 O 0.7903 0.0211 0.00299   -0.591848
 O 0.6278 0.3926 0.09422   -0.602251
 O 0.9984 0.9643 0.14099   -0.602766
 O 0.1053 0.3464 0.9648   -0.610354
 O 0.1094 0.5124 0.12303   -0.598288
 O 0.5808 0.1488 0.30415   -0.677977
 O 0.434 0.1844 0.13412   -0.609032
 O 0.2423 0.3458 0.39266   -0.680365
 O 0.529 0.3141 0.47941   -0.680885
 O 0.2995 0.1952 0.25174   -0.672315
 O 0.5074 0.37222 0.28228   -0.67942
 O 0.3413 0.0992 0.43837   -0.673151
 O 0.2903 0.4789 0.49701   -0.591848
 O 0.1278 0.1074 0.40578   -0.602251
 O 0.4984 0.5357 0.35901   -0.602766
 O 0.6053 0.1536 0.5352   -0.610354
 O 0.6094 0.9876 0.37697   -0.598288
