{'_ref': 'TBD', '_srcid': 'CAKYAQ_clean', 'submitters': [{'name': 'Dalar Nazarian Jeff Camp and David Sholl', 'email': 'dalar@gatech.edu jcamp6@gatech.edu'}], '_method': 'VASP DFT with PBE;DDEC'}
data_MnH2(CO2)2
_symmetry_space_group_name_H-M   'P 1'
_cell_length_a   10.17610000
_cell_length_b   11.72610000
_cell_length_c   14.92180000
_cell_angle_alpha   91.56749976
_cell_angle_beta   90.00000000
_cell_angle_gamma   90.00000000
_symmetry_Int_Tables_number   1
_chemical_formula_structural   MnH2(CO2)2
_chemical_formula_sum   'Mn12 H24 C24 O48'
_cell_volume   1779.89190353
_cell_formula_units_Z   12
loop_
 _symmetry_equiv_pos_site_id
 _symmetry_equiv_pos_as_xyz
  1  'x, y, z'
loop_
 _atom_site_label
 _atom_site_fract_x
 _atom_site_fract_y
 _atom_site_fract_z
 _atom_site_charge
 Mn 0.91999 0.75714 0.131   1.155619
 Mn 0.10573 0.73983 0.31365   1.14868
 Mn 0.41999 0.74286 0.369   1.155619
 Mn 0.60573 0.76017 0.18635   1.14868
 Mn 0.08001 0.24286 0.869   1.155619
 Mn 0.89427 0.26017 0.68635   1.14868
 Mn 0.58001 0.25714 0.631   1.155619
 Mn 0.39427 0.23983 0.81365   1.14868
 Mn 0.0 0.5 0.0   1.16414
 Mn 0.5 0.0 0.5   1.16414
 Mn 0.0 0.0 0.0   1.175301
 Mn 0.5 0.5 0.5   1.175301
 H 0.757 0.8594 0.3634   -0.009557
 H 0.035 0.48 0.265   0.012042
 H 0.62 0.5651 0.0391   0.004996
 H 0.2 0.9709 0.2319   0.004641
 H 0.156 0.6978 0.9288   0.006144
 H 0.703 0.9934 0.0174   0.004443
 H 0.257 0.6406 0.1366   -0.009557
 H 0.535 0.02 0.235   0.012041
 H 0.12 0.9349 0.4609   0.004996
 H 0.7 0.5291 0.2681   0.004641
 H 0.656 0.8022 0.5712   0.006144
 H 0.203 0.5066 0.4826   0.004442
 H 0.243 0.1406 0.6366   -0.009557
 H 0.965 0.52 0.735   0.012041
 H 0.38 0.4349 0.9609   0.004992
 H 0.8 0.0291 0.7681   0.004641
 H 0.844 0.3022 0.0712   0.006144
 H 0.297 0.0066 0.9826   0.004442
 H 0.743 0.3594 0.8634   -0.009557
 H 0.465 0.98 0.765   0.01204
 H 0.88 0.0651 0.5391   0.004992
 H 0.3 0.4709 0.7319   0.004641
 H 0.344 0.1978 0.4288   0.006144
 H 0.797 0.4934 0.5174   0.004441
 C 0.8248 0.82988 0.32888   0.70558
 C 0.0115 0.51997 0.21057   0.671296
 C 0.7115 0.5779 0.0474   0.685262
 C 0.133 0.94843 0.18513   0.666437
 C 0.1014 0.74222 0.96792   0.701367
 C 0.7217 0.93374 0.05464   0.70557
 C 0.3248 0.67012 0.17112   0.705578
 C 0.5115 0.98003 0.28943   0.671296
 C 0.2115 0.9221 0.4526   0.685262
 C 0.633 0.55157 0.31487   0.666436
 C 0.6014 0.75778 0.53208   0.701366
 C 0.2217 0.56626 0.44536   0.70557
 C 0.1752 0.17012 0.67112   0.70558
 C 0.9885 0.48003 0.78943   0.671297
 C 0.2885 0.4221 0.9526   0.685263
 C 0.867 0.05157 0.81487   0.666437
 C 0.8986 0.25778 0.03208   0.701367
 C 0.2783 0.06626 0.94536   0.70557
 C 0.6752 0.32988 0.82888   0.705578
 C 0.4885 0.01997 0.71057   0.671296
 C 0.7885 0.0779 0.5474   0.685263
 C 0.367 0.44843 0.68513   0.666436
 C 0.3986 0.24222 0.46792   0.701366
 C 0.7783 0.43374 0.55464   0.70557
 O 0.79829 0.80556 0.24749   -0.672516
 O 0.93242 0.81708 0.36659   -0.607549
 O 0.00538 0.62808 0.21847   -0.671096
 O 0.99505 0.46295 0.14126   -0.595654
 O 0.74133 0.65417 0.10655   -0.678287
 O 0.78862 0.52086 0.000709999999998   -0.588725
 O 0.08064 0.85073 0.19641   -0.672619
 O 0.11057 0.01328 0.12359   -0.585025
 O 0.02942 0.68519 0.02076   -0.676885
 O 0.10715 0.84705 0.96478   -0.607329
 O 0.84078 0.90086 0.0609   -0.67243
 O 0.62572 0.893 0.09299   -0.604121
 O 0.29829 0.69444 0.25251   -0.672516
 O 0.43242 0.68292 0.13341   -0.607548
 O 0.50538 0.87192 0.28153   -0.671096
 O 0.49505 0.03705 0.35874   -0.595654
 O 0.24133 0.84583 0.39345   -0.678287
 O 0.28862 0.97914 0.49929   -0.588725
 O 0.58064 0.64927 0.30359   -0.672619
 O 0.61057 0.48672 0.37641   -0.585025
 O 0.52942 0.81481 0.47924   -0.676885
 O 0.60715 0.65295 0.53522   -0.607328
 O 0.34078 0.59914 0.4391   -0.67243
 O 0.12572 0.607 0.40701   -0.604121
 O 0.20171 0.19444 0.75251   -0.672516
 O 0.06758 0.18292 0.63341   -0.607549
 O 0.99462 0.37192 0.78153   -0.671096
 O 0.00495 0.53705 0.85874   -0.595654
 O 0.25867 0.34583 0.89345   -0.678287
 O 0.21138 0.47914 0.99929   -0.588726
 O 0.91936 0.14927 0.80359   -0.672619
 O 0.88943 0.98672 0.87641   -0.585025
 O 0.97058 0.31481 0.97924   -0.676885
 O 0.89285 0.15295 0.03522   -0.607329
 O 0.15922 0.09914 0.9391   -0.67243
 O 0.37428 0.107 0.90701   -0.604121
 O 0.70171 0.30556 0.74749   -0.672516
 O 0.56758 0.31708 0.86659   -0.607549
 O 0.49462 0.12808 0.71847   -0.671096
 O 0.50495 0.96295 0.64126   -0.595654
 O 0.75867 0.15417 0.60655   -0.678287
 O 0.71138 0.02086 0.50071   -0.588726
 O 0.41936 0.35073 0.69641   -0.672619
 O 0.38943 0.51328 0.62359   -0.585025
 O 0.47058 0.18519 0.52076   -0.676885
 O 0.39285 0.34705 0.46478   -0.607328
 O 0.65922 0.40086 0.5609   -0.67243
 O 0.87428 0.393 0.59299   -0.604121
