{'_ref': 'TBD', '_srcid': 'CAKYAQ_clean', 'submitters': [{'name': 'Dalar Nazarian Jeff Camp and David Sholl', 'email': 'dalar@gatech.edu jcamp6@gatech.edu'}], '_method': 'VASP DFT with PBE;DDEC'}
data_MnH2(CO2)2
_symmetry_space_group_name_H-M   'P 1'
_cell_length_a   10.19230000
_cell_length_b   11.72930021
_cell_length_c   14.93810000
_cell_angle_alpha   91.54900115
_cell_angle_beta   90.00000000
_cell_angle_gamma   90.00000000
_symmetry_Int_Tables_number   1
_chemical_formula_structural   MnH2(CO2)2
_chemical_formula_sum   'Mn12 H24 C24 O48'
_cell_volume   1785.17555204
_cell_formula_units_Z   12
loop_
 _symmetry_equiv_pos_site_id
 _symmetry_equiv_pos_as_xyz
  1  'x, y, z'
loop_
 _atom_site_label
 _atom_site_fract_x
 _atom_site_fract_y
 _atom_site_fract_z
 _atom_site_charge
 Mn 0.92054 0.75701 0.13103   1.153088
 Mn 0.10669 0.73976 0.31325   1.149664
 Mn 0.42054 0.74299 0.36897   1.153088
 Mn 0.60669 0.76024 0.18675   1.149664
 Mn 0.07946 0.24299 0.86897   1.153088
 Mn 0.89331 0.26024 0.68675   1.149664
 Mn 0.57946 0.25701 0.63103   1.153088
 Mn 0.39331 0.23976 0.81325   1.149664
 Mn 0.0 0.5 0.0   1.166977
 Mn 0.5 0.0 0.5   1.166977
 Mn 0.0 0.0 0.0   1.170517
 Mn 0.5 0.5 0.5   1.170517
 H 0.755 0.8638 0.3648   0.001787
 H 0.034 0.4847 0.2637   0.002562
 H 0.624 0.5643 0.0413   -0.002028
 H 0.2 0.969 0.228   0.000699
 H 0.156 0.7001 0.9261   0.00845
 H 0.703 0.9966 0.0106   0.018422
 H 0.255 0.6362 0.1352   0.001787
 H 0.534 0.0153 0.2363   0.00256
 H 0.124 0.9357 0.4587   -0.002028
 H 0.7 0.531 0.272   0.000698
 H 0.656 0.7999 0.5739   0.00845
 H 0.203 0.5034 0.4894   0.018421
 H 0.245 0.1362 0.6352   0.001787
 H 0.966 0.5153 0.7363   0.002561
 H 0.376 0.4357 0.9587   -0.002032
 H 0.8 0.031 0.772   0.000699
 H 0.844 0.2999 0.0739   0.008449
 H 0.297 0.0034 0.9894   0.01842
 H 0.745 0.3638 0.8648   0.001787
 H 0.466 0.9847 0.7637   0.002559
 H 0.876 0.0643 0.5413   -0.002032
 H 0.3 0.469 0.728   0.000698
 H 0.344 0.2001 0.4261   0.008449
 H 0.797 0.4966 0.5106   0.018419
 C 0.8263 0.82912 0.32922   0.681651
 C 0.0128 0.52062 0.20992   0.692952
 C 0.7126 0.57818 0.04858   0.701536
 C 0.1329 0.94802 0.18452   0.681321
 C 0.1005 0.74274 0.96794   0.69617
 C 0.7228 0.93337 0.05467   0.666661
 C 0.3263 0.67088 0.17078   0.681649
 C 0.5128 0.97938 0.29008   0.692952
 C 0.2126 0.92182 0.45142   0.701536
 C 0.6329 0.55198 0.31548   0.68132
 C 0.6005 0.75726 0.53206   0.696169
 C 0.2228 0.56663 0.44533   0.666662
 C 0.1737 0.17088 0.67078   0.681651
 C 0.9872 0.47938 0.79008   0.692952
 C 0.2874 0.42182 0.95142   0.701537
 C 0.8671 0.05198 0.81548   0.681321
 C 0.8995 0.25726 0.03206   0.696171
 C 0.2772 0.06663 0.94533   0.666662
 C 0.6737 0.32912 0.82922   0.681649
 C 0.4872 0.02062 0.70992   0.692953
 C 0.7874 0.07818 0.54858   0.701537
 C 0.3671 0.44802 0.68452   0.68132
 C 0.3995 0.24274 0.46794   0.69617
 C 0.7772 0.43337 0.55467   0.666662
 O 0.79907 0.80524 0.24796   -0.668004
 O 0.93376 0.81638 0.36606   -0.598361
 O 0.00669 0.62794 0.21803   -0.676968
 O 0.99691 0.46331 0.1411   -0.602706
 O 0.74204 0.6543 0.10686   -0.677833
 O 0.78916 0.52088 0.00195   -0.597581
 O 0.0811 0.85093 0.19631   -0.673969
 O 0.10977 0.01246 0.12284   -0.593571
 O 0.02887 0.68525 0.0205   -0.679378
 O 0.10612 0.84657 0.96479   -0.602016
 O 0.84116 0.90069 0.06136   -0.656152
 O 0.62712 0.89287 0.09375   -0.595136
 O 0.29907 0.69476 0.25204   -0.668004
 O 0.43376 0.68362 0.13394   -0.598361
 O 0.50669 0.87206 0.28197   -0.676968
 O 0.49691 0.03669 0.3589   -0.602706
 O 0.24204 0.8457 0.39314   -0.677833
 O 0.28916 0.97912 0.49805   -0.597581
 O 0.5811 0.64907 0.30369   -0.673969
 O 0.60977 0.48754 0.37716   -0.593571
 O 0.52887 0.81475 0.4795   -0.679378
 O 0.60612 0.65343 0.53521   -0.602016
 O 0.34116 0.59931 0.43864   -0.656152
 O 0.12712 0.60713 0.40625   -0.595136
 O 0.20093 0.19476 0.75204   -0.668004
 O 0.06624 0.18362 0.63394   -0.598361
 O 0.99331 0.37206 0.78197   -0.676968
 O 0.00309 0.53669 0.8589   -0.602706
 O 0.25796 0.3457 0.89314   -0.677833
 O 0.21084 0.47912 0.99805   -0.597581
 O 0.9189 0.14907 0.80369   -0.673969
 O 0.89023 0.98754 0.87716   -0.593571
 O 0.97113 0.31475 0.9795   -0.679378
 O 0.89388 0.15343 0.03521   -0.602016
 O 0.15884 0.09931 0.93864   -0.656152
 O 0.37288 0.10713 0.90625   -0.595136
 O 0.70093 0.30524 0.74796   -0.668004
 O 0.56624 0.31638 0.86606   -0.598361
 O 0.49331 0.12794 0.71803   -0.676968
 O 0.50309 0.96331 0.6411   -0.602706
 O 0.75796 0.1543 0.60686   -0.677833
 O 0.71084 0.02088 0.50195   -0.597581
 O 0.4189 0.35093 0.69631   -0.673969
 O 0.39023 0.51246 0.62284   -0.593571
 O 0.47113 0.18525 0.5205   -0.679378
 O 0.39388 0.34657 0.46479   -0.602016
 O 0.65884 0.40069 0.56136   -0.656152
 O 0.87288 0.39287 0.59375   -0.595136
