{'_ref': 'TBD', '_srcid': 'CAKYAQ_clean', 'submitters': [{'name': 'Dalar Nazarian Jeff Camp and David Sholl', 'email': 'dalar@gatech.edu jcamp6@gatech.edu'}], '_method': 'VASP DFT with PBE;DDEC'}
data_CuH2C3O4
_symmetry_space_group_name_H-M   'P 1'
_cell_length_a   8.42210000
_cell_length_b   8.42210000
_cell_length_c   12.04900000
_cell_angle_alpha   90.00000000
_cell_angle_beta   90.00000000
_cell_angle_gamma   90.00000000
_symmetry_Int_Tables_number   1
_chemical_formula_structural   CuH2C3O4
_chemical_formula_sum   'Cu4 H8 C12 O16'
_cell_volume   854.656877572
_cell_formula_units_Z   4
loop_
 _symmetry_equiv_pos_site_id
 _symmetry_equiv_pos_as_xyz
  1  'x, y, z'
loop_
 _atom_site_label
 _atom_site_fract_x
 _atom_site_fract_y
 _atom_site_fract_z
 _atom_site_charge
 Cu 0.09745 0.69409 0.89107   0.982542
 Cu 0.90255 0.30591 0.39107   0.982542
 Cu 0.30591 0.09745 0.14107   0.982534
 Cu 0.69409 0.90255 0.64107   0.982533
 H 0.5614 0.823 0.89   0.175193
 H 0.4715 0.6692 0.9264   0.205083
 H 0.4386 0.177 0.39   0.175193
 H 0.5285 0.3308 0.4264   0.205083
 H 0.177 0.5614 0.14   0.175193
 H 0.3308 0.4715 0.1764   0.205085
 H 0.823 0.4386 0.64   0.175193
 H 0.6692 0.5285 0.6764   0.205085
 C 0.3881 0.7589 0.7796   0.777259
 C 0.4571 0.7749 0.896   -0.576922
 C 0.3604 0.8712 0.9778   0.795635
 C 0.6119 0.2411 0.2796   0.777259
 C 0.5429 0.2251 0.396   -0.576922
 C 0.6396 0.1288 0.4778   0.795635
 C 0.2411 0.3881 0.0296   0.777259
 C 0.2251 0.4571 0.146   -0.576922
 C 0.1288 0.3604 0.2278   0.795635
 C 0.7589 0.6119 0.5296   0.777259
 C 0.7749 0.5429 0.646   -0.576922
 C 0.8712 0.6396 0.7278   0.795635
 O 0.2406 0.7324 0.76956   -0.540038
 O 0.2107 0.8518 0.98214   -0.661722
 O 0.4791 0.7671 0.69825   -0.603779
 O 0.4329 0.9645 0.04024   -0.553248
 O 0.7594 0.2676 0.26956   -0.540038
 O 0.7893 0.1482 0.48214   -0.661722
 O 0.5209 0.2329 0.19825   -0.603779
 O 0.5671 0.0355 0.54024   -0.553248
 O 0.2676 0.2406 0.01956   -0.540037
 O 0.1482 0.2107 0.23214   -0.661721
 O 0.2329 0.4791 0.94825   -0.603779
 O 0.0355 0.4329 0.29024   -0.553249
 O 0.7324 0.7594 0.51956   -0.540037
 O 0.8518 0.7893 0.73214   -0.661721
 O 0.7671 0.5209 0.44825   -0.603779
 O 0.9645 0.5671 0.79024   -0.553249
