{'_ref': 'TBD', '_srcid': 'CAKYAQ_clean', 'submitters': [{'name': 'Dalar Nazarian Jeff Camp and David Sholl', 'email': 'dalar@gatech.edu jcamp6@gatech.edu'}], '_method': 'VASP DFT with PBE;DDEC'}
data_CuH2(C3O2)2
_symmetry_space_group_name_H-M   'P 1'
_cell_length_a   18.62380007
_cell_length_b   18.62379999
_cell_length_c   18.62380000
_cell_angle_alpha   59.99999998
_cell_angle_beta   60.00000013
_cell_angle_gamma   59.99999994
_symmetry_Int_Tables_number   1
_chemical_formula_structural   CuH2(C3O2)2
_chemical_formula_sum   'Cu12 H24 C72 O48'
_cell_volume   4567.61931903
_cell_formula_units_Z   12
loop_
 _symmetry_equiv_pos_site_id
 _symmetry_equiv_pos_as_xyz
  1  'x, y, z'
loop_
 _atom_site_label
 _atom_site_fract_x
 _atom_site_fract_y
 _atom_site_fract_z
 _atom_site_charge
 Cu 0.5 0.07021 0.5   0.932998
 Cu 0.07021 0.5 0.92979   0.932998
 Cu 0.5 0.92979 0.5   0.932998
 Cu 0.92979 0.5 0.07021   0.932998
 Cu 0.5 0.5 0.92979   0.933015
 Cu 0.07021 0.92979 0.5   0.933015
 Cu 0.5 0.5 0.07021   0.933014
 Cu 0.92979 0.07021 0.5   0.933014
 Cu 0.5 0.92979 0.07021   0.932998
 Cu 0.07021 0.5 0.5   0.932998
 Cu 0.5 0.07021 0.92979   0.932998
 Cu 0.92979 0.5 0.5   0.932998
 H 0.5348 0.23349 0.23544   0.1412
 H 0.23349 0.5348 0.99627   0.1412
 H 0.23544 0.99627 0.5348   0.1412
 H 0.99627 0.23544 0.23349   0.1412
 H 0.5348 0.23544 0.99627   0.141951
 H 0.23349 0.99627 0.23544   0.141951
 H 0.23544 0.5348 0.23349   0.141951
 H 0.99627 0.23349 0.5348   0.141951
 H 0.5348 0.99627 0.23544   0.141579
 H 0.23544 0.23349 0.5348   0.141579
 H 0.23349 0.23544 0.99627   0.141579
 H 0.99627 0.5348 0.23349   0.141579
 H 0.76651 0.4652 0.76456   0.1412
 H 0.4652 0.76651 0.00373   0.1412
 H 0.00373 0.76456 0.4652   0.1412
 H 0.76456 0.00373 0.76651   0.1412
 H 0.76456 0.4652 0.00373   0.141951
 H 0.00373 0.76651 0.76456   0.141951
 H 0.4652 0.76456 0.76651   0.141951
 H 0.76651 0.00373 0.4652   0.141951
 H 0.00373 0.4652 0.76456   0.141579
 H 0.76651 0.76456 0.4652   0.141579
 H 0.76456 0.76651 0.00373   0.141579
 H 0.4652 0.00373 0.76651   0.141579
 C 0.5337 0.1995 0.1995   -0.025049
 C 0.1995 0.5337 0.0673   -0.025049
 C 0.1995 0.0673 0.5337   -0.025049
 C 0.0673 0.1995 0.1995   -0.02505
 C 0.5337 0.1995 0.0673   -0.026039
 C 0.1995 0.0673 0.1995   -0.02604
 C 0.1995 0.5337 0.1995   -0.026039
 C 0.0673 0.1995 0.5337   -0.026039
 C 0.5337 0.0673 0.1995   -0.025549
 C 0.1995 0.1995 0.5337   -0.025549
 C 0.1995 0.1995 0.0673   -0.02555
 C 0.0673 0.5337 0.1995   -0.025549
 C 0.8005 0.4663 0.8005   -0.025049
 C 0.4663 0.8005 0.9327   -0.02505
 C 0.9327 0.8005 0.4663   -0.02505
 C 0.8005 0.9327 0.8005   -0.02505
 C 0.8005 0.4663 0.9327   -0.026039
 C 0.9327 0.8005 0.8005   -0.02604
 C 0.4663 0.8005 0.8005   -0.026039
 C 0.8005 0.9327 0.4663   -0.026039
 C 0.9327 0.4663 0.8005   -0.025549
 C 0.8005 0.8005 0.4663   -0.025549
 C 0.8005 0.8005 0.9327   -0.02555
 C 0.4663 0.9327 0.8005   -0.025549
 C 0.5249 0.0689 0.3373   0.676012
 C 0.533 0.1124 0.2422   -0.120884
 C 0.0689 0.5249 0.0689   0.676012
 C 0.1124 0.533 0.1124   -0.120884
 C 0.3373 0.0689 0.5249   0.676012
 C 0.2422 0.1124 0.533   -0.120884
 C 0.0689 0.3373 0.0689   0.676012
 C 0.1124 0.2422 0.1124   -0.120883
 C 0.5249 0.3373 0.0689   0.675692
 C 0.533 0.2422 0.1124   -0.119282
 C 0.0689 0.0689 0.3373   0.675692
 C 0.1124 0.1124 0.2422   -0.119281
 C 0.3373 0.5249 0.0689   0.675692
 C 0.2422 0.533 0.1124   -0.119282
 C 0.0689 0.0689 0.5249   0.675692
 C 0.1124 0.1124 0.533   -0.119282
 C 0.5249 0.0689 0.0689   0.675362
 C 0.533 0.1124 0.1124   -0.117669
 C 0.0689 0.3373 0.5249   0.675361
 C 0.1124 0.2422 0.533   -0.11767
 C 0.3373 0.0689 0.0689   0.675361
 C 0.2422 0.1124 0.1124   -0.117669
 C 0.0689 0.5249 0.3373   0.675362
 C 0.1124 0.533 0.2422   -0.11767
 C 0.9311 0.4751 0.6627   0.676012
 C 0.8876 0.467 0.7578   -0.120884
 C 0.4751 0.9311 0.9311   0.676012
 C 0.467 0.8876 0.8876   -0.120884
 C 0.9311 0.6627 0.4751   0.676012
 C 0.8876 0.7578 0.467   -0.120884
 C 0.6627 0.9311 0.9311   0.676012
 C 0.7578 0.8876 0.8876   -0.120884
 C 0.6627 0.4751 0.9311   0.675692
 C 0.7578 0.467 0.8876   -0.119282
 C 0.9311 0.9311 0.6627   0.675691
 C 0.8876 0.8876 0.7578   -0.119281
 C 0.4751 0.6627 0.9311   0.675692
 C 0.467 0.7578 0.8876   -0.119282
 C 0.9311 0.9311 0.4751   0.675692
 C 0.8876 0.8876 0.467   -0.119282
 C 0.9311 0.4751 0.9311   0.675362
 C 0.8876 0.467 0.8876   -0.117669
 C 0.6627 0.9311 0.4751   0.675361
 C 0.7578 0.8876 0.467   -0.11767
 C 0.9311 0.6627 0.9311   0.675361
 C 0.8876 0.7578 0.8876   -0.117669
 C 0.4751 0.9311 0.6627   0.675362
 C 0.467 0.8876 0.7578   -0.11767
 O 0.5212 0.1128 0.374   -0.569487
 O 0.1128 0.5212 0.992   -0.569487
 O 0.374 0.992 0.5212   -0.569486
 O 0.992 0.374 0.1128   -0.569486
 O 0.5212 0.374 0.992   -0.569507
 O 0.1128 0.992 0.374   -0.569507
 O 0.374 0.5212 0.1128   -0.569507
 O 0.992 0.1128 0.5212   -0.569507
 O 0.5212 0.992 0.1128   -0.569452
 O 0.1128 0.374 0.5212   -0.569452
 O 0.374 0.1128 0.992   -0.569452
 O 0.992 0.5212 0.374   -0.569452
 O 0.8872 0.4788 0.626   -0.569487
 O 0.4788 0.8872 0.008   -0.569487
 O 0.008 0.626 0.4788   -0.569486
 O 0.626 0.008 0.8872   -0.569486
 O 0.626 0.4788 0.008   -0.569507
 O 0.008 0.8872 0.626   -0.569507
 O 0.4788 0.626 0.8872   -0.569507
 O 0.8872 0.008 0.4788   -0.569507
 O 0.008 0.4788 0.8872   -0.569452
 O 0.626 0.8872 0.4788   -0.569452
 O 0.8872 0.626 0.008   -0.569452
 O 0.4788 0.008 0.626   -0.569452
 O 0.4788 0.8872 0.626   -0.569452
 O 0.8872 0.4788 0.008   -0.569452
 O 0.626 0.008 0.4788   -0.569452
 O 0.008 0.626 0.8872   -0.569452
 O 0.4788 0.626 0.008   -0.569439
 O 0.8872 0.008 0.626   -0.569439
 O 0.626 0.4788 0.8872   -0.569439
 O 0.008 0.8872 0.4788   -0.569439
 O 0.4788 0.008 0.8872   -0.569491
 O 0.8872 0.626 0.4788   -0.569491
 O 0.626 0.8872 0.008   -0.569491
 O 0.008 0.4788 0.626   -0.569491
 O 0.1128 0.5212 0.374   -0.569452
 O 0.5212 0.1128 0.992   -0.569452
 O 0.992 0.374 0.5212   -0.569452
 O 0.374 0.992 0.1128   -0.569452
 O 0.374 0.5212 0.992   -0.569439
 O 0.992 0.1128 0.374   -0.569439
 O 0.5212 0.374 0.1128   -0.569439
 O 0.1128 0.992 0.5212   -0.569439
 O 0.992 0.5212 0.1128   -0.569491
 O 0.374 0.1128 0.5212   -0.569491
 O 0.1128 0.374 0.992   -0.569491
 O 0.5212 0.992 0.374   -0.569491
