{'_ref': 'TBD', '_srcid': 'CAKYAQ_clean', 'submitters': [{'name': 'Dalar Nazarian Jeff Camp and David Sholl', 'email': 'dalar@gatech.edu jcamp6@gatech.edu'}], '_method': 'VASP DFT with PBE;DDEC'}
data_DyH2C7(NO3)2
_symmetry_space_group_name_H-M   'P 1'
_cell_length_a   6.05350039
_cell_length_b   9.91589953
_cell_length_c   13.29030000
_cell_angle_alpha   68.83200037
_cell_angle_beta   81.27300149
_cell_angle_gamma   76.87500098
_symmetry_Int_Tables_number   1
_chemical_formula_structural   DyH2C7(NO3)2
_chemical_formula_sum   'Dy2 H4 C14 N4 O12'
_cell_volume   722.361286577
_cell_formula_units_Z   2
loop_
 _symmetry_equiv_pos_site_id
 _symmetry_equiv_pos_as_xyz
  1  'x, y, z'
loop_
 _atom_site_label
 _atom_site_fract_x
 _atom_site_fract_y
 _atom_site_fract_z
 _atom_site_charge
 Dy 0.83464 0.61382 0.19511   2.16568
 Dy 0.16536 0.38618 0.80489   2.16568
 H 0.3266 0.0476 0.0292   0.089319
 H 0.7055 0.3214 0.6286   0.071241
 H 0.6734 0.9524 0.9708   0.089319
 H 0.2945 0.6786 0.3714   0.071241
 C 0.2894 0.7647 0.1417   0.698089
 C 0.1366 0.8929 0.0696   0.064529
 C 0.1916 0.0296 0.0158   0.215232
 C 0.9508 0.3817 0.4387   0.643618
 C 0.7108 0.4448 0.4719   0.106687
 C 0.6182 0.396 0.5769   0.226475
 C 0.0892 0.439 0.0343   0.552797
 C 0.7106 0.2353 0.8583   0.698089
 C 0.8634 0.1071 0.9304   0.064528
 C 0.8084 0.9704 0.9842   0.215231
 C 0.0492 0.6183 0.5613   0.643618
 C 0.2892 0.5552 0.5281   0.106687
 C 0.3818 0.604 0.4231   0.226475
 C 0.9108 0.561 0.9657   0.552797
 N 0.9389 0.8639 0.0539   -0.408843
 N 0.593 0.5479 0.393   -0.490613
 N 0.0611 0.1361 0.9461   -0.408843
 N 0.407 0.4521 0.607   -0.490613
 O 0.2162 0.6469 0.184   -0.660469
 O 0.4834 0.7811 0.1525   -0.712671
 O 0.0156 0.4325 0.3406   -0.717104
 O 0.0718 0.2894 0.5093   -0.573587
 O 0.0843 0.4293 0.1308   -0.600925
 O 0.2257 0.3612 0.9868   -0.669454
 O 0.7838 0.3531 0.816   -0.660469
 O 0.5166 0.2189 0.8475   -0.712671
 O 0.9844 0.5675 0.6594   -0.717104
 O 0.9282 0.7106 0.4907   -0.573588
 O 0.9157 0.5707 0.8692   -0.600925
 O 0.7743 0.6388 0.0132   -0.669454
