{'_ref': 'TBD', '_srcid': 'CAKYAQ_clean', 'submitters': [{'name': 'Dalar Nazarian Jeff Camp and David Sholl', 'email': 'dalar@gatech.edu jcamp6@gatech.edu'}], '_method': 'VASP DFT with PBE;DDEC'}
data_LaH6(C3O4)3
_symmetry_space_group_name_H-M   'P 1'
_cell_length_a   8.97090000
_cell_length_b   10.34259970
_cell_length_c   10.34260000
_cell_angle_alpha   120.00000095
_cell_angle_beta   90.00000000
_cell_angle_gamma   90.00000000
_symmetry_Int_Tables_number   1
_chemical_formula_structural   LaH6(C3O4)3
_chemical_formula_sum   'La2 H12 C18 O24'
_cell_volume   831.047960564
_cell_formula_units_Z   2
loop_
 _symmetry_equiv_pos_site_id
 _symmetry_equiv_pos_as_xyz
  1  'x, y, z'
loop_
 _atom_site_label
 _atom_site_fract_x
 _atom_site_fract_y
 _atom_site_fract_z
 _atom_site_charge
 La 0.95064 0.33333 0.66666   2.071252
 La 0.04936 0.66667 0.33334   2.071259
 H 0.5633 0.4792 0.365   0.115985
 H 0.7199 0.6285 0.5698   0.140781
 H 0.5633 0.8858 0.5208   0.115972
 H 0.7199 0.9413 0.3715   0.140803
 H 0.5633 0.635 0.1142   0.115957
 H 0.7199 0.4302 0.0587   0.140798
 H 0.4367 0.5208 0.635   0.115986
 H 0.2801 0.3715 0.4302   0.140781
 H 0.4367 0.1142 0.4792   0.115972
 H 0.2801 0.0587 0.6285   0.140803
 H 0.4367 0.365 0.8858   0.115958
 H 0.2801 0.5698 0.9413   0.140798
 C 0.5672 0.4617 0.4497   0.105564
 C 0.8427 0.4452 0.4201   0.673917
 C 0.7149 0.5204 0.5296   0.007338
 C 0.5672 0.988 0.5383   0.105611
 C 0.8427 0.9749 0.5548   0.673925
 C 0.7149 0.0092 0.4796   0.007307
 C 0.5672 0.5503 0.012   0.105658
 C 0.8427 0.5799 0.0251   0.673914
 C 0.7149 0.4704 0.9908   0.007306
 C 0.4328 0.5383 0.5503   0.105564
 C 0.1573 0.5548 0.5799   0.673919
 C 0.2851 0.4796 0.4704   0.007337
 C 0.4328 0.012 0.4617   0.105608
 C 0.1573 0.0251 0.4452   0.673927
 C 0.2851 0.9908 0.5204   0.007307
 C 0.4328 0.4497 0.988   0.105651
 C 0.1573 0.4201 0.9749   0.673915
 C 0.2851 0.5296 0.0092   0.007306
 O 0.5587 0.3038 0.3932   -0.18921
 O 0.9205 0.3514 0.4336   -0.600436
 O 0.8616 0.4804 0.3217   -0.575277
 O 0.734 0.4887 0.6489   -0.369055
 O 0.5587 0.0894 0.6962   -0.189381
 O 0.9205 0.0822 0.6486   -0.600422
 O 0.8616 0.8413 0.5196   -0.575278
 O 0.734 0.1602 0.5113   -0.369018
 O 0.5587 0.6068 0.9106   -0.189421
 O 0.9205 0.5664 0.9178   -0.600409
 O 0.8616 0.6783 0.1587   -0.575233
 O 0.734 0.3511 0.8398   -0.368963
 O 0.4413 0.6962 0.6068   -0.189203
 O 0.0795 0.6486 0.5664   -0.600436
 O 0.1384 0.5196 0.6783   -0.575276
 O 0.266 0.5113 0.3511   -0.369055
 O 0.4413 0.9106 0.3038   -0.189374
 O 0.0795 0.9178 0.3514   -0.600422
 O 0.1384 0.1587 0.4804   -0.575278
 O 0.266 0.8398 0.4887   -0.369018
 O 0.4413 0.3932 0.0894   -0.189414
 O 0.0795 0.4336 0.0822   -0.600409
 O 0.1384 0.3217 0.8413   -0.575233
 O 0.266 0.6489 0.1602   -0.368963
