{'_ref': 'TBD', '_srcid': 'CAKYAQ_clean', 'submitters': [{'name': 'Dalar Nazarian Jeff Camp and David Sholl', 'email': 'dalar@gatech.edu jcamp6@gatech.edu'}], '_method': 'VASP DFT with PBE;DDEC'}
data_PrH6(C3O4)3
_symmetry_space_group_name_H-M   'P 1'
_cell_length_a   8.90840000
_cell_length_b   10.21820019
_cell_length_c   10.21820000
_cell_angle_alpha   119.99999939
_cell_angle_beta   90.00000000
_cell_angle_gamma   90.00000000
_symmetry_Int_Tables_number   1
_chemical_formula_structural   PrH6(C3O4)3
_chemical_formula_sum   'Pr2 H12 C18 O24'
_cell_volume   805.525233322
_cell_formula_units_Z   2
loop_
 _symmetry_equiv_pos_site_id
 _symmetry_equiv_pos_as_xyz
  1  'x, y, z'
loop_
 _atom_site_label
 _atom_site_fract_x
 _atom_site_fract_y
 _atom_site_fract_z
 _atom_site_charge
 Pr 0.94804 0.33333 0.66666   2.233407
 Pr 0.05196 0.66667 0.33334   2.233484
 H 0.563 0.4821 0.3648   0.114865
 H 0.722 0.6318 0.5727   0.139511
 H 0.563 0.8827 0.5179   0.114786
 H 0.722 0.9409 0.3682   0.139627
 H 0.563 0.6352 0.1173   0.114851
 H 0.722 0.4273 0.0591   0.139709
 H 0.437 0.5179 0.6352   0.114867
 H 0.278 0.3682 0.4273   0.139512
 H 0.437 0.1173 0.4821   0.11479
 H 0.278 0.0591 0.6318   0.139628
 H 0.437 0.3648 0.8827   0.114853
 H 0.278 0.5727 0.9409   0.13971
 C 0.5673 0.4627 0.4494   0.10506
 C 0.8449 0.4458 0.4208   0.688025
 C 0.7166 0.5223 0.5313   0.019013
 C 0.5673 0.9867 0.5373   0.105105
 C 0.8449 0.975 0.5542   0.68816
 C 0.7166 0.009 0.4777   0.018848
 C 0.5673 0.5506 0.0133   0.105034
 C 0.8449 0.5792 0.025   0.688165
 C 0.7166 0.4687 0.991   0.018816
 C 0.4327 0.5373 0.5506   0.105049
 C 0.1551 0.5542 0.5792   0.688041
 C 0.2834 0.4777 0.4687   0.019016
 C 0.4327 0.0133 0.4627   0.105085
 C 0.1551 0.025 0.4458   0.68817
 C 0.2834 0.991 0.5223   0.018853
 C 0.4327 0.4494 0.9867   0.105022
 C 0.1551 0.4208 0.975   0.688179
 C 0.2834 0.5313 0.009   0.018819
 O 0.5605 0.3024 0.3899   -0.180615
 O 0.9226 0.3499 0.4341   -0.58573
 O 0.8671 0.4822 0.3225   -0.60591
 O 0.7353 0.4883 0.6508   -0.439075
 O 0.5605 0.0875 0.6976   -0.180671
 O 0.9226 0.0842 0.6501   -0.585723
 O 0.8671 0.8403 0.5178   -0.605773
 O 0.7353 0.1625 0.5117   -0.438489
 O 0.5605 0.6101 0.9125   -0.180486
 O 0.9226 0.5659 0.9158   -0.586447
 O 0.8671 0.6775 0.1597   -0.605913
 O 0.7353 0.3492 0.8375   -0.438325
 O 0.4395 0.6976 0.6101   -0.180513
 O 0.0774 0.6501 0.5659   -0.585737
 O 0.1329 0.5178 0.6775   -0.605912
 O 0.2647 0.5117 0.3492   -0.43908
 O 0.4395 0.9125 0.3024   -0.180574
 O 0.0774 0.9158 0.3499   -0.585728
 O 0.1329 0.1597 0.4822   -0.605776
 O 0.2647 0.8375 0.4883   -0.438495
 O 0.4395 0.3899 0.0875   -0.18039
 O 0.0774 0.4341 0.0842   -0.586454
 O 0.1329 0.3225 0.8403   -0.605914
 O 0.2647 0.6508 0.1625   -0.438331
