{'_ref': 'TBD', '_srcid': 'CAKYAQ_clean', 'submitters': [{'name': 'Dalar Nazarian Jeff Camp and David Sholl', 'email': 'dalar@gatech.edu jcamp6@gatech.edu'}], '_method': 'VASP DFT with PBE;DDEC'}
data_Pr2Co3H18C42(NO4)6
_symmetry_space_group_name_H-M   'P 1'
_cell_length_a   15.23480000
_cell_length_b   15.49970004
_cell_length_c   15.49970000
_cell_angle_alpha   119.99999991
_cell_angle_beta   90.00000000
_cell_angle_gamma   90.00000000
_symmetry_Int_Tables_number   1
_chemical_formula_structural   Pr2Co3H18C42(NO4)6
_chemical_formula_sum   'Pr4 Co6 H36 C84 N12 O48'
_cell_volume   3169.66945925
_cell_formula_units_Z   2
loop_
 _symmetry_equiv_pos_site_id
 _symmetry_equiv_pos_as_xyz
  1  'x, y, z'
loop_
 _atom_site_label
 _atom_site_fract_x
 _atom_site_fract_y
 _atom_site_fract_z
 _atom_site_charge
 Pr 0.25 0.33333 0.66666   2.123499
 Pr 0.25 0.66667 0.33334   2.123498
 Pr 0.75 0.66667 0.33334   2.123451
 Pr 0.75 0.33333 0.66666   2.12345
 Co 0.5 0.0 0.5   1.066089
 Co 0.5 0.5 0.0   1.061319
 Co 0.5 0.5 0.5   1.06028
 Co 0.0 0.5 0.5   1.066092
 Co 0.0 0.5 0.0   1.06132
 Co 0.0 0.0 0.5   1.060278
 H 0.3443 0.0535 0.7665   0.116243
 H 0.3443 0.713 0.9465   0.11627
 H 0.3443 0.2335 0.287   0.11642
 H 0.3443 0.9465 0.2335   0.116258
 H 0.3443 0.287 0.0535   0.116285
 H 0.3443 0.7665 0.713   0.116435
 H 0.1557 0.287 0.2335   0.11624
 H 0.1557 0.7665 0.0535   0.116265
 H 0.1557 0.9465 0.713   0.116414
 H 0.1557 0.713 0.7665   0.116267
 H 0.1557 0.2335 0.9465   0.116291
 H 0.1557 0.0535 0.287   0.11644
 H 0.6557 0.9465 0.2335   0.116312
 H 0.6557 0.287 0.0535   0.116339
 H 0.6557 0.7665 0.713   0.116486
 H 0.6557 0.0535 0.7665   0.116324
 H 0.6557 0.713 0.9465   0.116351
 H 0.6557 0.2335 0.287   0.116498
 H 0.8443 0.713 0.7665   0.116311
 H 0.8443 0.2335 0.9465   0.116334
 H 0.8443 0.0535 0.287   0.11648
 H 0.8443 0.287 0.2335   0.116334
 H 0.8443 0.7665 0.0535   0.116357
 H 0.8443 0.9465 0.713   0.116503
 H 0.25 0.1004 0.8996   0.082222
 H 0.25 0.7992 0.8996   0.082229
 H 0.25 0.1004 0.2008   0.082254
 H 0.25 0.8996 0.1004   0.082479
 H 0.25 0.2008 0.1004   0.082478
 H 0.25 0.8996 0.7992   0.082498
 H 0.75 0.8996 0.1004   0.082221
 H 0.75 0.2008 0.1004   0.082228
 H 0.75 0.8996 0.7992   0.082252
 H 0.75 0.1004 0.8996   0.082477
 H 0.75 0.7992 0.8996   0.082476
 H 0.75 0.1004 0.2008   0.082496
 C 0.3612 0.1345 0.6468   0.658397
 C 0.3037 0.1592 0.7356   0.148119
 C 0.3059 0.1067 0.7857   -0.12432
 C 0.3612 0.5123 0.8655   0.658022
 C 0.3037 0.5764 0.8408   0.148281
 C 0.3059 0.679 0.8933   -0.124179
 C 0.3612 0.3532 0.4877   0.658058
 C 0.3037 0.2644 0.4236   0.148243
 C 0.3059 0.2143 0.321   -0.124261
 C 0.3612 0.8655 0.3532   0.658396
 C 0.3037 0.8408 0.2644   0.148115
 C 0.3059 0.8933 0.2143   -0.124294
 C 0.3612 0.4877 0.1345   0.65802
 C 0.3037 0.4236 0.1592   0.148278
 C 0.3059 0.321 0.1067   -0.124154
 C 0.3612 0.6468 0.5123   0.658057
 C 0.3037 0.7356 0.5764   0.14824
 C 0.3059 0.7857 0.679   -0.124237
 C 0.1388 0.4877 0.3532   0.658391
 C 0.1963 0.4236 0.2644   0.148109
 C 0.1941 0.321 0.2143   -0.124294
 C 0.1388 0.6468 0.1345   0.658029
 C 0.1963 0.7356 0.1592   0.148269
 C 0.1941 0.7857 0.1067   -0.124143
 C 0.1388 0.8655 0.5123   0.658035
 C 0.1963 0.8408 0.5764   0.148232
 C 0.1941 0.8933 0.679   -0.124228
 C 0.1388 0.5123 0.6468   0.658389
 C 0.1963 0.5764 0.7356   0.148117
 C 0.1941 0.679 0.7857   -0.124333
 C 0.1388 0.3532 0.8655   0.658028
 C 0.1963 0.2644 0.8408   0.148277
 C 0.1941 0.2143 0.8933   -0.124183
 C 0.1388 0.1345 0.4877   0.658033
 C 0.1963 0.1592 0.4236   0.148239
 C 0.1941 0.1067 0.321   -0.124266
 C 0.6388 0.8655 0.3532   0.658377
 C 0.6963 0.8408 0.2644   0.148128
 C 0.6941 0.8933 0.2143   -0.124345
 C 0.6388 0.4877 0.1345   0.657998
 C 0.6963 0.4236 0.1592   0.148291
 C 0.6941 0.321 0.1067   -0.124206
 C 0.6388 0.6468 0.5123   0.658038
 C 0.6963 0.7356 0.5764   0.148252
 C 0.6941 0.7857 0.679   -0.124285
 C 0.6388 0.1345 0.6468   0.658376
 C 0.6963 0.1592 0.7356   0.148124
 C 0.6941 0.1067 0.7857   -0.124318
 C 0.6388 0.5123 0.8655   0.657997
 C 0.6963 0.5764 0.8408   0.148287
 C 0.6941 0.679 0.8933   -0.12418
 C 0.6388 0.3532 0.4877   0.658037
 C 0.6963 0.2644 0.4236   0.148249
 C 0.6941 0.2143 0.321   -0.12426
 C 0.8612 0.5123 0.6468   0.65837
 C 0.8037 0.5764 0.7356   0.148119
 C 0.8059 0.679 0.7857   -0.12432
 C 0.8612 0.3532 0.8655   0.658006
 C 0.8037 0.2644 0.8408   0.148279
 C 0.8059 0.2143 0.8933   -0.12417
 C 0.8612 0.1345 0.4877   0.658014
 C 0.8037 0.1592 0.4236   0.148241
 C 0.8059 0.1067 0.321   -0.124253
 C 0.8612 0.4877 0.3532   0.658368
 C 0.8037 0.4236 0.2644   0.148126
 C 0.8059 0.321 0.2143   -0.124358
 C 0.8612 0.6468 0.1345   0.658004
 C 0.8037 0.7356 0.1592   0.148286
 C 0.8059 0.7857 0.1067   -0.124209
 C 0.8612 0.8655 0.5123   0.658013
 C 0.8037 0.8408 0.5764   0.148248
 C 0.8059 0.8933 0.679   -0.12429
 C 0.25 0.13505 0.86495   -0.016127
 C 0.25 0.7299 0.86495   -0.016128
 C 0.25 0.13505 0.2701   -0.016013
 C 0.25 0.86495 0.13505   -0.016222
 C 0.25 0.2701 0.13505   -0.01622
 C 0.25 0.86495 0.7299   -0.016103
 C 0.75 0.86495 0.13505   -0.016112
 C 0.75 0.2701 0.13505   -0.016112
 C 0.75 0.86495 0.7299   -0.015998
 C 0.75 0.13505 0.86495   -0.016206
 C 0.75 0.7299 0.86495   -0.016204
 C 0.75 0.13505 0.2701   -0.016088
 N 0.25 0.2371 0.7629   -0.403353
 N 0.25 0.5258 0.7629   -0.403358
 N 0.25 0.2371 0.4742   -0.403628
 N 0.25 0.7629 0.2371   -0.40335
 N 0.25 0.4742 0.2371   -0.403355
 N 0.25 0.7629 0.5258   -0.403624
 N 0.75 0.7629 0.2371   -0.403354
 N 0.75 0.4742 0.2371   -0.403359
 N 0.75 0.7629 0.5258   -0.403628
 N 0.75 0.2371 0.7629   -0.403351
 N 0.75 0.5258 0.7629   -0.403356
 N 0.75 0.2371 0.4742   -0.403625
 O 0.35917 0.1953 0.61401   -0.663362
 O 0.4058 0.0576 0.6126   -0.586856
 O 0.35917 0.41871 0.8047   -0.663338
 O 0.4058 0.555 0.9424   -0.585651
 O 0.35917 0.38599 0.58129   -0.662776
 O 0.4058 0.3874 0.445   -0.586221
 O 0.35917 0.8047 0.38599   -0.663362
 O 0.4058 0.9424 0.3874   -0.586858
 O 0.35917 0.58129 0.1953   -0.663338
 O 0.4058 0.445 0.0576   -0.585652
 O 0.35917 0.61401 0.41871   -0.662777
 O 0.4058 0.6126 0.555   -0.586223
 O 0.14083 0.58129 0.38599   -0.663362
 O 0.0942 0.445 0.3874   -0.586856
 O 0.14083 0.61401 0.1953   -0.663347
 O 0.0942 0.6126 0.0576   -0.585654
 O 0.14083 0.8047 0.41871   -0.662765
 O 0.0942 0.9424 0.555   -0.58622
 O 0.14083 0.41871 0.61401   -0.663362
 O 0.0942 0.555 0.6126   -0.586856
 O 0.14083 0.38599 0.8047   -0.663347
 O 0.0942 0.3874 0.9424   -0.585654
 O 0.14083 0.1953 0.58129   -0.662765
 O 0.0942 0.0576 0.445   -0.58622
 O 0.64083 0.8047 0.38599   -0.663361
 O 0.5942 0.9424 0.3874   -0.586858
 O 0.64083 0.58129 0.1953   -0.663337
 O 0.5942 0.445 0.0576   -0.585656
 O 0.64083 0.61401 0.41871   -0.662776
 O 0.5942 0.6126 0.555   -0.586226
 O 0.64083 0.1953 0.61401   -0.663361
 O 0.5942 0.0576 0.6126   -0.58686
 O 0.64083 0.41871 0.8047   -0.663337
 O 0.5942 0.555 0.9424   -0.585657
 O 0.64083 0.38599 0.58129   -0.662776
 O 0.5942 0.3874 0.445   -0.586227
 O 0.85917 0.41871 0.61401   -0.663361
 O 0.9058 0.555 0.6126   -0.586858
 O 0.85917 0.38599 0.8047   -0.663346
 O 0.9058 0.3874 0.9424   -0.585659
 O 0.85917 0.1953 0.58129   -0.662764
 O 0.9058 0.0576 0.445   -0.586225
 O 0.85917 0.58129 0.38599   -0.663362
 O 0.9058 0.445 0.3874   -0.586858
 O 0.85917 0.61401 0.1953   -0.663346
 O 0.9058 0.6126 0.0576   -0.585659
 O 0.85917 0.8047 0.41871   -0.662764
 O 0.9058 0.9424 0.555   -0.586225
