{'_ref': 'TBD', '_srcid': 'CAKYAQ_clean', 'submitters': [{'name': 'Dalar Nazarian Jeff Camp and David Sholl', 'email': 'dalar@gatech.edu jcamp6@gatech.edu'}], '_method': 'VASP DFT with PBE;DDEC'}
data_Pr2Fe3H18C42(NO4)6
_symmetry_space_group_name_H-M   'P 1'
_cell_length_a   15.35400000
_cell_length_b   15.51399990
_cell_length_c   15.51400000
_cell_angle_alpha   120.00000021
_cell_angle_beta   90.00000000
_cell_angle_gamma   90.00000000
_symmetry_Int_Tables_number   1
_chemical_formula_structural   Pr2Fe3H18C42(NO4)6
_chemical_formula_sum   'Pr4 Fe6 H36 C84 N12 O48'
_cell_volume   3200.36666747
_cell_formula_units_Z   2
loop_
 _symmetry_equiv_pos_site_id
 _symmetry_equiv_pos_as_xyz
  1  'x, y, z'
loop_
 _atom_site_label
 _atom_site_fract_x
 _atom_site_fract_y
 _atom_site_fract_z
 _atom_site_charge
 Pr 0.75 0.66667 0.33334   2.038278
 Pr 0.75 0.33333 0.66666   2.038271
 Pr 0.25 0.33333 0.66666   2.037523
 Pr 0.25 0.66667 0.33334   2.037516
 Fe 0.0 0.5 0.5   0.979436
 Fe 0.0 0.0 0.5   0.99265
 Fe 0.0 0.5 0.0   1.039451
 Fe 0.5 0.0 0.5   0.979483
 Fe 0.5 0.5 0.5   0.992374
 Fe 0.5 0.5 0.0   1.039772
 H 0.8444 0.7663 0.7128   0.112869
 H 0.8444 0.9465 0.2337   0.113311
 H 0.8444 0.2872 0.0535   0.112806
 H 0.8444 0.2337 0.2872   0.112961
 H 0.8444 0.0535 0.7663   0.113401
 H 0.8444 0.7128 0.9465   0.112896
 H 0.6556 0.0535 0.2872   0.112873
 H 0.6556 0.7128 0.7663   0.11327
 H 0.6556 0.2337 0.9465   0.112752
 H 0.6556 0.9465 0.7128   0.113036
 H 0.6556 0.2872 0.2337   0.113433
 H 0.6556 0.7663 0.0535   0.112913
 H 0.1556 0.2337 0.2872   0.113502
 H 0.1556 0.0535 0.7663   0.113894
 H 0.1556 0.7128 0.9465   0.113424
 H 0.1556 0.7663 0.7128   0.113572
 H 0.1556 0.9465 0.2337   0.113966
 H 0.1556 0.2872 0.0535   0.113494
 H 0.3444 0.9465 0.7128   0.113509
 H 0.3444 0.2872 0.2337   0.113865
 H 0.3444 0.7663 0.0535   0.113367
 H 0.3444 0.0535 0.2872   0.113653
 H 0.3444 0.7128 0.7663   0.11401
 H 0.3444 0.2337 0.9465   0.11351
 H 0.75 0.8999 0.7998   0.082211
 H 0.75 0.8999 0.1001   0.081102
 H 0.75 0.2002 0.1001   0.081022
 H 0.75 0.1001 0.2002   0.084039
 H 0.75 0.1001 0.8999   0.082887
 H 0.75 0.7998 0.8999   0.082742
 H 0.25 0.1001 0.2002   0.082202
 H 0.25 0.1001 0.8999   0.08109
 H 0.25 0.7998 0.8999   0.081011
 H 0.25 0.8999 0.7998   0.084028
 H 0.25 0.8999 0.1001   0.082875
 H 0.25 0.2002 0.1001   0.082732
 C 0.8036 0.7357 0.5765   0.137838
 C 0.8061 0.7856 0.6791   -0.120531
 C 0.861 0.647 0.5124   0.644025
 C 0.8036 0.8408 0.2643   0.139378
 C 0.8061 0.8935 0.2144   -0.125317
 C 0.861 0.8654 0.353   0.640638
 C 0.8036 0.4235 0.1592   0.142982
 C 0.8061 0.3209 0.1065   -0.123082
 C 0.861 0.4876 0.1346   0.64607
 C 0.8036 0.2643 0.4235   0.137811
 C 0.8061 0.2144 0.3209   -0.120348
 C 0.861 0.353 0.4876   0.644023
 C 0.8036 0.1592 0.7357   0.139353
 C 0.8061 0.1065 0.7856   -0.12514
 C 0.861 0.1346 0.647   0.640636
 C 0.8036 0.5765 0.8408   0.142957
 C 0.8061 0.6791 0.8935   -0.122911
 C 0.861 0.5124 0.8654   0.646071
 C 0.6964 0.1592 0.4235   0.138255
 C 0.6939 0.1065 0.3209   -0.120783
 C 0.639 0.1346 0.4876   0.643828
 C 0.6964 0.5765 0.7357   0.139267
 C 0.6939 0.6791 0.7856   -0.125042
 C 0.639 0.5124 0.647   0.640591
 C 0.6964 0.2643 0.8408   0.142893
 C 0.6939 0.2144 0.8935   -0.122847
 C 0.639 0.353 0.8654   0.646177
 C 0.6964 0.8408 0.5765   0.138307
 C 0.6939 0.8935 0.6791   -0.12105
 C 0.639 0.8654 0.5124   0.643817
 C 0.6964 0.4235 0.2643   0.139317
 C 0.6939 0.3209 0.2144   -0.125297
 C 0.639 0.4876 0.353   0.640585
 C 0.6964 0.7357 0.1592   0.142943
 C 0.6939 0.7856 0.1065   -0.123106
 C 0.639 0.647 0.1346   0.646172
 C 0.1964 0.2643 0.4235   0.137881
 C 0.1939 0.2144 0.3209   -0.120646
 C 0.139 0.353 0.4876   0.644052
 C 0.1964 0.1592 0.7357   0.139422
 C 0.1939 0.1065 0.7856   -0.12542
 C 0.139 0.1346 0.647   0.640619
 C 0.1964 0.5765 0.8408   0.143021
 C 0.1939 0.6791 0.8935   -0.123188
 C 0.139 0.5124 0.8654   0.646123
 C 0.1964 0.7357 0.5765   0.137852
 C 0.1939 0.7856 0.6791   -0.120456
 C 0.139 0.647 0.5124   0.64405
 C 0.1964 0.8408 0.2643   0.139394
 C 0.1939 0.8935 0.2144   -0.125237
 C 0.139 0.8654 0.353   0.640617
 C 0.1964 0.4235 0.1592   0.142993
 C 0.1939 0.3209 0.1065   -0.12301
 C 0.139 0.4876 0.1346   0.646125
 C 0.3036 0.8408 0.5765   0.138299
 C 0.3061 0.8935 0.6791   -0.120899
 C 0.361 0.8654 0.5124   0.643855
 C 0.3036 0.4235 0.2643   0.139316
 C 0.3061 0.3209 0.2144   -0.12515
 C 0.361 0.4876 0.353   0.640536
 C 0.3036 0.7357 0.1592   0.142931
 C 0.3061 0.7856 0.1065   -0.12295
 C 0.361 0.647 0.1346   0.64623
 C 0.3036 0.1592 0.4235   0.138349
 C 0.3061 0.1065 0.3209   -0.121159
 C 0.361 0.1346 0.4876   0.643844
 C 0.3036 0.5765 0.7357   0.139364
 C 0.3061 0.6791 0.7856   -0.125399
 C 0.361 0.5124 0.647   0.64053
 C 0.3036 0.2643 0.8408   0.142979
 C 0.3061 0.2144 0.8935   -0.123204
 C 0.361 0.353 0.8654   0.646226
 C 0.75 0.8653 0.7306   -0.020817
 C 0.75 0.8653 0.1347   -0.020788
 C 0.75 0.2694 0.1347   -0.020786
 C 0.75 0.1347 0.2694   -0.021463
 C 0.75 0.1347 0.8653   -0.021406
 C 0.75 0.7306 0.8653   -0.021397
 C 0.25 0.1347 0.2694   -0.020717
 C 0.25 0.1347 0.8653   -0.020695
 C 0.25 0.7306 0.8653   -0.020692
 C 0.25 0.8653 0.7306   -0.021362
 C 0.25 0.8653 0.1347   -0.021313
 C 0.25 0.2694 0.1347   -0.021302
 N 0.75 0.76291 0.52582   -0.396938
 N 0.75 0.76291 0.23709   -0.409683
 N 0.75 0.47418 0.23709   -0.409776
 N 0.75 0.23709 0.47418   -0.396913
 N 0.75 0.23709 0.76291   -0.40966
 N 0.75 0.52582 0.76291   -0.409752
 N 0.25 0.23709 0.47418   -0.396917
 N 0.25 0.23709 0.76291   -0.409661
 N 0.25 0.52582 0.76291   -0.409755
 N 0.25 0.76291 0.52582   -0.396893
 N 0.25 0.76291 0.23709   -0.409637
 N 0.25 0.47418 0.23709   -0.409731
 O 0.85898 0.614 0.4186   -0.640238
 O 0.9057 0.6126 0.555   -0.530011
 O 0.85898 0.8046 0.386   -0.638044
 O 0.9057 0.9424 0.3874   -0.552659
 O 0.85898 0.5814 0.1954   -0.647345
 O 0.9057 0.445 0.0576   -0.569331
 O 0.85898 0.386 0.5814   -0.640239
 O 0.9057 0.3874 0.445   -0.53003
 O 0.85898 0.1954 0.614   -0.638046
 O 0.9057 0.0576 0.6126   -0.552682
 O 0.85898 0.4186 0.8046   -0.647346
 O 0.9057 0.555 0.9424   -0.569334
 O 0.64102 0.1954 0.5814   -0.640074
 O 0.5943 0.0576 0.445   -0.530035
 O 0.64102 0.4186 0.614   -0.638043
 O 0.5943 0.555 0.6126   -0.552585
 O 0.64102 0.386 0.8046   -0.647425
 O 0.5943 0.3874 0.9424   -0.569358
 O 0.64102 0.8046 0.4186   -0.640073
 O 0.5943 0.9424 0.555   -0.530045
 O 0.64102 0.5814 0.386   -0.638043
 O 0.5943 0.445 0.3874   -0.552601
 O 0.64102 0.614 0.1954   -0.647424
 O 0.5943 0.6126 0.0576   -0.569354
 O 0.14102 0.386 0.5814   -0.640226
 O 0.0943 0.3874 0.445   -0.530067
 O 0.14102 0.1954 0.614   -0.638027
 O 0.0943 0.0576 0.6126   -0.552755
 O 0.14102 0.4186 0.8046   -0.647332
 O 0.0943 0.555 0.9424   -0.569371
 O 0.14102 0.614 0.4186   -0.640227
 O 0.0943 0.6126 0.555   -0.530086
 O 0.14102 0.8046 0.386   -0.638028
 O 0.0943 0.9424 0.3874   -0.552778
 O 0.14102 0.5814 0.1954   -0.647332
 O 0.0943 0.445 0.0576   -0.569374
 O 0.35898 0.8046 0.4186   -0.64006
 O 0.4057 0.9424 0.555   -0.530091
 O 0.35898 0.5814 0.386   -0.638019
 O 0.4057 0.445 0.3874   -0.552675
 O 0.35898 0.614 0.1954   -0.647411
 O 0.4057 0.6126 0.0576   -0.569398
 O 0.35898 0.1954 0.5814   -0.640059
 O 0.4057 0.0576 0.445   -0.530101
 O 0.35898 0.4186 0.614   -0.638019
 O 0.4057 0.555 0.6126   -0.552691
 O 0.35898 0.386 0.8046   -0.647411
 O 0.4057 0.3874 0.9424   -0.569394
