{'_ref': 'TBD', '_srcid': 'CAKYAQ_clean', 'submitters': [{'name': 'Dalar Nazarian Jeff Camp and David Sholl', 'email': 'dalar@gatech.edu jcamp6@gatech.edu'}], '_method': 'VASP DFT with PBE;DDEC'}
data_Sm2Fe3H18C42(NO4)6
_symmetry_space_group_name_H-M   'P 1'
_cell_length_a   15.40500000
_cell_length_b   15.40499970
_cell_length_c   15.45600000
_cell_angle_alpha   90.00000000
_cell_angle_beta   90.00000000
_cell_angle_gamma   120.00000064
_symmetry_Int_Tables_number   1
_chemical_formula_structural   Sm2Fe3H18C42(NO4)6
_chemical_formula_sum   'Sm4 Fe6 H36 C84 N12 O48'
_cell_volume   3176.51664094
_cell_formula_units_Z   2
loop_
 _symmetry_equiv_pos_site_id
 _symmetry_equiv_pos_as_xyz
  1  'x, y, z'
loop_
 _atom_site_label
 _atom_site_fract_x
 _atom_site_fract_y
 _atom_site_fract_z
 _atom_site_charge
 Sm 0.33333 0.66666 0.75   2.145844
 Sm 0.66667 0.33334 0.75   2.145844
 Sm 0.66667 0.33334 0.25   2.145845
 Sm 0.33333 0.66666 0.25   2.145845
 Fe 0.5 0.0 0.0   1.155193
 Fe 0.5 0.5 0.0   1.188368
 Fe 0.0 0.5 0.0   1.1579
 Fe 0.5 0.0 0.5   1.155195
 Fe 0.0 0.5 0.5   1.188367
 Fe 0.5 0.5 0.5   1.157897
 H 0.7128 0.9463 0.8445   0.118045
 H 0.2335 0.2872 0.8445   0.118
 H 0.0537 0.7665 0.8445   0.117774
 H 0.2872 0.0537 0.8445   0.118046
 H 0.7665 0.7128 0.8445   0.118002
 H 0.9463 0.2335 0.8445   0.117775
 H 0.7665 0.0537 0.6555   0.118046
 H 0.9463 0.7128 0.6555   0.117999
 H 0.2872 0.2335 0.6555   0.117773
 H 0.2335 0.9463 0.6555   0.118048
 H 0.0537 0.2872 0.6555   0.118001
 H 0.7128 0.7665 0.6555   0.117774
 H 0.2872 0.0537 0.1555   0.118047
 H 0.7665 0.7128 0.1555   0.118003
 H 0.9463 0.2335 0.1555   0.117775
 H 0.7128 0.9463 0.1555   0.118048
 H 0.2335 0.2872 0.1555   0.118004
 H 0.0537 0.7665 0.1555   0.117776
 H 0.2335 0.9463 0.3445   0.118048
 H 0.0537 0.2872 0.3445   0.118001
 H 0.7128 0.7665 0.3445   0.117774
 H 0.7665 0.0537 0.3445   0.118049
 H 0.9463 0.7128 0.3445   0.118003
 H 0.2872 0.2335 0.3445   0.117776
 H 0.8001 0.90005 0.75   0.083602
 H 0.09995 0.1999 0.75   0.083859
 H 0.09995 0.90005 0.75   0.083605
 H 0.1999 0.09995 0.75   0.083612
 H 0.90005 0.8001 0.75   0.083868
 H 0.90005 0.09995 0.75   0.083612
 H 0.1999 0.09995 0.25   0.083602
 H 0.90005 0.8001 0.25   0.083859
 H 0.90005 0.09995 0.25   0.083604
 H 0.8001 0.90005 0.25   0.083612
 H 0.09995 0.1999 0.25   0.083868
 H 0.09995 0.90005 0.25   0.083612
 C 0.51 0.864 0.8616   0.661731
 C 0.5753 0.8401 0.8035   0.145957
 C 0.6788 0.8932 0.8062   -0.127753
 C 0.354 0.49 0.8616   0.665176
 C 0.2648 0.4247 0.8035   0.145767
 C 0.2144 0.3212 0.8062   -0.12677
 C 0.136 0.646 0.8616   0.661849
 C 0.1599 0.7352 0.8035   0.146072
 C 0.1068 0.7856 0.8062   -0.127711
 C 0.49 0.136 0.8616   0.661732
 C 0.4247 0.1599 0.8035   0.145957
 C 0.3212 0.1068 0.8062   -0.127753
 C 0.646 0.51 0.8616   0.665176
 C 0.7352 0.5753 0.8035   0.145767
 C 0.7856 0.6788 0.8062   -0.126769
 C 0.864 0.354 0.8616   0.661849
 C 0.8401 0.2648 0.8035   0.146072
 C 0.8932 0.2144 0.8062   -0.12771
 C 0.646 0.136 0.6384   0.661735
 C 0.7352 0.1599 0.6965   0.145956
 C 0.7856 0.1068 0.6938   -0.127753
 C 0.864 0.51 0.6384   0.665176
 C 0.8401 0.5753 0.6965   0.145767
 C 0.8932 0.6788 0.6938   -0.126768
 C 0.49 0.354 0.6384   0.661849
 C 0.4247 0.2648 0.6965   0.146072
 C 0.3212 0.2144 0.6938   -0.127709
 C 0.354 0.864 0.6384   0.661735
 C 0.2648 0.8401 0.6965   0.145956
 C 0.2144 0.8932 0.6938   -0.127754
 C 0.136 0.49 0.6384   0.665176
 C 0.1599 0.4247 0.6965   0.145767
 C 0.1068 0.3212 0.6938   -0.12677
 C 0.51 0.646 0.6384   0.661849
 C 0.5753 0.7352 0.6965   0.146072
 C 0.6788 0.7856 0.6938   -0.127711
 C 0.49 0.136 0.1384   0.661731
 C 0.4247 0.1599 0.1965   0.145957
 C 0.3212 0.1068 0.1938   -0.127754
 C 0.646 0.51 0.1384   0.665175
 C 0.7352 0.5753 0.1965   0.145768
 C 0.7856 0.6788 0.1938   -0.126772
 C 0.864 0.354 0.1384   0.661848
 C 0.8401 0.2648 0.1965   0.146072
 C 0.8932 0.2144 0.1938   -0.127712
 C 0.51 0.864 0.1384   0.661731
 C 0.5753 0.8401 0.1965   0.145957
 C 0.6788 0.8932 0.1938   -0.127754
 C 0.354 0.49 0.1384   0.665175
 C 0.2648 0.4247 0.1965   0.145768
 C 0.2144 0.3212 0.1938   -0.126771
 C 0.136 0.646 0.1384   0.661848
 C 0.1599 0.7352 0.1965   0.146072
 C 0.1068 0.7856 0.1938   -0.127711
 C 0.354 0.864 0.3616   0.661735
 C 0.2648 0.8401 0.3035   0.145956
 C 0.2144 0.8932 0.3062   -0.127754
 C 0.136 0.49 0.3616   0.665175
 C 0.1599 0.4247 0.3035   0.145768
 C 0.1068 0.3212 0.3062   -0.12677
 C 0.51 0.646 0.3616   0.661849
 C 0.5753 0.7352 0.3035   0.146072
 C 0.6788 0.7856 0.3062   -0.127711
 C 0.646 0.136 0.3616   0.661735
 C 0.7352 0.1599 0.3035   0.145956
 C 0.7856 0.1068 0.3062   -0.127755
 C 0.864 0.51 0.3616   0.665175
 C 0.8401 0.5753 0.3035   0.145768
 C 0.8932 0.6788 0.3062   -0.126772
 C 0.49 0.354 0.3616   0.661849
 C 0.4247 0.2648 0.3035   0.146072
 C 0.3212 0.2144 0.3062   -0.127712
 C 0.7304 0.8652 0.75   -0.01875
 C 0.1348 0.2696 0.75   -0.018679
 C 0.1348 0.8652 0.75   -0.018751
 C 0.2696 0.1348 0.75   -0.018754
 C 0.8652 0.7304 0.75   -0.018682
 C 0.8652 0.1348 0.75   -0.018754
 C 0.2696 0.1348 0.25   -0.018749
 C 0.8652 0.7304 0.25   -0.018678
 C 0.8652 0.1348 0.25   -0.01875
 C 0.7304 0.8652 0.25   -0.018753
 C 0.1348 0.2696 0.25   -0.018681
 C 0.1348 0.8652 0.25   -0.018753
 N 0.5243 0.76215 0.75   -0.413852
 N 0.23785 0.4757 0.75   -0.41293
 N 0.23785 0.76215 0.75   -0.413851
 N 0.4757 0.23785 0.75   -0.413852
 N 0.76215 0.5243 0.75   -0.41293
 N 0.76215 0.23785 0.75   -0.413851
 N 0.4757 0.23785 0.25   -0.413852
 N 0.76215 0.5243 0.25   -0.41293
 N 0.76215 0.23785 0.25   -0.413851
 N 0.5243 0.76215 0.25   -0.413852
 N 0.23785 0.4757 0.25   -0.41293
 N 0.23785 0.76215 0.25   -0.413851
 O 0.5534 0.9406 0.9066   -0.593939
 O 0.4154 0.8033 0.8571   -0.677477
 O 0.3872 0.4466 0.9066   -0.601974
 O 0.3879 0.5846 0.8571   -0.677105
 O 0.0594 0.6128 0.9066   -0.594264
 O 0.1967 0.6121 0.8571   -0.678803
 O 0.4466 0.0594 0.9066   -0.593939
 O 0.5846 0.1967 0.8571   -0.677477
 O 0.6128 0.5534 0.9066   -0.601974
 O 0.6121 0.4154 0.8571   -0.677105
 O 0.9406 0.3872 0.9066   -0.594264
 O 0.8033 0.3879 0.8571   -0.678803
 O 0.6128 0.0594 0.5934   -0.59394
 O 0.6121 0.1967 0.6429   -0.677476
 O 0.9406 0.5534 0.5934   -0.601972
 O 0.8033 0.4154 0.6429   -0.677106
 O 0.4466 0.3872 0.5934   -0.594264
 O 0.5846 0.3879 0.6429   -0.678803
 O 0.3872 0.9406 0.5934   -0.59394
 O 0.3879 0.8033 0.6429   -0.677476
 O 0.0594 0.4466 0.5934   -0.601972
 O 0.1967 0.5846 0.6429   -0.677106
 O 0.5534 0.6128 0.5934   -0.594264
 O 0.4154 0.6121 0.6429   -0.678803
 O 0.4466 0.0594 0.0934   -0.593939
 O 0.5846 0.1967 0.1429   -0.677477
 O 0.6128 0.5534 0.0934   -0.601973
 O 0.6121 0.4154 0.1429   -0.677105
 O 0.9406 0.3872 0.0934   -0.594264
 O 0.8033 0.3879 0.1429   -0.678803
 O 0.5534 0.9406 0.0934   -0.593939
 O 0.4154 0.8033 0.1429   -0.677477
 O 0.3872 0.4466 0.0934   -0.601973
 O 0.3879 0.5846 0.1429   -0.677105
 O 0.0594 0.6128 0.0934   -0.594264
 O 0.1967 0.6121 0.1429   -0.678803
 O 0.3872 0.9406 0.4066   -0.593939
 O 0.3879 0.8033 0.3571   -0.677476
 O 0.0594 0.4466 0.4066   -0.60197
 O 0.1967 0.5846 0.3571   -0.677106
 O 0.5534 0.6128 0.4066   -0.594264
 O 0.4154 0.6121 0.3571   -0.678803
 O 0.6128 0.0594 0.4066   -0.593939
 O 0.6121 0.1967 0.3571   -0.677476
 O 0.9406 0.5534 0.4066   -0.60197
 O 0.8033 0.4154 0.3571   -0.677105
 O 0.4466 0.3872 0.4066   -0.594264
 O 0.5846 0.3879 0.3571   -0.678803
