{'_ref': 'TBD', '_srcid': 'CAKYAQ_clean', 'submitters': [{'name': 'Dalar Nazarian Jeff Camp and David Sholl', 'email': 'dalar@gatech.edu jcamp6@gatech.edu'}], '_method': 'VASP DFT with PBE;DDEC'}
data_ZnH12C8(NO4)2
_symmetry_space_group_name_H-M   'P 1'
_cell_length_a   6.65970000
_cell_length_b   11.02870029
_cell_length_c   11.02870000
_cell_angle_alpha   108.08959800
_cell_angle_beta   90.00000000
_cell_angle_gamma   90.00000000
_symmetry_Int_Tables_number   1
_chemical_formula_structural   ZnH12C8(NO4)2
_chemical_formula_sum   'Zn2 H24 C16 N4 O16'
_cell_volume   769.995869932
_cell_formula_units_Z   2
loop_
 _symmetry_equiv_pos_site_id
 _symmetry_equiv_pos_as_xyz
  1  'x, y, z'
loop_
 _atom_site_label
 _atom_site_fract_x
 _atom_site_fract_y
 _atom_site_fract_z
 _atom_site_charge
 Zn 0.88019 0.0 0.5   1.056535
 Zn 0.11981 0.5 0.0   1.056534
 H 0.6659 0.9561 0.8583   0.136239
 H 0.4466 0.9799 0.8097   0.140512
 H 0.3921 0.2635 0.5671   0.137851
 H 0.2603 0.3468 0.685   0.156918
 H 0.616 0.743 0.765   0.332635
 H 0.55 0.186 0.74   0.243455
 H 0.6659 0.0439 0.1417   0.136247
 H 0.4466 0.0201 0.1903   0.140513
 H 0.3921 0.7365 0.4329   0.13785
 H 0.2603 0.6532 0.315   0.156917
 H 0.616 0.257 0.235   0.332635
 H 0.55 0.814 0.26   0.243455
 H 0.3341 0.1417 0.0439   0.136248
 H 0.5534 0.1903 0.0201   0.140514
 H 0.6079 0.4329 0.7365   0.137844
 H 0.7397 0.315 0.6532   0.156916
 H 0.384 0.235 0.257   0.332632
 H 0.45 0.26 0.814   0.24345
 H 0.3341 0.8583 0.9561   0.136255
 H 0.5534 0.8097 0.9799   0.140514
 H 0.6079 0.5671 0.2635   0.137843
 H 0.7397 0.685 0.3468   0.156915
 H 0.384 0.765 0.743   0.332632
 H 0.45 0.74 0.186   0.24345
 C 0.5635 0.92146 0.79134   -0.237727
 C 0.65 0.91255 0.66145   0.671082
 C 0.3347 0.26557 0.65043   -0.243791
 C 0.1908 0.15498 0.63142   0.711114
 C 0.5635 0.07854 0.20866   -0.237729
 C 0.65 0.08745 0.33855   0.671082
 C 0.3347 0.73443 0.34957   -0.24379
 C 0.1908 0.84502 0.36858   0.711112
 C 0.4365 0.20866 0.07854   -0.237731
 C 0.35 0.33855 0.08745   0.671083
 C 0.6653 0.34957 0.73443   -0.243789
 C 0.8092 0.36858 0.84502   0.711112
 C 0.4365 0.79134 0.92146   -0.237734
 C 0.35 0.66145 0.91255   0.671083
 C 0.6653 0.65043 0.26557   -0.243789
 C 0.8092 0.63142 0.15498   0.711111
 N 0.5 0.7922 0.7922   -0.140423
 N 0.5 0.2078 0.2078   -0.140423
 N 0.5 0.26085 0.73915   -0.029291
 N 0.5 0.73915 0.26085   -0.029291
 O 0.7098 0.01902 0.65108   -0.625259
 O 0.6601 0.80986 0.5781   -0.582828
 O 0.0514 0.15236 0.55146   -0.652101
 O 0.2159 0.07865 0.69015   -0.631515
 O 0.7098 0.98098 0.34892   -0.625259
 O 0.6601 0.19014 0.4219   -0.582825
 O 0.0514 0.84764 0.44854   -0.652096
 O 0.2159 0.92135 0.30985   -0.631513
 O 0.2902 0.34892 0.98098   -0.625257
 O 0.3399 0.4219 0.19014   -0.582828
 O 0.9486 0.44854 0.84764   -0.652101
 O 0.7841 0.30985 0.92135   -0.631511
 O 0.2902 0.65108 0.01902   -0.625257
 O 0.3399 0.5781 0.80986   -0.582825
 O 0.9486 0.55146 0.15236   -0.652096
 O 0.7841 0.69015 0.07865   -0.631509
