{'_ref': 'TBD', '_srcid': 'CAKYAQ_clean', 'submitters': [{'name': 'Dalar Nazarian Jeff Camp and David Sholl', 'email': 'dalar@gatech.edu jcamp6@gatech.edu'}], '_method': 'VASP DFT with PBE;DDEC'}
data_Cu6H36C36N18O7F3
_symmetry_space_group_name_H-M   'P 1'
_cell_length_a   11.82409972
_cell_length_b   17.62710000
_cell_length_c   17.62710033
_cell_angle_alpha   115.15109920
_cell_angle_beta   102.92000173
_cell_angle_gamma   102.92039925
_symmetry_Int_Tables_number   1
_chemical_formula_structural   Cu6H36C36N18O7F3
_chemical_formula_sum   'Cu12 H72 C72 N36 O14 F6'
_cell_volume   3022.64604897
_cell_formula_units_Z   2
loop_
 _symmetry_equiv_pos_site_id
 _symmetry_equiv_pos_as_xyz
  1  'x, y, z'
loop_
 _atom_site_label
 _atom_site_fract_x
 _atom_site_fract_y
 _atom_site_fract_z
 _atom_site_charge
 Cu 0.17645 0.00439 0.10954   0.84853
 Cu 0.51227 0.1196 0.54324   0.429765
 Cu 0.17206 0.10515 0.99561   0.846068
 Cu 0.39267 0.42364 0.8804   0.422426
 Cu 0.06691 0.89046 0.89485   0.847479
 Cu 0.96903 0.45676 0.57636   0.423079
 Cu 0.82355 0.99561 0.89046   0.848547
 Cu 0.48773 0.8804 0.45676   0.429765
 Cu 0.82794 0.89485 0.00439   0.846085
 Cu 0.60733 0.57636 0.1196   0.422429
 Cu 0.93309 0.10954 0.10515   0.847495
 Cu 0.03097 0.54324 0.42364   0.423081
 H 0.2161 0.9123 0.225   0.105298
 H 0.3235 0.9671 0.3772   0.064476
 H 0.3883 0.2159 0.4266   0.076682
 H 0.4195 0.3045 0.347   0.121957
 H 0.288 0.2954 0.3594   0.102386
 H 0.3097 0.3088 0.2788   0.135251
 H 0.1072 0.7427 0.4837   0.085329
 H 0.2753 0.5698 0.4028   0.091145
 H 0.4382 0.6791 0.4111   0.090419
 H 0.1271 0.8738 0.5431   0.119486
 H 0.1501 0.9465 0.5112   0.122851
 H 0.2317 0.9717 0.6099   0.153014
 H 0.3038 0.3127 0.0877   0.104921
 H 0.3564 0.4101 0.0329   0.064235
 H 0.1724 0.2107 0.7841   0.076449
 H 0.115 0.0425 0.6955   0.122199
 H 0.9926 0.064 0.7046   0.102527
 H 0.000900000000001 0.97 0.6912   0.13479
 H 0.3645 0.741 0.2573   0.084308
 H 0.7055 0.833 0.4302   0.089439
 H 0.7591 0.732 0.3209   0.089223
 H 0.2533 0.6693 0.1262   0.118643
 H 0.2036 0.5647 0.0535   0.121541
 H 0.26 0.6382 0.0283   0.15259
 H 0.9911 0.775 0.6873   0.104735
 H 0.9463 0.6228 0.5899   0.065064
 H 0.9617 0.5734 0.7893   0.075561
 H 0.0725 0.653 0.9575   0.120561
 H 0.9286 0.6406 0.936   0.102744
 H 0.0309 0.7212 0.03   0.133835
 H 0.6235 0.5163 0.259   0.085368
 H 0.8725 0.5972 0.167   0.091819
 H 0.0271 0.5889 0.268   0.090362
 H 0.584 0.4569 0.3307   0.119069
 H 0.6389 0.4888 0.4353   0.12135
 H 0.6218 0.3901 0.3618   0.152276
 H 0.7839 0.0877 0.775   0.105304
 H 0.6765 0.0329 0.6228   0.064476
 H 0.6117 0.7841 0.5734   0.076679
 H 0.5805 0.6955 0.653   0.121957
 H 0.712 0.7046 0.6406   0.102382
 H 0.6903 0.6912 0.7212   0.13525
 H 0.8928 0.2573 0.5163   0.085329
 H 0.7247 0.4302 0.5972   0.091129
 H 0.5618 0.3209 0.5889   0.090414
 H 0.8729 0.1262 0.4569   0.119485
 H 0.8499 0.0535 0.4888   0.122838
 H 0.7683 0.0283 0.3901   0.153013
 H 0.6962 0.6873 0.9123   0.104925
 H 0.6436 0.5899 0.9671   0.064235
 H 0.8276 0.7893 0.2159   0.076446
 H 0.885 0.9575 0.3045   0.122199
 H 0.0074 0.936 0.2954   0.102527
 H 0.9991 0.03 0.3088   0.13479
 H 0.6355 0.259 0.7427   0.084307
 H 0.2945 0.167 0.5698   0.089427
 H 0.2409 0.268 0.6791   0.089218
 H 0.7467 0.3307 0.8738   0.118642
 H 0.7964 0.4353 0.9465   0.121528
 H 0.74 0.3618 0.9717   0.152589
 H 0.0089 0.225 0.3127   0.104739
 H 0.0537 0.3772 0.4101   0.065063
 H 0.0383 0.4266 0.2107   0.075559
 H 0.9275 0.347 0.0425   0.12056
 H 0.0714 0.3594 0.064   0.102742
 H 0.9691 0.2788 0.97   0.133835
 H 0.3765 0.4837 0.741   0.085368
 H 0.1275 0.4028 0.833   0.091806
 H 0.9729 0.4111 0.732   0.090357
 H 0.416 0.5431 0.6693   0.119067
 H 0.3611 0.5112 0.5647   0.121331
 H 0.3782 0.6099 0.6382   0.152275
 C 0.2529 0.9752 0.2653   0.101072
 C 0.3164 0.0083 0.3567   0.055493
 C 0.3546 0.1532 0.3852   0.057182
 C 0.2933 0.1221 0.2942   0.108019
 C 0.2842 0.1805 0.2556   0.138607
 C 0.3292 0.281 0.3153   -0.350706
 C 0.27382 0.7965 0.47796   0.078239
 C 0.17559 0.72946 0.46901   0.040224
 C 0.27313 0.62828 0.42061   0.00492
 C 0.37042 0.69334 0.42602   0.035581
 C 0.28438 0.89056 0.51188   0.122837
 C 0.1901 0.9235 0.5471   -0.366596
 C 0.2777 0.2901 0.0248   0.101338
 C 0.3081 0.3484 0.9917   0.056216
 C 0.2014 0.232 0.8468   0.058543
 C 0.1712 0.1721 0.8779   0.108572
 C 0.1037 0.0751 0.8195   0.135704
 C 0.0482 0.0343 0.719   -0.350235
 C 0.47732 0.68146 0.2035   0.0762
 C 0.44613 0.73955 0.27054   0.041715
 C 0.64485 0.79233 0.37172   0.008922
 C 0.67708 0.73268 0.30666   0.037385
 C 0.39382 0.62132 0.10944   0.127098
 C 0.2666 0.6236 0.0765   -0.364808
 C 0.9876 0.7347 0.7099   0.102819
 C 0.9597 0.6433 0.6516   0.054056
 C 0.9694 0.6148 0.768   0.060688
 C 0.9991 0.7058 0.8279   0.106766
 C 0.0286 0.7444 0.9249   0.135596
 C 0.0139 0.6847 0.9657   -0.347863
 C 0.79586 0.52204 0.31854   0.076277
 C 0.70658 0.53099 0.26045   0.040261
 C 0.85252 0.57939 0.20767   0.002461
 C 0.9444 0.57398 0.26732   0.038472
 C 0.7725 0.48812 0.37868   0.126737
 C 0.643 0.4529 0.3764   -0.364791
 C 0.7471 0.0248 0.7347   0.101073
 C 0.6836 0.9917 0.6433   0.055483
 C 0.6454 0.8468 0.6148   0.057161
 C 0.7067 0.8779 0.7058   0.108007
 C 0.7158 0.8195 0.7444   0.138611
 C 0.6708 0.719 0.6847   -0.3507
 C 0.72618 0.2035 0.52204   0.078214
 C 0.82441 0.27054 0.53099   0.040227
 C 0.72687 0.37172 0.57939   0.004925
 C 0.62958 0.30666 0.57398   0.035577
 C 0.71562 0.10944 0.48812   0.122818
 C 0.8099 0.0765 0.4529   -0.366589
 C 0.7223 0.7099 0.9752   0.10134
 C 0.6919 0.6516 0.0083   0.056205
 C 0.7986 0.768 0.1532   0.058523
 C 0.8288 0.8279 0.1221   0.108559
 C 0.8963 0.9249 0.1805   0.135707
 C 0.9518 0.9657 0.281   -0.350231
 C 0.52268 0.31854 0.7965   0.076175
 C 0.55387 0.26045 0.72946   0.041717
 C 0.35515 0.20767 0.62828   0.008925
 C 0.32292 0.26732 0.69334   0.037382
 C 0.60618 0.37868 0.89056   0.127078
 C 0.7334 0.3764 0.9235   -0.364802
 C 0.0124 0.2653 0.2901   0.102822
 C 0.0403 0.3567 0.3484   0.054045
 C 0.0306 0.3852 0.232   0.060663
 C 0.000900000000001 0.2942 0.1721   0.106754
 C 0.9714 0.2556 0.0751   0.1356
 C 0.9861 0.3153 0.0343   -0.347858
 C 0.20414 0.47796 0.68146   0.076249
 C 0.29342 0.46901 0.73955   0.040263
 C 0.14748 0.42061 0.79233   0.002465
 C 0.0556 0.42602 0.73268   0.038468
 C 0.2275 0.51188 0.62132   0.126716
 C 0.357 0.5471 0.6236   -0.364782
 N 0.24423 0.03313 0.23476   -0.281792
 N 0.36657 0.09526 0.41515   -0.2697
 N 0.23557 0.13841 0.1704   -0.002781
 N 0.36856 0.77703 0.45225   -0.279586
 N 0.17662 0.64666 0.44   -0.203666
 N 0.38175 0.94125 0.5124   -0.043278
 N 0.2111 0.20163 0.96687   -0.281221
 N 0.27131 0.31989 0.90474   -0.270872
 N 0.09716 0.03199 0.86159   0.000381
 N 0.59153 0.67522 0.22297   -0.27824
 N 0.52996 0.79334 0.35334   -0.207329
 N 0.4405 0.57115 0.05875   -0.044836
 N 0.00947 0.76524 0.79837   -0.282197
 N 0.95142 0.58485 0.68011   -0.270129
 N 0.06517 0.8296 0.96801   0.001419
 N 0.91631 0.54775 0.32478   -0.280237
 N 0.73662 0.56 0.20666   -0.203828
 N 0.86935 0.4876 0.42885   -0.043886
 N 0.75577 0.96687 0.76524   -0.28179
 N 0.63343 0.90474 0.58485   -0.269699
 N 0.76443 0.86159 0.8296   -0.002783
 N 0.63144 0.22297 0.54775   -0.279584
 N 0.82338 0.35334 0.56   -0.203668
 N 0.61825 0.05875 0.4876   -0.043277
 N 0.7889 0.79837 0.03313   -0.281219
 N 0.72869 0.68011 0.09526   -0.27087
 N 0.90284 0.96801 0.13841   0.000379
 N 0.40847 0.32478 0.77703   -0.278237
 N 0.47004 0.20666 0.64666   -0.207331
 N 0.5595 0.42885 0.94125   -0.044833
 N 0.99053 0.23476 0.20163   -0.282196
 N 0.04858 0.41515 0.31989   -0.270127
 N 0.93483 0.1704 0.03199   0.001418
 N 0.08369 0.45225 0.67522   -0.280234
 N 0.26338 0.44 0.79334   -0.203829
 N 0.13065 0.5124 0.57115   -0.043884
 O 0.22077 0.18179 0.12492   -0.382564
 O 0.39808 0.02855 0.54789   -0.370971
 O 0.03898 0.94313 0.81821   -0.383569
 O 0.36953 0.51934 0.97145   -0.364509
 O 0.09585 0.87508 0.05687   -0.38475
 O 0.85019 0.45211 0.48066   -0.364036
 O 0.77923 0.81821 0.87508   -0.382565
 O 0.60192 0.97145 0.45211   -0.370972
 O 0.96102 0.05687 0.18179   -0.38357
 O 0.63047 0.48066 0.02855   -0.36451
 O 0.90415 0.12492 0.94313   -0.38475
 O 0.14981 0.54789 0.51934   -0.364038
 O 0.10523 0.0 0.0   -0.70479
 O 0.89477 0.0 0.0   -0.704691
 F 0.3466 0.9962 0.0946   -0.501033
 F 0.3504 0.0984 0.0038   -0.501563
 F 0.252 0.9054 0.9016   -0.502234
 F 0.6534 0.0038 0.9054   -0.501288
 F 0.6496 0.9016 0.9962   -0.501813
 F 0.748 0.0946 0.0984   -0.502481
