{'_ref': 'TBD', '_srcid': 'CAKYAQ_clean', 'submitters': [{'name': 'Dalar Nazarian Jeff Camp and David Sholl', 'email': 'dalar@gatech.edu jcamp6@gatech.edu'}], '_method': 'VASP DFT with PBE;DDEC'}
data_Co2Ni3H50(C10N7)3
_symmetry_space_group_name_H-M   'P 1'
_cell_length_a   14.22870002
_cell_length_b   14.22870011
_cell_length_c   16.47500000
_cell_angle_alpha   81.37980181
_cell_angle_beta   81.37980175
_cell_angle_gamma   61.42480161
_symmetry_Int_Tables_number   1
_chemical_formula_structural   Co2Ni3H50(C10N7)3
_chemical_formula_sum   'Co4 Ni6 H100 C60 N42'
_cell_volume   2884.3122714
_cell_formula_units_Z   2
loop_
 _symmetry_equiv_pos_site_id
 _symmetry_equiv_pos_as_xyz
  1  'x, y, z'
loop_
 _atom_site_label
 _atom_site_fract_x
 _atom_site_fract_y
 _atom_site_fract_z
 _atom_site_charge
 Co 0.85088 0.77198 0.41366   -0.453642
 Co 0.22802 0.14912 0.08634   -0.453642
 Co 0.14912 0.22802 0.58634   -0.453642
 Co 0.77198 0.85088 0.91366   -0.453642
 Ni 0.94429 0.59563 0.69541   0.662074
 Ni 0.40437 0.05571 0.80459   0.662073
 Ni 0.05571 0.40437 0.30459   0.662074
 Ni 0.59563 0.94429 0.19541   0.662073
 Ni 0.1093 0.8907 0.25   0.569182
 Ni 0.8907 0.1093 0.75   0.569182
 H 0.061 0.6652 0.7353   0.305638
 H 0.1234 0.5924 0.6643   0.326199
 H 0.1928 0.4494 0.7482   0.057473
 H 0.2032 0.5366 0.7869   0.035444
 H 0.0661 0.5535 0.8737   0.115698
 H 0.1674 0.4426 0.8817   0.131115
 H 0.0298 0.409 0.8999   0.068589
 H 0.0845 0.3757 0.8128   0.04757
 H 0.9079 0.5583 0.8481   0.261517
 H 0.8758 0.4328 0.8771   0.062475
 H 0.9184 0.394 0.7896   0.066556
 H 0.7357 0.5717 0.8254   0.128645
 H 0.7429 0.4617 0.8153   0.114888
 H 0.6716 0.5882 0.7079   0.034381
 H 0.7707 0.4843 0.6798   0.071718
 H 0.8118 0.5982 0.6103   0.327596
 H 0.7494 0.6832 0.6734   0.312899
 H 0.2269 0.9201 0.3309   0.299833
 H 0.1701 0.8637 0.3904   0.314096
 H 0.1021 0.9809 0.4432   0.030748
 H 0.1497 0.0411 0.378   0.053823
 H 0.969 0.079 0.4275   0.076947
 H 0.018 0.1478 0.3751   0.096183
 H 0.8817 0.1111 0.3429   0.066856
 H 0.9417 0.1665 0.2862   0.056429
 H 0.3348 0.939 0.7647   0.305638
 H 0.4076 0.8766 0.8357   0.3262
 H 0.5506 0.8072 0.7518   0.057474
 H 0.4634 0.7968 0.7131   0.035448
 H 0.4465 0.9339 0.6263   0.115698
 H 0.5574 0.8326 0.6183   0.131115
 H 0.591 0.9702 0.6001   0.068589
 H 0.6243 0.9155 0.6872   0.04757
 H 0.4417 0.0921 0.6519   0.261517
 H 0.5672 0.1242 0.6229   0.062475
 H 0.606 0.0816 0.7104   0.066556
 H 0.4283 0.2643 0.6746   0.128646
 H 0.5383 0.2571 0.6847   0.114892
 H 0.4118 0.3284 0.7921   0.034388
 H 0.5157 0.2293 0.8202   0.07172
 H 0.4018 0.1882 0.8897   0.327596
 H 0.3168 0.2506 0.8266   0.312899
 H 0.0799 0.7731 0.1691   0.299833
 H 0.1363 0.8299 0.1096   0.314096
 H 0.0191 0.8979 0.0568   0.030748
 H 0.9589 0.8503 0.122   0.053823
 H 0.921 0.031 0.0725   0.076947
 H 0.8522 0.982 0.1249   0.096183
 H 0.8889 0.1183 0.1571   0.066856
 H 0.8335 0.0583 0.2138   0.056428
 H 0.939 0.3348 0.2647   0.305638
 H 0.8766 0.4076 0.3357   0.326199
 H 0.8072 0.5506 0.2518   0.057473
 H 0.7968 0.4634 0.2131   0.035443
 H 0.9339 0.4465 0.1263   0.115698
 H 0.8326 0.5574 0.1183   0.131115
 H 0.9702 0.591 0.1001   0.068589
 H 0.9155 0.6243 0.1872   0.04757
 H 0.0921 0.4417 0.1519   0.261517
 H 0.1242 0.5672 0.1229   0.062475
 H 0.0816 0.606 0.2104   0.066557
 H 0.2643 0.4283 0.1746   0.128645
 H 0.2571 0.5383 0.1847   0.11489
 H 0.3284 0.4118 0.2921   0.034381
 H 0.2293 0.5157 0.3202   0.071719
 H 0.1882 0.4018 0.3897   0.327596
 H 0.2506 0.3168 0.3266   0.312899
 H 0.7731 0.0799 0.6691   0.299833
 H 0.8299 0.1363 0.6096   0.314095
 H 0.8979 0.0191 0.5568   0.030748
 H 0.8503 0.9589 0.622   0.053823
 H 0.031 0.921 0.5725   0.076946
 H 0.982 0.8522 0.6249   0.096183
 H 0.1183 0.8889 0.6571   0.066854
 H 0.0583 0.8335 0.7138   0.056428
 H 0.6652 0.061 0.2353   0.305638
 H 0.5924 0.1234 0.1643   0.326199
 H 0.4494 0.1928 0.2482   0.057474
 H 0.5366 0.2032 0.2869   0.035447
 H 0.5535 0.0661 0.3737   0.115698
 H 0.4426 0.1674 0.3817   0.131115
 H 0.409 0.0298 0.3999   0.068589
 H 0.3757 0.0845 0.3128   0.04757
 H 0.5583 0.9079 0.3481   0.261517
 H 0.4328 0.8758 0.3771   0.062475
 H 0.394 0.9184 0.2896   0.066557
 H 0.5717 0.7357 0.3254   0.128646
 H 0.4617 0.7429 0.3153   0.114894
 H 0.5882 0.6716 0.2079   0.034388
 H 0.4843 0.7707 0.1798   0.07172
 H 0.5982 0.8118 0.1103   0.327596
 H 0.6832 0.7494 0.1734   0.312899
 H 0.9201 0.2269 0.8309   0.299833
 H 0.8637 0.1701 0.8904   0.314095
 H 0.9809 0.1021 0.9432   0.030748
 H 0.0411 0.1497 0.878   0.053823
 H 0.079 0.969 0.9275   0.076946
 H 0.1478 0.018 0.8751   0.096183
 H 0.1111 0.8817 0.8429   0.066854
 H 0.1665 0.9417 0.7862   0.056428
 C 0.9097 0.7223 0.516   0.227303
 C 0.9663 0.7969 0.3633   0.25577
 C 0.9237 0.6307 0.3825   0.222645
 C 0.7777 0.9169 0.4418   0.217183
 C 0.7326 0.7504 0.4598   0.211605
 C 0.785 0.8212 0.3142   0.231115
 C 0.154 0.508 0.774   0.14582
 C 0.118 0.49 0.847   -0.237095
 C 0.042 0.436 0.845   0.037297
 C 0.8603 0.4563 0.814   0.003983
 C 0.7527 0.5267 0.792   -0.208252
 C 0.7492 0.5472 0.708   0.121876
 C 0.1 0.004 0.392   0.176658
 C 0.008 0.088 0.375   -0.195734
 C 0.938 0.098 0.312   0.048155
 C 0.2777 0.0903 0.984   0.227303
 C 0.2031 0.0337 0.1367   0.25577
 C 0.3693 0.0763 0.1175   0.222644
 C 0.0831 0.2223 0.0582   0.217183
 C 0.2496 0.2674 0.0402   0.211605
 C 0.1788 0.215 0.1858   0.231115
 C 0.492 0.846 0.726   0.145818
 C 0.51 0.882 0.653   -0.237095
 C 0.564 0.958 0.655   0.037297
 C 0.5437 0.1397 0.686   0.003983
 C 0.4733 0.2473 0.708   -0.208254
 C 0.4528 0.2508 0.792   0.121874
 C 0.996 0.9 0.108   0.176658
 C 0.912 0.992 0.125   -0.195734
 C 0.902 0.062 0.188   0.048154
 C 0.0903 0.2777 0.484   0.227303
 C 0.0337 0.2031 0.6367   0.25577
 C 0.0763 0.3693 0.6175   0.222645
 C 0.2223 0.0831 0.5582   0.217183
 C 0.2674 0.2496 0.5402   0.211605
 C 0.215 0.1788 0.6858   0.231115
 C 0.846 0.492 0.226   0.14582
 C 0.882 0.51 0.153   -0.237095
 C 0.958 0.564 0.155   0.037297
 C 0.1397 0.5437 0.186   0.003983
 C 0.2473 0.4733 0.208   -0.208253
 C 0.2508 0.4528 0.292   0.121876
 C 0.9 0.996 0.608   0.176658
 C 0.992 0.912 0.625   -0.195734
 C 0.062 0.902 0.688   0.048156
 C 0.7223 0.9097 0.016   0.227303
 C 0.7969 0.9663 0.8633   0.25577
 C 0.6307 0.9237 0.8825   0.222644
 C 0.9169 0.7777 0.9418   0.217183
 C 0.7504 0.7326 0.9598   0.211605
 C 0.8212 0.785 0.8142   0.231115
 C 0.508 0.154 0.274   0.145819
 C 0.49 0.118 0.347   -0.237095
 C 0.436 0.042 0.345   0.037297
 C 0.4563 0.8603 0.314   0.003983
 C 0.5267 0.7527 0.292   -0.208255
 C 0.5472 0.7492 0.208   0.121874
 C 0.004 0.1 0.892   0.176658
 C 0.088 0.008 0.875   -0.195734
 C 0.098 0.938 0.812   0.048155
 N 0.9411 0.6869 0.5804   -0.461838
 N 0.0312 0.8162 0.3289   -0.498519
 N 0.9692 0.5468 0.361   -0.424467
 N 0.735 0.0036 0.4562   -0.538217
 N 0.6612 0.734 0.4849   -0.525332
 N 0.7361 0.8545 0.2575   -0.470174
 N 0.0838 0.5976 0.7157   -0.617636
 N 0.9415 0.5027 0.8107   -0.386218
 N 0.8004 0.6096 0.6666   -0.595365
 N 0.1596 0.921 0.3497   -0.601891
 N 0.3131 0.0589 0.9196   -0.461838
 N 0.1838 0.9688 0.1711   -0.498519
 N 0.4532 0.0308 0.139   -0.424466
 N 0.9964 0.265 0.0438   -0.538217
 N 0.266 0.3388 0.0151   -0.525332
 N 0.1455 0.2639 0.2425   -0.470174
 N 0.4024 0.9162 0.7843   -0.617636
 N 0.4973 0.0585 0.6893   -0.386218
 N 0.3904 0.1996 0.8334   -0.595364
 N 0.079 0.8404 0.1503   -0.601891
 N 0.0589 0.3131 0.4196   -0.461838
 N 0.9688 0.1838 0.6711   -0.498519
 N 0.0308 0.4532 0.639   -0.424467
 N 0.265 0.9964 0.5438   -0.538217
 N 0.3388 0.266 0.5151   -0.525332
 N 0.2639 0.1455 0.7425   -0.470174
 N 0.9162 0.4024 0.2843   -0.617636
 N 0.0585 0.4973 0.1893   -0.386218
 N 0.1996 0.3904 0.3334   -0.595365
 N 0.8404 0.079 0.6503   -0.601891
 N 0.6869 0.9411 0.0804   -0.461838
 N 0.8162 0.0312 0.8289   -0.498519
 N 0.5468 0.9692 0.861   -0.424466
 N 0.0036 0.735 0.9562   -0.538217
 N 0.734 0.6612 0.9849   -0.525332
 N 0.8545 0.7361 0.7575   -0.470174
 N 0.5976 0.0838 0.2157   -0.617635
 N 0.5027 0.9415 0.3107   -0.386218
 N 0.6096 0.8004 0.1666   -0.595364
 N 0.921 0.1596 0.8497   -0.601891
 N 0.966 0.034 0.25   -0.19003
 N 0.034 0.966 0.75   -0.19003
