{'_ref': 'TBD', '_srcid': 'CAKYAQ_clean', 'submitters': [{'name': 'Dalar Nazarian Jeff Camp and David Sholl', 'email': 'dalar@gatech.edu jcamp6@gatech.edu'}], '_method': 'VASP DFT with PBE;DDEC'}
data_Cu2H20C28N12(ClO4)3
_symmetry_space_group_name_H-M   'P 1'
_cell_length_a   14.76320000
_cell_length_b   14.76320000
_cell_length_c   20.02100000
_cell_angle_alpha   90.00000000
_cell_angle_beta   90.00000000
_cell_angle_gamma   90.00000000
_symmetry_Int_Tables_number   1
_chemical_formula_structural   Cu2H20C28N12(ClO4)3
_chemical_formula_sum   'Cu8 H80 C112 N48 Cl12 O48'
_cell_volume   4363.61847836
_cell_formula_units_Z   4
loop_
 _symmetry_equiv_pos_site_id
 _symmetry_equiv_pos_as_xyz
  1  'x, y, z'
loop_
 _atom_site_label
 _atom_site_fract_x
 _atom_site_fract_y
 _atom_site_fract_z
 _atom_site_charge
 Cu 0.0 0.0 0.5   0.72148
 Cu 0.5 0.0 0.0   0.72148
 Cu 0.5 0.5 0.5   0.72148
 Cu 0.0 0.5 0.0   0.72148
 Cu 0.25 0.75 0.75   0.336073
 Cu 0.75 0.25 0.25   0.336073
 Cu 0.75 0.25 0.75   0.336073
 Cu 0.25 0.75 0.25   0.336073
 H 0.2901 0.9432 0.7098   0.095626
 H 0.5568 0.2901 0.2098   0.095626
 H 0.2099 0.5568 0.7098   0.095626
 H 0.9432 0.2099 0.2098   0.095626
 H 0.7901 0.0568 0.7902   0.095626
 H 0.0568 0.7099 0.2902   0.095626
 H 0.7099 0.4432 0.7902   0.095626
 H 0.4432 0.7901 0.2902   0.095626
 H 0.7099 0.0568 0.2902   0.095626
 H 0.4432 0.7099 0.7902   0.095626
 H 0.7901 0.4432 0.2902   0.095626
 H 0.0568 0.7901 0.7902   0.095626
 H 0.2099 0.9432 0.2098   0.095626
 H 0.9432 0.2901 0.7098   0.095626
 H 0.2901 0.5568 0.2098   0.095626
 H 0.5568 0.2099 0.7098   0.095626
 H 0.2411 0.0544 0.6358   0.113939
 H 0.4456 0.2411 0.1358   0.113939
 H 0.2589 0.4456 0.6358   0.113939
 H 0.0544 0.2589 0.1358   0.113939
 H 0.7411 0.9456 0.8642   0.113939
 H 0.9456 0.7589 0.3642   0.113939
 H 0.7589 0.5544 0.8642   0.113939
 H 0.5544 0.7411 0.3642   0.113939
 H 0.7589 0.9456 0.3642   0.113938
 H 0.5544 0.7589 0.8642   0.113938
 H 0.7411 0.5544 0.3642   0.113938
 H 0.9456 0.7411 0.8642   0.113938
 H 0.2589 0.0544 0.1358   0.113938
 H 0.0544 0.2411 0.6358   0.113938
 H 0.2411 0.4456 0.1358   0.113938
 H 0.4456 0.2589 0.6358   0.113938
 H 0.9341 0.8053 0.5298   0.082134
 H 0.6947 0.9341 0.0298   0.082134
 H 0.5659 0.6947 0.5298   0.082134
 H 0.8053 0.5659 0.0298   0.082134
 H 0.4341 0.1947 0.9702   0.082134
 H 0.1947 0.0659 0.4702   0.082134
 H 0.0659 0.3053 0.9702   0.082134
 H 0.3053 0.4341 0.4702   0.082134
 H 0.0659 0.1947 0.4702   0.082134
 H 0.3053 0.0659 0.9702   0.082134
 H 0.4341 0.3053 0.4702   0.082134
 H 0.1947 0.4341 0.9702   0.082134
 H 0.5659 0.8053 0.0298   0.082134
 H 0.8053 0.9341 0.5298   0.082134
 H 0.9341 0.6947 0.0298   0.082134
 H 0.6947 0.5659 0.5298   0.082134
 H 0.973 0.6877 0.6025   0.1457
 H 0.8123 0.973 0.1025   0.1457
 H 0.527 0.8123 0.6025   0.1457
 H 0.6877 0.527 0.1025   0.1457
 H 0.473 0.3123 0.8975   0.1457
 H 0.3123 0.027 0.3975   0.1457
 H 0.027 0.1877 0.8975   0.1457
 H 0.1877 0.473 0.3975   0.1457
 H 0.027 0.3123 0.3975   0.145699
 H 0.1877 0.027 0.8975   0.145699
 H 0.473 0.1877 0.3975   0.145699
 H 0.3123 0.473 0.8975   0.145699
 H 0.527 0.6877 0.1025   0.145698
 H 0.6877 0.973 0.6025   0.145698
 H 0.973 0.8123 0.1025   0.145698
 H 0.8123 0.527 0.6025   0.145698
 H 0.0983 0.7037 0.6726   0.097424
 H 0.7963 0.0983 0.1726   0.097424
 H 0.4017 0.7963 0.6726   0.097424
 H 0.7037 0.4017 0.1726   0.097424
 H 0.5983 0.2963 0.8274   0.097424
 H 0.2963 0.9017 0.3274   0.097424
 H 0.9017 0.2037 0.8274   0.097424
 H 0.2037 0.5983 0.3274   0.097424
 H 0.9017 0.2963 0.3274   0.097424
 H 0.2037 0.9017 0.8274   0.097424
 H 0.5983 0.2037 0.3274   0.097424
 H 0.2963 0.5983 0.8274   0.097424
 H 0.4017 0.7037 0.1726   0.097424
 H 0.7037 0.0983 0.6726   0.097424
 H 0.0983 0.7963 0.1726   0.097424
 H 0.7963 0.4017 0.6726   0.097424
 C 0.2401 0.93 0.6816   0.088308
 C 0.57 0.2401 0.1816   0.088308
 C 0.2599 0.57 0.6816   0.088308
 C 0.93 0.2599 0.1816   0.088308
 C 0.7401 0.07 0.8184   0.088308
 C 0.07 0.7599 0.3184   0.088308
 C 0.7599 0.43 0.8184   0.088308
 C 0.43 0.7401 0.3184   0.088308
 C 0.7599 0.07 0.3184   0.088308
 C 0.43 0.7599 0.8184   0.088308
 C 0.7401 0.43 0.3184   0.088308
 C 0.07 0.7401 0.8184   0.088308
 C 0.2599 0.93 0.1816   0.088308
 C 0.93 0.2401 0.6816   0.088308
 C 0.2401 0.57 0.1816   0.088308
 C 0.57 0.2599 0.6816   0.088308
 C 0.2102 0.9979 0.6364   0.149989
 C 0.5021 0.2102 0.1364   0.149989
 C 0.2898 0.5021 0.6364   0.149989
 C 0.9979 0.2898 0.1364   0.149989
 C 0.7102 0.0021 0.8636   0.149989
 C 0.0021 0.7898 0.3636   0.149989
 C 0.7898 0.4979 0.8636   0.149989
 C 0.4979 0.7102 0.3636   0.149989
 C 0.7898 0.0021 0.3636   0.149989
 C 0.4979 0.7898 0.8636   0.149989
 C 0.7102 0.4979 0.3636   0.149989
 C 0.0021 0.7102 0.8636   0.149989
 C 0.2898 0.9979 0.1364   0.149989
 C 0.9979 0.2102 0.6364   0.149989
 C 0.2102 0.5021 0.1364   0.149989
 C 0.5021 0.2898 0.6364   0.149989
 C 0.9838 0.8134 0.5593   0.210168
 C 0.6866 0.9838 0.0593   0.210168
 C 0.5162 0.6866 0.5593   0.210168
 C 0.8134 0.5162 0.0593   0.210168
 C 0.4838 0.1866 0.9407   0.210168
 C 0.1866 0.0162 0.4407   0.210168
 C 0.0162 0.3134 0.9407   0.210168
 C 0.3134 0.4838 0.4407   0.210168
 C 0.0162 0.1866 0.4407   0.210168
 C 0.3134 0.0162 0.9407   0.210168
 C 0.4838 0.3134 0.4407   0.210168
 C 0.1866 0.4838 0.9407   0.210168
 C 0.5162 0.8134 0.0593   0.210168
 C 0.8134 0.9838 0.5593   0.210168
 C 0.9838 0.6866 0.0593   0.210168
 C 0.6866 0.5162 0.5593   0.210168
 C 0.0073 0.7421 0.6023   -0.126311
 C 0.7579 0.0073 0.1023   -0.126311
 C 0.4927 0.7579 0.6023   -0.126311
 C 0.7421 0.4927 0.1023   -0.126311
 C 0.5073 0.2579 0.8977   -0.126312
 C 0.2579 0.9927 0.3977   -0.126312
 C 0.9927 0.2421 0.8977   -0.126312
 C 0.2421 0.5073 0.3977   -0.126312
 C 0.9927 0.2579 0.3977   -0.126311
 C 0.2421 0.9927 0.8977   -0.126311
 C 0.5073 0.2421 0.3977   -0.126311
 C 0.2579 0.5073 0.8977   -0.126311
 C 0.4927 0.7421 0.1023   -0.126311
 C 0.7421 0.0073 0.6023   -0.126311
 C 0.0073 0.7579 0.1023   -0.126311
 C 0.7579 0.4927 0.6023   -0.126311
 C 0.0803 0.752 0.6442   -0.053828
 C 0.748 0.0803 0.1442   -0.053828
 C 0.4197 0.748 0.6442   -0.053828
 C 0.752 0.4197 0.1442   -0.053828
 C 0.5803 0.248 0.8558   -0.053828
 C 0.248 0.9197 0.3558   -0.053828
 C 0.9197 0.252 0.8558   -0.053828
 C 0.252 0.5803 0.3558   -0.053828
 C 0.9197 0.248 0.3558   -0.053828
 C 0.252 0.9197 0.8558   -0.053828
 C 0.5803 0.252 0.3558   -0.053828
 C 0.248 0.5803 0.8558   -0.053828
 C 0.4197 0.752 0.1442   -0.053828
 C 0.752 0.0803 0.6442   -0.053828
 C 0.0803 0.748 0.1442   -0.053828
 C 0.748 0.4197 0.6442   -0.053828
 C 0.1283 0.8347 0.6445   0.101104
 C 0.6653 0.1283 0.1445   0.101104
 C 0.3717 0.6653 0.6445   0.101104
 C 0.8347 0.3717 0.1445   0.101104
 C 0.6283 0.1653 0.8555   0.101104
 C 0.1653 0.8717 0.3555   0.101104
 C 0.8717 0.3347 0.8555   0.101104
 C 0.3347 0.6283 0.3555   0.101104
 C 0.8717 0.1653 0.3555   0.101104
 C 0.3347 0.8717 0.8555   0.101104
 C 0.6283 0.3347 0.3555   0.101104
 C 0.1653 0.6283 0.8555   0.101104
 C 0.3717 0.8347 0.1445   0.101104
 C 0.8347 0.1283 0.6445   0.101104
 C 0.1283 0.6653 0.1445   0.101104
 C 0.6653 0.3717 0.6445   0.101104
 C 0.0998 0.9034 0.6003   0.340104
 C 0.5966 0.0998 0.1003   0.340104
 C 0.4002 0.5966 0.6003   0.340104
 C 0.9034 0.4002 0.1003   0.340104
 C 0.5998 0.0966 0.8997   0.340104
 C 0.0966 0.9002 0.3997   0.340104
 C 0.9002 0.4034 0.8997   0.340104
 C 0.4034 0.5998 0.3997   0.340104
 C 0.9002 0.0966 0.3997   0.340104
 C 0.4034 0.9002 0.8997   0.340104
 C 0.5998 0.4034 0.3997   0.340104
 C 0.0966 0.5998 0.8997   0.340104
 C 0.4002 0.9034 0.1003   0.340104
 C 0.9034 0.0998 0.6003   0.340104
 C 0.0998 0.5966 0.1003   0.340104
 C 0.5966 0.4002 0.6003   0.340104
 N 0.2014 0.8488 0.6864   -0.238553
 N 0.6512 0.2014 0.1864   -0.238553
 N 0.2986 0.6512 0.6864   -0.238553
 N 0.8488 0.2986 0.1864   -0.238553
 N 0.7014 0.1512 0.8136   -0.238553
 N 0.1512 0.7986 0.3136   -0.238553
 N 0.7986 0.3488 0.8136   -0.238553
 N 0.3488 0.7014 0.3136   -0.238553
 N 0.7986 0.1512 0.3136   -0.238553
 N 0.3488 0.7986 0.8136   -0.238553
 N 0.7014 0.3488 0.3136   -0.238553
 N 0.1512 0.7014 0.8136   -0.238553
 N 0.2986 0.8488 0.1864   -0.238553
 N 0.8488 0.2014 0.6864   -0.238553
 N 0.2014 0.6512 0.1864   -0.238553
 N 0.6512 0.2986 0.6864   -0.238553
 N 0.1417 0.986 0.5955   -0.338146
 N 0.514 0.1417 0.0955   -0.338146
 N 0.3583 0.514 0.5955   -0.338146
 N 0.986 0.3583 0.0955   -0.338146
 N 0.6417 0.014 0.9045   -0.338146
 N 0.014 0.8583 0.4045   -0.338146
 N 0.8583 0.486 0.9045   -0.338146
 N 0.486 0.6417 0.4045   -0.338146
 N 0.8583 0.014 0.4045   -0.338146
 N 0.486 0.8583 0.9045   -0.338146
 N 0.6417 0.486 0.4045   -0.338146
 N 0.014 0.6417 0.9045   -0.338146
 N 0.3583 0.986 0.0955   -0.338146
 N 0.986 0.1417 0.5955   -0.338146
 N 0.1417 0.514 0.0955   -0.338146
 N 0.514 0.3583 0.5955   -0.338146
 N 0.0281 0.8919 0.5581   -0.33564
 N 0.6081 0.0281 0.0581   -0.33564
 N 0.4719 0.6081 0.5581   -0.33564
 N 0.8919 0.4719 0.0581   -0.33564
 N 0.5281 0.1081 0.9419   -0.33564
 N 0.1081 0.9719 0.4419   -0.33564
 N 0.9719 0.3919 0.9419   -0.33564
 N 0.3919 0.5281 0.4419   -0.33564
 N 0.9719 0.1081 0.4419   -0.33564
 N 0.3919 0.9719 0.9419   -0.33564
 N 0.5281 0.3919 0.4419   -0.33564
 N 0.1081 0.5281 0.9419   -0.33564
 N 0.4719 0.8919 0.0581   -0.33564
 N 0.8919 0.0281 0.5581   -0.33564
 N 0.0281 0.6081 0.0581   -0.33564
 N 0.6081 0.4719 0.5581   -0.33564
 Cl 0.75 0.75 0.4818   1.531066
 Cl 0.75 0.75 0.9818   1.531066
 Cl 0.25 0.25 0.0182   1.531066
 Cl 0.25 0.25 0.5182   1.531066
 Cl 0.9819 0.9819 0.7761   1.481704
 Cl 0.5181 0.9819 0.2761   1.481704
 Cl 0.5181 0.5181 0.7761   1.481704
 Cl 0.9819 0.5181 0.2761   1.481704
 Cl 0.4819 0.0181 0.7239   1.481704
 Cl 0.0181 0.0181 0.2239   1.481704
 Cl 0.0181 0.4819 0.7239   1.481704
 Cl 0.4819 0.4819 0.2239   1.481704
 O 0.8048 0.6952 0.5234   -0.611688
 O 0.8048 0.8048 0.0234   -0.611688
 O 0.6952 0.8048 0.5234   -0.611689
 O 0.6952 0.6952 0.0234   -0.611689
 O 0.3048 0.3048 0.9766   -0.611688
 O 0.3048 0.1952 0.4766   -0.611688
 O 0.1952 0.1952 0.9766   -0.611689
 O 0.1952 0.3048 0.4766   -0.611689
 O 0.8066 0.8066 0.4446   -0.562537
 O 0.6934 0.8066 0.9446   -0.562537
 O 0.6934 0.6934 0.4446   -0.562537
 O 0.8066 0.6934 0.9446   -0.562537
 O 0.3066 0.1934 0.0554   -0.562537
 O 0.1934 0.1934 0.5554   -0.562537
 O 0.1934 0.3066 0.0554   -0.562537
 O 0.3066 0.3066 0.5554   -0.562537
 O 0.0703 0.9578 0.7716   -0.505854
 O 0.5422 0.0703 0.2716   -0.505854
 O 0.4297 0.5422 0.7716   -0.505854
 O 0.9578 0.4297 0.2716   -0.505854
 O 0.5703 0.0422 0.7284   -0.505854
 O 0.0422 0.9297 0.2284   -0.505854
 O 0.9297 0.4578 0.7284   -0.505854
 O 0.4578 0.5703 0.2284   -0.505854
 O 0.9297 0.0422 0.2284   -0.505854
 O 0.4578 0.9297 0.7284   -0.505854
 O 0.5703 0.4578 0.2284   -0.505854
 O 0.0422 0.5703 0.7284   -0.505854
 O 0.4297 0.9578 0.2716   -0.505854
 O 0.9578 0.0703 0.7716   -0.505854
 O 0.0703 0.5422 0.2716   -0.505854
 O 0.5422 0.4297 0.7716   -0.505854
 O 0.9506 0.9506 0.7051   -0.735665
 O 0.5494 0.9506 0.2051   -0.735665
 O 0.5494 0.5494 0.7051   -0.735665
 O 0.9506 0.5494 0.2051   -0.735665
 O 0.4506 0.0494 0.7949   -0.735665
 O 0.0494 0.0494 0.2949   -0.735665
 O 0.0494 0.4506 0.7949   -0.735665
 O 0.4506 0.4506 0.2949   -0.735665
 O 0.9272 0.9272 0.8154   -0.518448
 O 0.5728 0.9272 0.3154   -0.518448
 O 0.5728 0.5728 0.8154   -0.518448
 O 0.9272 0.5728 0.3154   -0.518448
 O 0.4272 0.0728 0.6846   -0.518448
 O 0.0728 0.0728 0.1846   -0.518448
 O 0.0728 0.4272 0.6846   -0.518448
 O 0.4272 0.4272 0.1846   -0.518448
