{'_ref': 'TBD', '_srcid': 'CAKYAQ_clean', 'submitters': [{'name': 'Dalar Nazarian Jeff Camp and David Sholl', 'email': 'dalar@gatech.edu jcamp6@gatech.edu'}], '_method': 'VASP DFT with PBE;DDEC'}
data_BiH4C4NO8
_symmetry_space_group_name_H-M   'P 1'
_cell_length_a   9.25449965
_cell_length_b   9.46319958
_cell_length_c   9.46320000
_cell_angle_alpha   76.16699640
_cell_angle_beta   60.72709981
_cell_angle_gamma   60.72699976
_symmetry_Int_Tables_number   1
_chemical_formula_structural   BiH4C4NO8
_chemical_formula_sum   'Bi2 H8 C8 N2 O16'
_cell_volume   630.610099777
_cell_formula_units_Z   2
loop_
 _symmetry_equiv_pos_site_id
 _symmetry_equiv_pos_as_xyz
  1  'x, y, z'
loop_
 _atom_site_label
 _atom_site_fract_x
 _atom_site_fract_y
 _atom_site_fract_z
 _atom_site_charge
 Bi 0.875 0.25 0.75   1.679741
 Bi 0.125 0.75 0.25   1.679741
 H 0.5134 0.8096 0.3096   0.373231
 H 0.6326 0.6904 0.1904   0.373229
 H 0.677 0.6904 0.3096   0.373234
 H 0.677 0.8096 0.1904   0.373234
 H 0.323 0.1904 0.8096   0.37323
 H 0.323 0.3096 0.6904   0.37323
 H 0.4866 0.1904 0.6904   0.373236
 H 0.3674 0.3096 0.8096   0.373233
 C 0.1002 0.976 0.476   0.548138
 C 0.5522 0.524 0.024   0.548141
 C 0.0762 0.024 0.976   0.548128
 C 0.0762 0.476 0.524   0.548127
 C 0.8998 0.024 0.524   0.548131
 C 0.4478 0.476 0.976   0.548134
 C 0.9238 0.524 0.476   0.54812
 C 0.9238 0.976 0.024   0.548121
 N 0.625 0.75 0.25   -0.633996
 N 0.375 0.25 0.75   -0.633997
 O 0.1305 0.0466 0.5466   -0.599873
 O 0.2191 0.8702 0.3702   -0.582934
 O 0.7237 0.4534 0.9534   -0.599877
 O 0.4595 0.6298 0.1298   -0.582932
 O 0.1771 0.9534 0.0466   -0.599864
 O 0.0893 0.1298 0.8702   -0.582926
 O 0.1771 0.5466 0.4534   -0.599862
 O 0.0893 0.3702 0.6298   -0.582926
 O 0.8695 0.9534 0.4534   -0.599872
 O 0.7809 0.1298 0.6298   -0.582934
 O 0.2763 0.5466 0.0466   -0.599876
 O 0.5405 0.3702 0.8702   -0.582932
 O 0.8229 0.4534 0.5466   -0.599862
 O 0.9107 0.6298 0.3702   -0.582926
 O 0.8229 0.0466 0.9534   -0.599863
 O 0.9107 0.8702 0.1298   -0.582926
