{'_ref': 'TBD', '_srcid': 'CAKYAQ_clean', 'submitters': [{'name': 'Dalar Nazarian Jeff Camp and David Sholl', 'email': 'dalar@gatech.edu jcamp6@gatech.edu'}], '_method': 'VASP DFT with PBE;DDEC'}
data_Zn4H18C30O13
_symmetry_space_group_name_H-M   'P 1'
_cell_length_a   18.27312415
_cell_length_b   18.27312415
_cell_length_c   18.27312415
_cell_angle_alpha   60.00000000
_cell_angle_beta   60.00000000
_cell_angle_gamma   60.00000000
_symmetry_Int_Tables_number   1
_chemical_formula_structural   Zn4H18C30O13
_chemical_formula_sum   'Zn8 H36 C60 O26'
_cell_volume   4314.42989779
_cell_formula_units_Z   2
loop_
 _symmetry_equiv_pos_site_id
 _symmetry_equiv_pos_as_xyz
  1  'x, y, z'
loop_
 _atom_site_label
 _atom_site_fract_x
 _atom_site_fract_y
 _atom_site_fract_z
 _atom_site_charge
 Zn 0.70646 0.70644 0.88066   1.081714
 Zn 0.70646 0.88066 0.70644   1.0833
 Zn 0.11934 0.29356 0.29356   1.081155
 Zn 0.29357 0.29355 0.11933   1.082922
 Zn 0.29357 0.29355 0.29355   1.082745
 Zn 0.29357 0.11933 0.29355   1.081454
 Zn 0.88068 0.70644 0.70644   1.083293
 Zn 0.70645 0.70645 0.70643   1.081739
 H 0.49797 0.12561 0.79189   0.090233
 H 0.79189 0.58453 0.49797   0.086829
 H 0.49797 0.58453 0.12561   0.089349
 H 0.12561 0.79189 0.49797   0.089866
 H 0.49797 0.79189 0.58453   0.089667
 H 0.79189 0.49797 0.12561   0.087617
 H 0.50203 0.20811 0.87439   0.089723
 H 0.87439 0.41547 0.50203   0.089605
 H 0.87439 0.50203 0.20811   0.08711
 H 0.50203 0.87439 0.41547   0.089089
 H 0.20811 0.87439 0.50203   0.087181
 H 0.50203 0.41547 0.20811   0.089688
 H 0.41547 0.20811 0.87439   0.090195
 H 0.87439 0.50203 0.41547   0.0868
 H 0.41547 0.50203 0.20811   0.089815
 H 0.20811 0.87439 0.41547   0.089319
 H 0.41547 0.87439 0.50203   0.0876
 H 0.87439 0.41547 0.20811   0.089617
 H 0.58453 0.12561 0.79189   0.089779
 H 0.79189 0.49797 0.58453   0.089651
 H 0.79189 0.58453 0.12561   0.089103
 H 0.58453 0.79189 0.49797   0.087114
 H 0.12561 0.79189 0.58453   0.089691
 H 0.58453 0.49797 0.12561   0.087197
 H 0.94371 0.14939 0.45345   0.095973
 H 0.8513 0.06094 0.54388   0.096884
 H 0.45345 0.45345 0.94371   0.096772
 H 0.54388 0.54388 0.8513   0.096115
 H 0.45612 0.1487 0.45612   0.097515
 H 0.54388 0.06094 0.54388   0.097561
 H 0.1487 0.45612 0.93906   0.097525
 H 0.06094 0.54388 0.8513   0.097558
 H 0.06094 0.54388 0.54388   0.097179
 H 0.14939 0.45345 0.45345   0.097026
 H 0.45612 0.93906 0.1487   0.09618
 H 0.54388 0.8513 0.06094   0.096194
 C 0.61201 0.88799 0.88799   0.713029
 C 0.55648 0.94352 0.94352   -0.133413
 C 0.52817 0.02965 0.91401   0.071472
 C 0.52664 0.11266 0.83406   -0.170002
 C 0.52817 0.91401 0.02965   -0.073842
 C 0.88799 0.61201 0.61201   0.713058
 C 0.94352 0.55648 0.55648   -0.133726
 C 0.91401 0.52817 0.52817   0.070256
 C 0.83406 0.52664 0.52664   -0.168456
 C 0.02965 0.52817 0.52817   -0.069512
 C 0.61201 0.61201 0.88799   0.713228
 C 0.55648 0.55648 0.94352   -0.133767
 C 0.52817 0.52817 0.02965   0.07031
 C 0.52664 0.52664 0.11266   -0.168324
 C 0.52817 0.52817 0.91401   -0.070171
 C 0.88799 0.88799 0.61201   0.713084
 C 0.94352 0.94352 0.55648   -0.133664
 C 0.91401 0.02965 0.52817   -0.069828
 C 0.02965 0.91401 0.52817   0.070895
 C 0.11266 0.83406 0.52664   -0.169899
 C 0.61201 0.88799 0.61201   0.712863
 C 0.55648 0.94352 0.55648   -0.133441
 C 0.52817 0.91401 0.52817   0.070753
 C 0.52664 0.83406 0.52664   -0.168685
 C 0.52817 0.02965 0.52817   -0.072849
 C 0.88799 0.61201 0.88799   0.712869
 C 0.94352 0.55648 0.94352   -0.13345
 C 0.91401 0.52817 0.02965   0.070746
 C 0.83406 0.52664 0.11266   -0.168646
 C 0.02965 0.52817 0.91401   -0.072851
 C 0.38799 0.11201 0.11201   0.713086
 C 0.44352 0.05648 0.05648   -0.133576
 C 0.47183 0.97035 0.08599   -0.073855
 C 0.47183 0.08599 0.97035   0.071438
 C 0.47336 0.16594 0.88734   -0.170011
 C 0.11201 0.38799 0.38799   0.713053
 C 0.05648 0.44352 0.44352   -0.135668
 C 0.97035 0.47183 0.47183   0.071022
 C 0.88734 0.47336 0.47336   -0.169358
 C 0.08599 0.47183 0.47183   -0.074127
 C 0.11201 0.38799 0.11201   0.713047
 C 0.05648 0.44352 0.05648   -0.133619
 C 0.08599 0.47183 0.97035   -0.072865
 C 0.97035 0.47183 0.08599   0.070737
 C 0.88734 0.47336 0.16594   -0.168694
 C 0.38799 0.11201 0.38799   0.712931
 C 0.44352 0.05648 0.44352   -0.133606
 C 0.47183 0.97035 0.47183   0.070735
 C 0.47336 0.88734 0.47336   -0.168667
 C 0.47183 0.08599 0.47183   -0.072889
 C 0.11201 0.11201 0.38799   0.713123
 C 0.05648 0.05648 0.44352   -0.135645
 C 0.97035 0.08599 0.47183   -0.074847
 C 0.08599 0.97035 0.47183   0.071084
 C 0.16594 0.88734 0.47336   -0.169225
 C 0.38799 0.38799 0.11201   0.71304
 C 0.44352 0.44352 0.05648   -0.135576
 C 0.47183 0.47183 0.97035   -0.074473
 C 0.47183 0.47183 0.08599   0.071667
 C 0.47336 0.47336 0.16594   -0.170799
 O 0.75 0.75 0.75   -1.249564
 O 0.63341 0.80371 0.92947   -0.600566
 O 0.63341 0.92947 0.80371   -0.595932
 O 0.92947 0.63341 0.63341   -0.599856
 O 0.80371 0.63341 0.63341   -0.595903
 O 0.63341 0.63341 0.80371   -0.600217
 O 0.63341 0.63341 0.92947   -0.595713
 O 0.92947 0.80371 0.63341   -0.596024
 O 0.80371 0.92947 0.63341   -0.600167
 O 0.63341 0.92947 0.63341   -0.599914
 O 0.63341 0.80371 0.63341   -0.596099
 O 0.92947 0.63341 0.80371   -0.599891
 O 0.80371 0.63341 0.92947   -0.596086
 O 0.25 0.25 0.25   -1.249312
 O 0.36659 0.19629 0.07053   -0.595988
 O 0.36659 0.07053 0.19629   -0.600398
 O 0.19629 0.36659 0.36659   -0.598975
 O 0.07053 0.36659 0.36659   -0.595703
 O 0.07053 0.36659 0.19629   -0.596193
 O 0.19629 0.36659 0.07053   -0.600048
 O 0.36659 0.19629 0.36659   -0.599967
 O 0.36659 0.07053 0.36659   -0.595986
 O 0.19629 0.07053 0.36659   -0.595385
 O 0.07053 0.19629 0.36659   -0.599258
 O 0.36659 0.36659 0.19629   -0.595777
 O 0.36659 0.36659 0.07053   -0.599222
