{'_ref': 'TBD', '_srcid': 'CAKYAQ_clean', 'submitters': [{'name': 'Dalar Nazarian Jeff Camp and David Sholl', 'email': 'dalar@gatech.edu jcamp6@gatech.edu'}], '_method': 'VASP DFT with PBE;DDEC'}
data_Cd3H22C38(NO3)4
_symmetry_space_group_name_H-M   'P 1'
_cell_length_a   11.68760002
_cell_length_b   13.21260009
_cell_length_c   15.86960000
_cell_angle_alpha   71.50639960
_cell_angle_beta   68.39300071
_cell_angle_gamma   63.74989847
_symmetry_Int_Tables_number   1
_chemical_formula_structural   Cd3H22C38(NO3)4
_chemical_formula_sum   'Cd6 H44 C76 N8 O24'
_cell_volume   2008.16210853
_cell_formula_units_Z   2
loop_
 _symmetry_equiv_pos_site_id
 _symmetry_equiv_pos_as_xyz
  1  'x, y, z'
loop_
 _atom_site_label
 _atom_site_fract_x
 _atom_site_fract_y
 _atom_site_fract_z
 _atom_site_charge
 Cd 0.53581 0.02534 0.86802   0.987343
 Cd 0.92917 0.47466 0.63198   0.988006
 Cd 0.46419 0.97466 0.13198   0.987343
 Cd 0.07083 0.52534 0.36802   0.988006
 Cd 0.55087 0.75 0.75   1.079351
 Cd 0.44913 0.25 0.25   1.079351
 H 0.2929 0.288 0.1184   0.09096
 H 0.2905 0.6087 0.0465   0.095538
 H 0.4545 0.4071 0.8575   0.082532
 H 0.257 0.1972 0.8284   0.075295
 H 0.0624 0.2007 0.8195   0.132961
 H 0.1719 0.8673 0.9315   0.120447
 H 0.3608 0.8719 0.9385   0.078546
 H 0.692 0.191 0.8232   0.076672
 H 0.8803 0.2013 0.8245   0.13938
 H 0.0147 0.8599 0.9087   0.134397
 H 0.8208 0.8605 0.9051   0.086053
 H 0.1993 0.212 0.3816   0.090636
 H 0.4457 0.8913 0.4535   0.095938
 H 0.2191 0.0929 0.6425   0.082525
 H 0.7826 0.3028 0.6716   0.075113
 H 0.5826 0.2993 0.6805   0.131428
 H 0.4707 0.6327 0.5685   0.120714
 H 0.6712 0.6281 0.5615   0.078857
 H 0.2062 0.309 0.6768   0.076864
 H 0.4061 0.2987 0.6755   0.139492
 H 0.2833 0.6401 0.5913   0.133471
 H 0.0864 0.6395 0.5949   0.085321
 H 0.7071 0.712 0.8816   0.090961
 H 0.7095 0.3913 0.9535   0.095538
 H 0.5455 0.5929 0.1425   0.082532
 H 0.743 0.8028 0.1716   0.075295
 H 0.9376 0.7993 0.1805   0.13296
 H 0.8281 0.1327 0.0685   0.120447
 H 0.6392 0.1281 0.0615   0.078546
 H 0.308 0.809 0.1768   0.076672
 H 0.1197 0.7987 0.1755   0.13938
 H 0.9853 0.1401 0.0913   0.134397
 H 0.1792 0.1395 0.0949   0.086054
 H 0.8007 0.788 0.6184   0.090637
 H 0.5543 0.1087 0.5465   0.095938
 H 0.7809 0.9071 0.3575   0.082525
 H 0.2174 0.6972 0.3284   0.075113
 H 0.4174 0.7007 0.3195   0.131428
 H 0.5293 0.3673 0.4315   0.120714
 H 0.3288 0.3719 0.4385   0.078857
 H 0.7938 0.691 0.3232   0.076864
 H 0.5939 0.7013 0.3245   0.139492
 H 0.7167 0.3599 0.4087   0.133471
 H 0.9136 0.3605 0.4051   0.085322
 C 0.4187 0.2192 0.9554   0.677136
 C 0.3779 0.331 0.983   -0.155788
 C 0.3135 0.3472 0.0734   0.001297
 C 0.2797 0.4515 0.0969   -0.177725
 C 0.3134 0.5388 0.0308   0.020102
 C 0.3814 0.5219 0.9409   -0.15414
 C 0.4112 0.4178 0.918   0.024087
 C 0.4346 0.6085 0.8707   0.636775
 C 0.2115 0.4699 0.1945   0.673434
 C 0.2395 0.13 0.8492   0.161128
 C 0.1223 0.1325 0.8431   -0.176333
 C 0.0956 0.0315 0.8727   0.088518
 C 0.187 0.9357 0.9093   -0.155281
 C 0.3008 0.9389 0.9137   0.18321
 C 0.7587 0.1233 0.8403   0.168068
 C 0.8714 0.1305 0.8409   -0.179904
 C 0.9742 0.0296 0.8666   0.100601
 C 0.9506 0.9292 0.8906   -0.197319
 C 0.8331 0.9298 0.8882   0.178207
 C 0.0933 0.2808 0.5446   0.676949
 C 0.1919 0.169 0.517   -0.155062
 C 0.2341 0.1528 0.4266   0.000161
 C 0.3281 0.0485 0.4031   -0.176716
 C 0.383 0.9612 0.4692   0.017865
 C 0.3442 0.9781 0.5591   -0.151614
 C 0.247 0.0822 0.582   0.022527
 C 0.4138 0.8915 0.6293   0.63613
 C 0.3759 0.0301 0.3055   0.676872
 C 0.7187 0.37 0.6508   0.160136
 C 0.5979 0.3675 0.6569   -0.174182
 C 0.4998 0.4685 0.6273   0.089606
 C 0.532 0.5643 0.5907   -0.157557
 C 0.6534 0.5611 0.5863   0.18462
 C 0.2223 0.3767 0.6597   0.168678
 C 0.3428 0.3695 0.6591   -0.18076
 C 0.3704 0.4704 0.6334   0.101924
 C 0.2704 0.5708 0.6094   -0.196253
 C 0.1511 0.5702 0.6118   0.178513
 C 0.5813 0.7808 0.0446   0.677136
 C 0.6221 0.669 0.017   -0.155788
 C 0.6865 0.6528 0.9266   0.001296
 C 0.7203 0.5485 0.9031   -0.177726
 C 0.6866 0.4612 0.9692   0.020102
 C 0.6186 0.4781 0.0591   -0.15414
 C 0.5888 0.5822 0.082   0.024087
 C 0.5654 0.3915 0.1293   0.636776
 C 0.7885 0.5301 0.8055   0.673433
 C 0.7605 0.87 0.1508   0.161127
 C 0.8777 0.8675 0.1569   -0.176334
 C 0.9044 0.9685 0.1273   0.088518
 C 0.813 0.0643 0.0907   -0.155282
 C 0.6992 0.0611 0.0863   0.18321
 C 0.2413 0.8767 0.1597   0.168067
 C 0.1286 0.8695 0.1591   -0.179904
 C 0.0258 0.9704 0.1334   0.100601
 C 0.0494 0.0708 0.1094   -0.197319
 C 0.1669 0.0702 0.1118   0.178206
 C 0.9067 0.7192 0.4554   0.676949
 C 0.8081 0.831 0.483   -0.155062
 C 0.7659 0.8472 0.5734   0.000161
 C 0.6719 0.9515 0.5969   -0.176717
 C 0.617 0.0388 0.5308   0.017865
 C 0.6558 0.0219 0.4409   -0.151614
 C 0.753 0.9178 0.418   0.022527
 C 0.5862 0.1085 0.3707   0.636131
 C 0.6241 0.9699 0.6945   0.676871
 C 0.2813 0.63 0.3492   0.160135
 C 0.4021 0.6325 0.3431   -0.174183
 C 0.5002 0.5315 0.3727   0.089606
 C 0.468 0.4357 0.4093   -0.157557
 C 0.3466 0.4389 0.4137   0.18462
 C 0.7777 0.6233 0.3403   0.168677
 C 0.6572 0.6305 0.3409   -0.18076
 C 0.6296 0.5296 0.3666   0.101923
 C 0.7296 0.4292 0.3906   -0.196253
 C 0.8489 0.4298 0.3882   0.178512
 N 0.3287 0.0335 0.8841   -0.353864
 N 0.7377 0.0243 0.8629   -0.346262
 N 0.7463 0.4665 0.6159   -0.35434
 N 0.1249 0.4757 0.6371   -0.347383
 N 0.6713 0.9665 0.1159   -0.353864
 N 0.2623 0.9757 0.1371   -0.346262
 N 0.2537 0.5335 0.3841   -0.35434
 N 0.8751 0.5243 0.3629   -0.347382
 O 0.4274 0.1293 0.0147   -0.645806
 O 0.4476 0.2191 0.8707   -0.5959
 O 0.498 0.5876 0.7922   -0.592012
 O 0.4181 0.6978 0.8946   -0.61178
 O 0.1346 0.5687 0.2083   -0.57774
 O 0.2334 0.3849 0.2599   -0.632639
 O 0.0714 0.3707 0.4853   -0.645728
 O 0.0374 0.2809 0.6293   -0.595277
 O 0.3778 0.9124 0.7078   -0.5916
 O 0.5105 0.8022 0.6054   -0.612168
 O 0.4116 0.9313 0.2917   -0.579906
 O 0.3782 0.1151 0.2401   -0.633342
 O 0.5726 0.8707 0.9853   -0.645806
 O 0.5524 0.7809 0.1293   -0.5959
 O 0.502 0.4124 0.2078   -0.592012
 O 0.5819 0.3022 0.1054   -0.61178
 O 0.8654 0.4313 0.7917   -0.57774
 O 0.7666 0.6151 0.7401   -0.632639
 O 0.9286 0.6293 0.5147   -0.645728
 O 0.9626 0.7191 0.3707   -0.595277
 O 0.6222 0.0876 0.2922   -0.5916
 O 0.4895 0.1978 0.3946   -0.612168
 O 0.5884 0.0687 0.7083   -0.579906
 O 0.6218 0.8849 0.7599   -0.633342
