{'_ref': 'TBD', '_srcid': 'CAKYAQ_clean', 'submitters': [{'name': 'Dalar Nazarian Jeff Camp and David Sholl', 'email': 'dalar@gatech.edu jcamp6@gatech.edu'}], '_method': 'VASP DFT with PBE;DDEC'}
data_FeH6(C3O)4
_symmetry_space_group_name_H-M   'P 1'
_cell_length_a   11.21890011
_cell_length_b   11.21890018
_cell_length_c   21.25500000
_cell_angle_alpha   95.73889835
_cell_angle_beta   95.73889838
_cell_angle_gamma   107.19199967
_symmetry_Int_Tables_number   1
_chemical_formula_structural   FeH6(C3O)4
_chemical_formula_sum   'Fe6 H36 C72 O24'
_cell_volume   2519.16455421
_cell_formula_units_Z   6
loop_
 _symmetry_equiv_pos_site_id
 _symmetry_equiv_pos_as_xyz
  1  'x, y, z'
loop_
 _atom_site_label
 _atom_site_fract_x
 _atom_site_fract_y
 _atom_site_fract_z
 _atom_site_charge
 Fe 0.98316 0.50002 0.19241   0.96737
 Fe 0.49998 0.01684 0.30759   0.967368
 Fe 0.01684 0.49998 0.80759   0.96737
 Fe 0.50002 0.98316 0.69241   0.967368
 Fe 0.75296 0.24704 0.25   1.221175
 Fe 0.24704 0.75296 0.75   1.221175
 H 0.007 0.7192 0.3979   0.101698
 H 0.0319 0.7431 0.5066   0.080563
 H 0.9549 0.3487 0.3913   0.10298
 H 0.9041 0.9843 0.1471   0.111832
 H 0.938 0.831 0.0779   0.117889
 H 0.011 0.238 0.029   0.108522
 H 0.4811 0.2659 0.0942   0.083855
 H 0.3425 0.2775 0.0098   0.101346
 H 0.713 0.6054 0.0765   0.100452
 H 0.2808 0.993 0.1021   0.101698
 H 0.2569 0.9681 0.9934   0.080563
 H 0.6513 0.0451 0.1087   0.10298
 H 0.0157 0.0959 0.3529   0.111833
 H 0.169 0.062 0.4221   0.117889
 H 0.762 0.989 0.471   0.108522
 H 0.7341 0.5189 0.4058   0.083856
 H 0.7225 0.6575 0.4902   0.101346
 H 0.3946 0.287 0.4235   0.100452
 H 0.993 0.2808 0.6021   0.101698
 H 0.9681 0.2569 0.4934   0.080563
 H 0.0451 0.6513 0.6087   0.10298
 H 0.0959 0.0157 0.8529   0.111832
 H 0.062 0.169 0.9221   0.117889
 H 0.989 0.762 0.971   0.108523
 H 0.5189 0.7341 0.9058   0.083855
 H 0.6575 0.7225 0.9902   0.101346
 H 0.287 0.3946 0.9235   0.100453
 H 0.7192 0.007 0.8979   0.101698
 H 0.7431 0.0319 0.0066   0.080563
 H 0.3487 0.9549 0.8913   0.10298
 H 0.9843 0.9041 0.6471   0.111833
 H 0.831 0.938 0.5779   0.11789
 H 0.238 0.011 0.529   0.108523
 H 0.2659 0.4811 0.5942   0.083856
 H 0.2775 0.3425 0.5098   0.101346
 H 0.6054 0.713 0.5765   0.100453
 C 0.9667 0.5175 0.3124   0.694949
 C 0.9772 0.5294 0.384   -0.131354
 C 0.0016 0.6496 0.4191   -0.049537
 C 0.0173 0.6637 0.484   -0.106168
 C 0.0122 0.5604 0.5177   0.037106
 C 0.9707 0.4275 0.4149   -0.050804
 C 0.9236 0.2232 0.1396   0.709983
 C 0.9529 0.1269 0.0936   -0.138521
 C 0.9315 0.0037 0.1084   -0.044881
 C 0.9505 0.9115 0.0669   -0.138132
 C 0.9938 0.1556 0.0379   -0.072835
 C 0.9884 0.9384 0.0081   0.041803
 C 0.7043 0.4251 0.1482   0.725096
 C 0.6124 0.4344 0.0937   -0.145131
 C 0.4999 0.3367 0.0732   -0.034911
 C 0.4166 0.3434 0.0227   -0.137917
 C 0.4435 0.4509 0.99   0.041562
 C 0.6392 0.5396 0.0626   -0.077297
 C 0.4825 0.0333 0.1876   0.694949
 C 0.4706 0.0228 0.116   -0.131354
 C 0.3504 0.9984 0.0809   -0.049537
 C 0.3363 0.9827 0.016   -0.106168
 C 0.4396 0.9878 0.9823   0.037106
 C 0.5725 0.0293 0.0851   -0.050804
 C 0.7768 0.0764 0.3604   0.709983
 C 0.8731 0.0471 0.4064   -0.138521
 C 0.9963 0.0685 0.3916   -0.044881
 C 0.0885 0.0495 0.4331   -0.138132
 C 0.8444 0.0062 0.4621   -0.072835
 C 0.0616 0.0116 0.4919   0.041803
 C 0.5749 0.2957 0.3518   0.725096
 C 0.5656 0.3876 0.4063   -0.145131
 C 0.6633 0.5001 0.4268   -0.034911
 C 0.6566 0.5834 0.4773   -0.137917
 C 0.5491 0.5565 0.51   0.041562
 C 0.4604 0.3608 0.4374   -0.077297
 C 0.0333 0.4825 0.6876   0.694949
 C 0.0228 0.4706 0.616   -0.131353
 C 0.9984 0.3504 0.5809   -0.049537
 C 0.9827 0.3363 0.516   -0.106167
 C 0.9878 0.4396 0.4823   0.037101
 C 0.0293 0.5725 0.5851   -0.050806
 C 0.0764 0.7768 0.8604   0.709983
 C 0.0471 0.8731 0.9064   -0.138521
 C 0.0685 0.9963 0.8916   -0.044881
 C 0.0495 0.0885 0.9331   -0.138132
 C 0.0062 0.8444 0.9621   -0.072838
 C 0.0116 0.0616 0.9919   0.041799
 C 0.2957 0.5749 0.8518   0.725096
 C 0.3876 0.5656 0.9063   -0.14513
 C 0.5001 0.6633 0.9268   -0.034911
 C 0.5834 0.6566 0.9773   -0.137915
 C 0.5565 0.5491 0.01   0.041558
 C 0.3608 0.4604 0.9374   -0.077299
 C 0.5175 0.9667 0.8124   0.694949
 C 0.5294 0.9772 0.884   -0.131353
 C 0.6496 0.0016 0.9191   -0.049537
 C 0.6637 0.0173 0.984   -0.106167
 C 0.5604 0.0122 0.0177   0.037101
 C 0.4275 0.9707 0.9149   -0.050806
 C 0.2232 0.9236 0.6396   0.709983
 C 0.1269 0.9529 0.5936   -0.13852
 C 0.0037 0.9315 0.6084   -0.044881
 C 0.9115 0.9505 0.5669   -0.138132
 C 0.1556 0.9938 0.5379   -0.072838
 C 0.9384 0.9884 0.5081   0.041799
 C 0.4251 0.7043 0.6482   0.725096
 C 0.4344 0.6124 0.5937   -0.14513
 C 0.3367 0.4999 0.5732   -0.034912
 C 0.3434 0.4166 0.5227   -0.137915
 C 0.4509 0.4435 0.49   0.041558
 C 0.5396 0.6392 0.5626   -0.077299
 O 0.0066 0.613 0.28654   -0.555034
 O 0.92286 0.40914 0.27967   -0.637951
 O 0.9613 0.3361 0.12924   -0.615728
 O 0.8632 0.1832 0.1833   -0.584265
 O 0.8085 0.5103 0.15875   -0.616817
 O 0.6703 0.3321 0.17726   -0.600304
 O 0.387 0.9934 0.21346   -0.555034
 O 0.59086 0.07714 0.22033   -0.637951
 O 0.6639 0.0387 0.37076   -0.615728
 O 0.8168 0.1368 0.3167   -0.584265
 O 0.4897 0.1915 0.34125   -0.616817
 O 0.6679 0.3297 0.32274   -0.600304
 O 0.9934 0.387 0.71346   -0.555034
 O 0.07714 0.59086 0.72033   -0.637951
 O 0.0387 0.6639 0.87076   -0.615728
 O 0.1368 0.8168 0.8167   -0.584265
 O 0.1915 0.4897 0.84125   -0.616817
 O 0.3297 0.6679 0.82274   -0.600304
 O 0.613 0.0066 0.78654   -0.555034
 O 0.40914 0.92286 0.77967   -0.637951
 O 0.3361 0.9613 0.62924   -0.615728
 O 0.1832 0.8632 0.6833   -0.584265
 O 0.5103 0.8085 0.65875   -0.616817
 O 0.3321 0.6703 0.67726   -0.600304
