{'_ref': 'TBD', '_srcid': 'CAKYAQ_clean', 'submitters': [{'name': 'Dalar Nazarian Jeff Camp and David Sholl', 'email': 'dalar@gatech.edu jcamp6@gatech.edu'}], '_method': 'VASP DFT with PBE;DDEC'}
data_Cd7H8C20(N7O9)2
_symmetry_space_group_name_H-M   'P 1'
_cell_length_a   11.17900008
_cell_length_b   11.17899976
_cell_length_c   17.06500000
_cell_angle_alpha   81.36430190
_cell_angle_beta   81.36430215
_cell_angle_gamma   84.91730276
_symmetry_Int_Tables_number   1
_chemical_formula_structural   Cd7H8C20(N7O9)2
_chemical_formula_sum   'Cd14 H16 C40 N28 O36'
_cell_volume   2079.76868848
_cell_formula_units_Z   2
loop_
 _symmetry_equiv_pos_site_id
 _symmetry_equiv_pos_as_xyz
  1  'x, y, z'
loop_
 _atom_site_label
 _atom_site_fract_x
 _atom_site_fract_y
 _atom_site_fract_z
 _atom_site_charge
 Cd 0.32233 0.22589 0.518   0.982627
 Cd 0.06803 0.42945 0.84897   1.050395
 Cd 0.50728 0.02174 0.11994   0.881632
 Cd 0.77411 0.67767 0.982   0.982627
 Cd 0.57055 0.93197 0.65103   1.050395
 Cd 0.97826 0.49272 0.38006   0.881632
 Cd 0.67767 0.77411 0.482   0.982626
 Cd 0.93197 0.57055 0.15103   1.050395
 Cd 0.49272 0.97826 0.88006   0.881632
 Cd 0.22589 0.32233 0.018   0.982626
 Cd 0.42945 0.06803 0.34897   1.050395
 Cd 0.02174 0.50728 0.61994   0.881632
 Cd 0.83404 0.16596 0.75   1.037045
 Cd 0.16596 0.83404 0.25   1.037045
 H 0.3832 0.4812 0.4028   0.083932
 H 0.3348 0.5218 0.4865   0.082591
 H 0.5455 0.3315 0.5877   0.075254
 H 0.4374 0.4282 0.6028   0.091779
 H 0.5188 0.6168 0.0972   0.083932
 H 0.4782 0.6652 0.0135   0.082591
 H 0.6685 0.4545 0.9123   0.075254
 H 0.5718 0.5626 0.8972   0.091779
 H 0.6168 0.5188 0.5972   0.083933
 H 0.6652 0.4782 0.5135   0.082591
 H 0.4545 0.6685 0.4123   0.075254
 H 0.5626 0.5718 0.3972   0.09178
 H 0.4812 0.3832 0.9028   0.083933
 H 0.5218 0.3348 0.9865   0.082592
 H 0.3315 0.5455 0.0877   0.075254
 H 0.4282 0.4374 0.1028   0.09178
 C 0.704 0.2156 0.0855   0.599335
 C 0.773 0.1962 0.9309   0.012547
 C 0.329 0.1858 0.7828   -0.015355
 C 0.7058 0.1732 0.006   0.01851
 C 0.4071 0.4951 0.4529   -0.014142
 C 0.3024 0.216 0.8667   0.659021
 C 0.2904 0.2274 0.7091   -0.029644
 C 0.8795 0.2671 0.8983   0.605252
 C 0.5051 0.4055 0.564   -0.02147
 C 0.1982 0.323 0.6781   0.647256
 C 0.7844 0.296 0.4145   0.599334
 C 0.8038 0.227 0.5691   0.012547
 C 0.8142 0.671 0.7172   -0.015355
 C 0.8268 0.2942 0.494   0.01851
 C 0.5049 0.5929 0.0471   -0.014142
 C 0.784 0.6976 0.6333   0.659021
 C 0.7726 0.7096 0.7909   -0.029644
 C 0.7329 0.1205 0.6017   0.605252
 C 0.5945 0.4949 0.936   -0.02147
 C 0.677 0.8018 0.8219   0.647256
 C 0.296 0.7844 0.9145   0.599334
 C 0.227 0.8038 0.0691   0.012547
 C 0.671 0.8142 0.2172   -0.015356
 C 0.2942 0.8268 0.994   0.01851
 C 0.5929 0.5049 0.5471   -0.014143
 C 0.6976 0.784 0.1333   0.659021
 C 0.7096 0.7726 0.2909   -0.029644
 C 0.1205 0.7329 0.1017   0.605252
 C 0.4949 0.5945 0.436   -0.02147
 C 0.8018 0.677 0.3219   0.647256
 C 0.2156 0.704 0.5855   0.599334
 C 0.1962 0.773 0.4309   0.012547
 C 0.1858 0.329 0.2828   -0.015356
 C 0.1732 0.7058 0.506   0.01851
 C 0.4951 0.4071 0.9529   -0.014143
 C 0.216 0.3024 0.3667   0.659021
 C 0.2274 0.2904 0.2091   -0.029644
 C 0.2671 0.8795 0.3983   0.605252
 C 0.4055 0.5051 0.064   -0.02147
 C 0.323 0.1982 0.1781   0.647256
 N 0.3559 0.1633 0.6546   -0.227485
 N 0.6319 0.0807 0.9235   0.006806
 N 0.4304 0.084 0.6938   -0.019503
 N 0.4581 0.3815 0.4922   -0.253989
 N 0.7243 0.1387 0.8807   -0.327289
 N 0.416 0.0964 0.7702   -0.184744
 N 0.6183 0.1007 0.9992   -0.198203
 N 0.8367 0.6441 0.8454   -0.227485
 N 0.9193 0.3681 0.5765   0.006806
 N 0.916 0.5696 0.8062   -0.019503
 N 0.6185 0.5419 0.0078   -0.253989
 N 0.8613 0.2757 0.6193   -0.327289
 N 0.9036 0.584 0.7298   -0.184744
 N 0.8993 0.3817 0.5008   -0.198203
 N 0.6441 0.8367 0.3454   -0.227485
 N 0.3681 0.9193 0.0765   0.006806
 N 0.5696 0.916 0.3062   -0.019503
 N 0.5419 0.6185 0.5078   -0.253989
 N 0.2757 0.8613 0.1193   -0.327289
 N 0.584 0.9036 0.2298   -0.184744
 N 0.3817 0.8993 0.000799999999998   -0.198203
 N 0.1633 0.3559 0.1546   -0.227485
 N 0.0807 0.6319 0.4235   0.006806
 N 0.084 0.4304 0.1938   -0.019503
 N 0.3815 0.4581 0.9922   -0.253989
 N 0.1387 0.7243 0.3807   -0.327289
 N 0.0964 0.416 0.2702   -0.184744
 N 0.1007 0.6183 0.4992   -0.198203
 O 0.6372 0.1606 0.1432   -0.601826
 O 0.2263 0.3003 0.8842   -0.609453
 O 0.1211 0.3785 0.7231   -0.560643
 O 0.9108 0.283 0.8234   -0.639278
 O 0.3615 0.1553 0.9171   -0.58064
 O 0.7614 0.3044 0.0893   -0.499202
 O 0.10371 0.48611 0.96623   -0.4614
 O 0.2012 0.3456 0.6029   -0.582184
 O 0.936 0.3114 0.944   -0.489006
 O 0.8394 0.3628 0.3568   -0.601826
 O 0.6997 0.7737 0.6158   -0.609453
 O 0.6215 0.8789 0.7769   -0.560643
 O 0.717 0.0892 0.6766   -0.639278
 O 0.8447 0.6385 0.5829   -0.58064
 O 0.6956 0.2386 0.4107   -0.499202
 O 0.51389 0.89629 0.53377   -0.4614
 O 0.6544 0.7988 0.8971   -0.582184
 O 0.6886 0.064 0.556   -0.489005
 O 0.3628 0.8394 0.8568   -0.601826
 O 0.7737 0.6997 0.1158   -0.609453
 O 0.8789 0.6215 0.2769   -0.560643
 O 0.0892 0.717 0.1766   -0.639278
 O 0.6385 0.8447 0.0829   -0.58064
 O 0.2386 0.6956 0.9107   -0.499203
 O 0.89629 0.51389 0.03377   -0.461401
 O 0.7988 0.6544 0.3971   -0.582184
 O 0.064 0.6886 0.056   -0.489006
 O 0.1606 0.6372 0.6432   -0.601826
 O 0.3003 0.2263 0.3842   -0.609453
 O 0.3785 0.1211 0.2231   -0.560643
 O 0.283 0.9108 0.3234   -0.639278
 O 0.1553 0.3615 0.4171   -0.58064
 O 0.3044 0.7614 0.5893   -0.499203
 O 0.48611 0.10371 0.46623   -0.461401
 O 0.3456 0.2012 0.1029   -0.582184
 O 0.3114 0.936 0.444   -0.489005
