{'_ref': 'TBD', '_srcid': 'CAKYAQ_clean', 'submitters': [{'name': 'Dalar Nazarian Jeff Camp and David Sholl', 'email': 'dalar@gatech.edu jcamp6@gatech.edu'}], '_method': 'VASP DFT with PBE;DDEC'}
data_CdH36C48N12ClO4
_symmetry_space_group_name_H-M   'P 1'
_cell_length_a   15.87460000
_cell_length_b   15.87460000
_cell_length_c   21.49700000
_cell_angle_alpha   90.00000000
_cell_angle_beta   90.00000000
_cell_angle_gamma   90.00000000
_symmetry_Int_Tables_number   1
_chemical_formula_structural   CdH36C48N12ClO4
_chemical_formula_sum   'Cd4 H144 C192 N48 Cl4 O16'
_cell_volume   5417.30688216
_cell_formula_units_Z   4
loop_
 _symmetry_equiv_pos_site_id
 _symmetry_equiv_pos_as_xyz
  1  'x, y, z'
loop_
 _atom_site_label
 _atom_site_fract_x
 _atom_site_fract_y
 _atom_site_fract_z
 _atom_site_charge
 Cd 0.05914 0.05914 0.0   0.788989
 Cd 0.94086 0.94086 0.5   0.788989
 Cd 0.44086 0.55914 0.25   0.788989
 Cd 0.55914 0.44086 0.75   0.788989
 H 0.3879 0.5384 0.0985   0.071128
 H 0.2862 0.59 0.0309   0.130237
 H 0.2574 0.7881 0.1479   0.131772
 H 0.3583 0.7306 0.2105   0.07062
 H 0.2009 0.6535 0.9674   0.074688
 H 0.0868 0.7036 0.9125   0.094091
 H 0.9942 0.801 0.9571   0.085999
 H 0.1378 0.803 0.1125   0.11247
 H 0.8766 0.0476 0.2089   0.101181
 H 0.7676 0.0665 0.2794   0.098674
 H 0.6614 0.9653 0.2888   0.104339
 H 0.7762 0.8259 0.156   0.084553
 H 0.6066 0.8454 0.3171   0.128156
 H 0.513 0.734 0.3274   0.068091
 H 0.5534 0.6632 0.1546   0.054606
 H 0.6499 0.7718 0.1406   0.1173
 H 0.9687 0.7465 0.1461   0.33265
 H 0.9029 0.7402 0.0972   0.309261
 H 0.6121 0.4616 0.5985   0.071128
 H 0.7138 0.41 0.5309   0.130237
 H 0.7426 0.2119 0.6479   0.131772
 H 0.6417 0.2694 0.7105   0.07062
 H 0.7991 0.3465 0.4674   0.074688
 H 0.9132 0.2964 0.4125   0.094091
 H 0.0058 0.199 0.4571   0.085999
 H 0.8622 0.197 0.6125   0.11247
 H 0.1234 0.9524 0.7089   0.101181
 H 0.2324 0.9335 0.7794   0.098674
 H 0.3386 0.0347 0.7888   0.104339
 H 0.2238 0.1741 0.656   0.084553
 H 0.3934 0.1546 0.8171   0.128156
 H 0.487 0.266 0.8274   0.068091
 H 0.4466 0.3368 0.6546   0.054606
 H 0.3501 0.2282 0.6406   0.1173
 H 0.0313 0.2535 0.6461   0.33265
 H 0.0971 0.2598 0.5972   0.309261
 H 0.9616 0.8879 0.3485   0.071128
 H 0.91 0.7862 0.2809   0.130237
 H 0.7119 0.7574 0.3979   0.131772
 H 0.7694 0.8583 0.4605   0.07062
 H 0.8465 0.7009 0.2174   0.074687
 H 0.7964 0.5868 0.1625   0.094091
 H 0.699 0.4942 0.2071   0.085999
 H 0.697 0.6378 0.3625   0.11247
 H 0.4524 0.3766 0.4589   0.101181
 H 0.4335 0.2676 0.5294   0.098677
 H 0.5347 0.1614 0.5388   0.104339
 H 0.6741 0.2762 0.406   0.084553
 H 0.6546 0.1066 0.5671   0.128156
 H 0.766 0.013 0.5774   0.068091
 H 0.8368 0.0534 0.4046   0.054605
 H 0.7282 0.1499 0.3906   0.117303
 H 0.7535 0.4687 0.3961   0.332649
 H 0.7598 0.4029 0.3472   0.309261
 H 0.0384 0.1121 0.8485   0.071128
 H 0.09 0.2138 0.7809   0.130237
 H 0.2881 0.2426 0.8979   0.131772
 H 0.2306 0.1417 0.9605   0.07062
 H 0.1535 0.2991 0.7174   0.074687
 H 0.2036 0.4132 0.6625   0.094091
 H 0.301 0.5058 0.7071   0.085999
 H 0.303 0.3622 0.8625   0.11247
 H 0.5476 0.6234 0.9589   0.101181
 H 0.5665 0.7324 0.0294   0.098677
 H 0.4653 0.8386 0.0388   0.104339
 H 0.3259 0.7238 0.906   0.084553
 H 0.3454 0.8934 0.0671   0.128156
 H 0.234 0.987 0.0774   0.068091
 H 0.1632 0.9466 0.9046   0.054605
 H 0.2718 0.8501 0.8906   0.117303
 H 0.2465 0.5313 0.8961   0.332649
 H 0.2402 0.5971 0.8472   0.309261
 H 0.1121 0.0384 0.1515   0.071128
 H 0.2138 0.09 0.2191   0.130237
 H 0.2426 0.2881 0.1021   0.131772
 H 0.1417 0.2306 0.0395   0.07062
 H 0.2991 0.1535 0.2826   0.074688
 H 0.4132 0.2036 0.3375   0.094091
 H 0.5058 0.301 0.2929   0.086
 H 0.3622 0.303 0.1375   0.11247
 H 0.6234 0.5476 0.0411   0.10118
 H 0.7324 0.5665 0.9706   0.098677
 H 0.8386 0.4653 0.9612   0.104339
 H 0.7238 0.3259 0.094   0.084553
 H 0.8934 0.3454 0.9329   0.128156
 H 0.987 0.234 0.9226   0.068091
 H 0.9466 0.1632 0.0954   0.054605
 H 0.8501 0.2718 0.1094   0.1173
 H 0.5313 0.2465 0.1039   0.33265
 H 0.5971 0.2402 0.1528   0.309263
 H 0.8879 0.9616 0.6515   0.071128
 H 0.7862 0.91 0.7191   0.130237
 H 0.7574 0.7119 0.6021   0.131772
 H 0.8583 0.7694 0.5395   0.07062
 H 0.7009 0.8465 0.7826   0.074688
 H 0.5868 0.7964 0.8375   0.094091
 H 0.4942 0.699 0.7929   0.086
 H 0.6378 0.697 0.6375   0.11247
 H 0.3766 0.4524 0.5411   0.10118
 H 0.2676 0.4335 0.4706   0.098677
 H 0.1614 0.5347 0.4612   0.104339
 H 0.2762 0.6741 0.594   0.084553
 H 0.1066 0.6546 0.4329   0.128156
 H 0.013 0.766 0.4226   0.068091
 H 0.0534 0.8368 0.5954   0.054605
 H 0.1499 0.7282 0.6094   0.1173
 H 0.4687 0.7535 0.6039   0.33265
 H 0.4029 0.7598 0.6528   0.309263
 H 0.5384 0.3879 0.9015   0.071128
 H 0.59 0.2862 0.9691   0.130237
 H 0.7881 0.2574 0.8521   0.131772
 H 0.7306 0.3583 0.7895   0.07062
 H 0.6535 0.2009 0.0326   0.074687
 H 0.7036 0.0868 0.0875   0.094091
 H 0.801 0.9942 0.0429   0.086
 H 0.803 0.1378 0.8875   0.11247
 H 0.0476 0.8766 0.7911   0.10118
 H 0.0665 0.7676 0.7206   0.09868
 H 0.9653 0.6614 0.7112   0.104339
 H 0.8259 0.7762 0.844   0.084553
 H 0.8454 0.6066 0.6829   0.128156
 H 0.734 0.513 0.6726   0.068091
 H 0.6632 0.5534 0.8454   0.054605
 H 0.7718 0.6499 0.8594   0.117303
 H 0.7465 0.9687 0.8539   0.332649
 H 0.7402 0.9029 0.9028   0.309263
 H 0.4616 0.6121 0.4015   0.071128
 H 0.41 0.7138 0.4691   0.130237
 H 0.2119 0.7426 0.3521   0.131772
 H 0.2694 0.6417 0.2895   0.07062
 H 0.3465 0.7991 0.5326   0.074687
 H 0.2964 0.9132 0.5875   0.094091
 H 0.199 0.0058 0.5429   0.086
 H 0.197 0.8622 0.3875   0.11247
 H 0.9524 0.1234 0.2911   0.10118
 H 0.9335 0.2324 0.2206   0.09868
 H 0.0347 0.3386 0.2112   0.104339
 H 0.1741 0.2238 0.344   0.084553
 H 0.1546 0.3934 0.1829   0.128156
 H 0.266 0.487 0.1726   0.068091
 H 0.3368 0.4466 0.3454   0.054605
 H 0.2282 0.3501 0.3594   0.117303
 H 0.2535 0.0313 0.3539   0.332649
 H 0.2598 0.0971 0.4028   0.309263
 C 0.3594 0.589 0.1093   0.158559
 C 0.298 0.6191 0.0686   -0.20826
 C 0.2542 0.6922 0.0838   0.084128
 C 0.2813 0.7352 0.1374   -0.195691
 C 0.342 0.7007 0.1742   0.130956
 C 0.1817 0.7234 0.0468   0.021827
 C 0.1648 0.694 0.986   -0.093406
 C 0.0968 0.7235 0.9536   -0.086239
 C 0.042 0.7818 0.9795   -0.122753
 C 0.0588 0.8116 0.0391   -0.047287
 C 0.1275 0.7822 0.0718   -0.130357
 C 0.0025 0.8748 0.0698   0.230047
 C 0.9074 0.9254 0.1319   0.235573
 C 0.8367 0.9346 0.176   0.001764
 C 0.8337 0.0061 0.2126   -0.09913
 C 0.7689 0.0175 0.2541   -0.089397
 C 0.7055 0.9577 0.2594   -0.125535
 C 0.7067 0.8864 0.2213   0.020058
 C 0.7737 0.8753 0.1808   -0.129722
 C 0.6408 0.8198 0.2279   0.097404
 C 0.5977 0.8081 0.2832   -0.208089
 C 0.5414 0.7415 0.2889   0.161278
 C 0.565 0.7 0.1884   0.170739
 C 0.6228 0.7651 0.1797   -0.227911
 C 0.6406 0.411 0.6093   0.158559
 C 0.702 0.3809 0.5686   -0.20826
 C 0.7458 0.3078 0.5838   0.084128
 C 0.7187 0.2648 0.6374   -0.195691
 C 0.658 0.2993 0.6742   0.130956
 C 0.8183 0.2766 0.5468   0.021827
 C 0.8352 0.306 0.486   -0.093406
 C 0.9032 0.2765 0.4536   -0.086239
 C 0.958 0.2182 0.4795   -0.122753
 C 0.9412 0.1884 0.5391   -0.047287
 C 0.8725 0.2178 0.5718   -0.130357
 C 0.9975 0.1252 0.5698   0.230047
 C 0.0926 0.0746 0.6319   0.235573
 C 0.1633 0.0654 0.676   0.001764
 C 0.1663 0.9939 0.7126   -0.09913
 C 0.2311 0.9825 0.7541   -0.089397
 C 0.2945 0.0423 0.7594   -0.125535
 C 0.2933 0.1136 0.7213   0.020058
 C 0.2263 0.1247 0.6808   -0.129722
 C 0.3592 0.1802 0.7279   0.097404
 C 0.4023 0.1919 0.7832   -0.208089
 C 0.4586 0.2585 0.7889   0.161278
 C 0.435 0.3 0.6884   0.170739
 C 0.3772 0.2349 0.6797   -0.227911
 C 0.911 0.8594 0.3593   0.158558
 C 0.8809 0.798 0.3186   -0.20826
 C 0.8078 0.7542 0.3338   0.084129
 C 0.7648 0.7813 0.3874   -0.195691
 C 0.7993 0.842 0.4242   0.130956
 C 0.7766 0.6817 0.2968   0.021827
 C 0.806 0.6648 0.236   -0.093406
 C 0.7765 0.5968 0.2036   -0.08624
 C 0.7182 0.542 0.2295   -0.122753
 C 0.6884 0.5588 0.2891   -0.047287
 C 0.7178 0.6275 0.3218   -0.130357
 C 0.6252 0.5025 0.3198   0.230047
 C 0.5746 0.4074 0.3819   0.235573
 C 0.5654 0.3367 0.426   0.001764
 C 0.4939 0.3337 0.4626   -0.099129
 C 0.4825 0.2689 0.5041   -0.089399
 C 0.5423 0.2055 0.5094   -0.125535
 C 0.6136 0.2067 0.4713   0.020059
 C 0.6247 0.2737 0.4308   -0.129721
 C 0.6802 0.1408 0.4779   0.097405
 C 0.6919 0.0977 0.5332   -0.208089
 C 0.7585 0.0414 0.5389   0.161279
 C 0.8 0.065 0.4384   0.170739
 C 0.7349 0.1228 0.4297   -0.227912
 C 0.089 0.1406 0.8593   0.158558
 C 0.1191 0.202 0.8186   -0.20826
 C 0.1922 0.2458 0.8338   0.084129
 C 0.2352 0.2187 0.8874   -0.195691
 C 0.2007 0.158 0.9242   0.130956
 C 0.2234 0.3183 0.7968   0.021827
 C 0.194 0.3352 0.736   -0.093406
 C 0.2235 0.4032 0.7036   -0.08624
 C 0.2818 0.458 0.7295   -0.122753
 C 0.3116 0.4412 0.7891   -0.047287
 C 0.2822 0.3725 0.8218   -0.130357
 C 0.3748 0.4975 0.8198   0.230047
 C 0.4254 0.5926 0.8819   0.235573
 C 0.4346 0.6633 0.926   0.001764
 C 0.5061 0.6663 0.9626   -0.099129
 C 0.5175 0.7311 0.0041   -0.089399
 C 0.4577 0.7945 0.0094   -0.125535
 C 0.3864 0.7933 0.9713   0.020059
 C 0.3753 0.7263 0.9308   -0.129721
 C 0.3198 0.8592 0.9779   0.097405
 C 0.3081 0.9023 0.0332   -0.208089
 C 0.2415 0.9586 0.0389   0.161279
 C 0.2 0.935 0.9384   0.170739
 C 0.2651 0.8772 0.9297   -0.227912
 C 0.1406 0.089 0.1407   0.158559
 C 0.202 0.1191 0.1814   -0.20826
 C 0.2458 0.1922 0.1662   0.084128
 C 0.2187 0.2352 0.1126   -0.195691
 C 0.158 0.2007 0.0758   0.130956
 C 0.3183 0.2234 0.2032   0.021827
 C 0.3352 0.194 0.264   -0.093406
 C 0.4032 0.2235 0.2964   -0.086239
 C 0.458 0.2818 0.2705   -0.122753
 C 0.4412 0.3116 0.2109   -0.047287
 C 0.3725 0.2822 0.1782   -0.130357
 C 0.4975 0.3748 0.1802   0.230047
 C 0.5926 0.4254 0.1181   0.235573
 C 0.6633 0.4346 0.074   0.001764
 C 0.6663 0.5061 0.0374   -0.099129
 C 0.7311 0.5175 0.9959   -0.089399
 C 0.7945 0.4577 0.9906   -0.125535
 C 0.7933 0.3864 0.0287   0.020058
 C 0.7263 0.3753 0.0692   -0.129722
 C 0.8592 0.3198 0.0221   0.097404
 C 0.9023 0.3081 0.9668   -0.208089
 C 0.9586 0.2415 0.9611   0.161278
 C 0.935 0.2 0.0616   0.170739
 C 0.8772 0.2651 0.0703   -0.227911
 C 0.8594 0.911 0.6407   0.158559
 C 0.798 0.8809 0.6814   -0.20826
 C 0.7542 0.8078 0.6662   0.084128
 C 0.7813 0.7648 0.6126   -0.195691
 C 0.842 0.7993 0.5758   0.130956
 C 0.6817 0.7766 0.7032   0.021827
 C 0.6648 0.806 0.764   -0.093406
 C 0.5968 0.7765 0.7964   -0.086239
 C 0.542 0.7182 0.7705   -0.122753
 C 0.5588 0.6884 0.7109   -0.047287
 C 0.6275 0.7178 0.6782   -0.130357
 C 0.5025 0.6252 0.6802   0.230047
 C 0.4074 0.5746 0.6181   0.235573
 C 0.3367 0.5654 0.574   0.001764
 C 0.3337 0.4939 0.5374   -0.099129
 C 0.2689 0.4825 0.4959   -0.089399
 C 0.2055 0.5423 0.4906   -0.125535
 C 0.2067 0.6136 0.5287   0.020058
 C 0.2737 0.6247 0.5692   -0.129722
 C 0.1408 0.6802 0.5221   0.097404
 C 0.0977 0.6919 0.4668   -0.208089
 C 0.0414 0.7585 0.4611   0.161278
 C 0.065 0.8 0.5616   0.170739
 C 0.1228 0.7349 0.5703   -0.227911
 C 0.589 0.3594 0.8907   0.158558
 C 0.6191 0.298 0.9314   -0.20826
 C 0.6922 0.2542 0.9162   0.084129
 C 0.7352 0.2813 0.8626   -0.195691
 C 0.7007 0.342 0.8258   0.130956
 C 0.7234 0.1817 0.9532   0.021827
 C 0.694 0.1648 0.014   -0.093406
 C 0.7235 0.0968 0.0464   -0.086239
 C 0.7818 0.042 0.0205   -0.122753
 C 0.8116 0.0588 0.9609   -0.047287
 C 0.7822 0.1275 0.9282   -0.130357
 C 0.8748 0.0025 0.9302   0.230047
 C 0.9254 0.9074 0.8681   0.235573
 C 0.9346 0.8367 0.824   0.001764
 C 0.0061 0.8337 0.7874   -0.099129
 C 0.0175 0.7689 0.7459   -0.0894
 C 0.9577 0.7055 0.7406   -0.125535
 C 0.8864 0.7067 0.7787   0.020059
 C 0.8753 0.7737 0.8192   -0.129722
 C 0.8198 0.6408 0.7721   0.097405
 C 0.8081 0.5977 0.7168   -0.208089
 C 0.7415 0.5414 0.7111   0.161279
 C 0.7 0.565 0.8116   0.170739
 C 0.7651 0.6228 0.8203   -0.227912
 C 0.411 0.6406 0.3907   0.158558
 C 0.3809 0.702 0.4314   -0.20826
 C 0.3078 0.7458 0.4162   0.084129
 C 0.2648 0.7187 0.3626   -0.195691
 C 0.2993 0.658 0.3258   0.130956
 C 0.2766 0.8183 0.4532   0.021827
 C 0.306 0.8352 0.514   -0.093406
 C 0.2765 0.9032 0.5464   -0.086239
 C 0.2182 0.958 0.5205   -0.122753
 C 0.1884 0.9412 0.4609   -0.047287
 C 0.2178 0.8725 0.4282   -0.130357
 C 0.1252 0.9975 0.4302   0.230047
 C 0.0746 0.0926 0.3681   0.235573
 C 0.0654 0.1633 0.324   0.001764
 C 0.9939 0.1663 0.2874   -0.099129
 C 0.9825 0.2311 0.2459   -0.0894
 C 0.0423 0.2945 0.2406   -0.125535
 C 0.1136 0.2933 0.2787   0.020059
 C 0.1247 0.2263 0.3192   -0.129722
 C 0.1802 0.3592 0.2721   0.097405
 C 0.1919 0.4023 0.2168   -0.208089
 C 0.2585 0.4586 0.2111   0.161279
 C 0.3 0.435 0.3116   0.170739
 C 0.2349 0.3772 0.3203   -0.227912
 N 0.0069 0.9568 0.0672   -0.218151
 N 0.9462 0.9893 0.106   -0.294593
 N 0.9413 0.8532 0.10976   0.100209
 N 0.9217 0.7711 0.1301   -0.559484
 N 0.3805 0.6263 0.1621   -0.359307
 N 0.5253 0.6873 0.2424   -0.365921
 N 0.9931 0.0432 0.5672   -0.218151
 N 0.0538 0.0107 0.606   -0.294593
 N 0.0587 0.1468 0.60976   0.100209
 N 0.0783 0.2289 0.6301   -0.559484
 N 0.6195 0.3737 0.6621   -0.359307
 N 0.4747 0.3127 0.7424   -0.365921
 N 0.5432 0.5069 0.3172   -0.218151
 N 0.5107 0.4462 0.356   -0.294593
 N 0.6468 0.4413 0.35976   0.100209
 N 0.7289 0.4217 0.3801   -0.559484
 N 0.8737 0.8805 0.4121   -0.359307
 N 0.8127 0.0253 0.4924   -0.365921
 N 0.4568 0.4931 0.8172   -0.218151
 N 0.4893 0.5538 0.856   -0.294593
 N 0.3532 0.5587 0.85976   0.100209
 N 0.2711 0.5783 0.8801   -0.559484
 N 0.1263 0.1195 0.9121   -0.359307
 N 0.1873 0.9747 0.9924   -0.365921
 N 0.4931 0.4568 0.1828   -0.218151
 N 0.5538 0.4893 0.144   -0.294593
 N 0.5587 0.3532 0.14024   0.100209
 N 0.5783 0.2711 0.1199   -0.559485
 N 0.1195 0.1263 0.0879   -0.359307
 N 0.9747 0.1873 0.0076   -0.365921
 N 0.5069 0.5432 0.6828   -0.218151
 N 0.4462 0.5107 0.644   -0.294593
 N 0.4413 0.6468 0.64024   0.100209
 N 0.4217 0.7289 0.6199   -0.559485
 N 0.8805 0.8737 0.5879   -0.359307
 N 0.0253 0.8127 0.5076   -0.365921
 N 0.9568 0.0069 0.9328   -0.218151
 N 0.9893 0.9462 0.894   -0.294593
 N 0.8532 0.9413 0.89024   0.100209
 N 0.7711 0.9217 0.8699   -0.559485
 N 0.6263 0.3805 0.8379   -0.359307
 N 0.6873 0.5253 0.7576   -0.365921
 N 0.0432 0.9931 0.4328   -0.218151
 N 0.0107 0.0538 0.394   -0.294593
 N 0.1468 0.0587 0.39024   0.100209
 N 0.2289 0.0783 0.3699   -0.559485
 N 0.3737 0.6195 0.3379   -0.359307
 N 0.3127 0.4747 0.2576   -0.365921
 Cl 0.88155 0.11845 0.75   1.846067
 Cl 0.11845 0.88155 0.25   1.846067
 Cl 0.38155 0.38155 0.0   1.846067
 Cl 0.61845 0.61845 0.5   1.846067
 O 0.8872 0.1857 0.7868   -0.701357
 O 0.871 0.0556 0.7848   -0.637299
 O 0.8143 0.1128 0.7132   -0.701357
 O 0.9444 0.129 0.7152   -0.637299
 O 0.1128 0.8143 0.2868   -0.701357
 O 0.129 0.9444 0.2848   -0.637299
 O 0.1857 0.8872 0.2132   -0.701357
 O 0.0556 0.871 0.2152   -0.637299
 O 0.3143 0.3872 0.0368   -0.701357
 O 0.4444 0.371 0.0348   -0.637299
 O 0.3872 0.3143 0.9632   -0.701357
 O 0.371 0.4444 0.9652   -0.637299
 O 0.6857 0.6128 0.5368   -0.701357
 O 0.5556 0.629 0.5348   -0.637299
 O 0.6128 0.6857 0.4632   -0.701357
 O 0.629 0.5556 0.4652   -0.637299
