{'_ref': 'TBD', '_srcid': 'CAKYAQ_clean', 'submitters': [{'name': 'Dalar Nazarian Jeff Camp and David Sholl', 'email': 'dalar@gatech.edu jcamp6@gatech.edu'}], '_method': 'VASP DFT with PBE;DDEC'}
data_CuH16C20S2(N2O3)2
_symmetry_space_group_name_H-M   'P 1'
_cell_length_a   11.08370004
_cell_length_b   11.14960000
_cell_length_c   16.93700000
_cell_angle_alpha   90.00000000
_cell_angle_beta   97.53400084
_cell_angle_gamma   90.00000000
_symmetry_Int_Tables_number   1
_chemical_formula_structural   CuH16C20S2(N2O3)2
_chemical_formula_sum   'Cu2 H32 C40 S4 N8 O12'
_cell_volume   2074.98564819
_cell_formula_units_Z   2
loop_
 _symmetry_equiv_pos_site_id
 _symmetry_equiv_pos_as_xyz
  1  'x, y, z'
loop_
 _atom_site_label
 _atom_site_fract_x
 _atom_site_fract_y
 _atom_site_fract_z
 _atom_site_charge
 Cu 0.5 0.54209 0.25   0.624848
 Cu 0.5 0.45791 0.75   0.62879
 H 0.2771 0.451 0.1551   0.078476
 H 0.0666 0.4342 0.1551   0.159456
 H 0.1149 0.6223 0.3615   0.145069
 H 0.3269 0.6384 0.354   0.101005
 H 0.3608 0.7415 0.1682   0.088874
 H 0.355 0.9493 0.164   0.139242
 H 0.5764 0.137 0.1493   0.128136
 H 0.5812 0.3397 0.153   0.103352
 H 0.7229 0.451 0.3449   0.078476
 H 0.9334 0.4342 0.3449   0.159456
 H 0.8851 0.6223 0.1385   0.14507
 H 0.6731 0.6384 0.146   0.101006
 H 0.6392 0.7415 0.3318   0.088874
 H 0.645 0.9493 0.336   0.139242
 H 0.4236 0.137 0.3507   0.128136
 H 0.4188 0.3397 0.347   0.103352
 H 0.7229 0.549 0.8449   0.079896
 H 0.9334 0.5658 0.8449   0.159955
 H 0.8851 0.3777 0.6385   0.145438
 H 0.6731 0.3616 0.646   0.091259
 H 0.3965 0.2563 0.8368   0.070459
 H 0.3913 0.0442 0.8384   0.145653
 H 0.4236 0.863 0.8507   0.117538
 H 0.4188 0.6603 0.847   0.103015
 H 0.2771 0.549 0.6551   0.079896
 H 0.0666 0.5658 0.6551   0.159955
 H 0.1149 0.3777 0.8615   0.145437
 H 0.3269 0.3616 0.854   0.091259
 H 0.6035 0.2563 0.6632   0.07046
 H 0.6087 0.0442 0.6616   0.145652
 H 0.5764 0.863 0.6493   0.117538
 H 0.5812 0.6603 0.653   0.103015
 C 0.2405 0.4892 0.1962   0.183477
 C 0.1175 0.4789 0.1939   -0.201054
 C 0.078 0.5395 0.253   0.081818
 C 0.1496 0.5922 0.3171   -0.188479
 C 0.2731 0.5993 0.3138   0.174964
 C 0.4184 0.7877 0.2019   0.181704
 C 0.4145 0.9081 0.1994   -0.191222
 C 0.5451 0.1763 0.192   -0.181867
 C 0.547 0.2956 0.1926   0.167872
 C 0.7595 0.4892 0.3038   0.183477
 C 0.8825 0.4789 0.3061   -0.201052
 C 0.922 0.5395 0.247   0.08182
 C 0.8504 0.5922 0.1829   -0.188478
 C 0.7269 0.5993 0.1862   0.174964
 C 0.5816 0.7877 0.2981   0.181704
 C 0.5855 0.9081 0.3006   -0.191221
 C 0.4549 0.1763 0.308   -0.181865
 C 0.453 0.2956 0.3074   0.167872
 C 0.7595 0.5108 0.8038   0.190399
 C 0.8825 0.5211 0.8061   -0.200079
 C 0.922 0.4605 0.747   0.083205
 C 0.8504 0.4078 0.6829   -0.190758
 C 0.7269 0.4007 0.6862   0.174105
 C 0.4381 0.2105 0.8016   0.183891
 C 0.4351 0.0874 0.8031   -0.180844
 C 0.4549 0.8237 0.808   -0.159481
 C 0.453 0.7044 0.8074   0.160032
 C 0.2405 0.5108 0.6962   0.190399
 C 0.1175 0.5211 0.6939   -0.20008
 C 0.078 0.4605 0.753   0.083205
 C 0.1496 0.4078 0.8171   -0.190759
 C 0.2731 0.4007 0.8138   0.174105
 C 0.5619 0.2105 0.6984   0.18389
 C 0.5649 0.0874 0.6969   -0.180844
 C 0.5451 0.8237 0.692   -0.159482
 C 0.547 0.7044 0.6926   0.160032
 C 0.5 0.9691 0.25   0.115077
 C 0.5 0.1033 0.25   0.07592
 C 0.5 0.0309 0.75   0.100256
 C 0.5 0.8967 0.75   0.054481
 S 0.4551 0.5523 0.0302   1.067785
 S 0.5449 0.5523 0.4698   1.067785
 S 0.5449 0.4477 0.9698   1.072754
 S 0.4551 0.4477 0.5302   1.072754
 N 0.3125 0.548 0.2509   -0.326013
 N 0.6875 0.548 0.2491   -0.326013
 N 0.6875 0.452 0.7491   -0.313243
 N 0.3125 0.452 0.7509   -0.313243
 N 0.5 0.7363 0.25   -0.299019
 N 0.5 0.35 0.25   -0.321768
 N 0.5 0.2637 0.75   -0.299462
 N 0.5 0.65 0.75   -0.319093
 O 0.4679 0.5466 0.1084   -0.516035
 O 0.335 0.5822 0.9847   -0.609832
 O 0.5101 0.6699 0.0103   -0.688397
 O 0.5321 0.5466 0.3916   -0.516034
 O 0.665 0.5822 0.5153   -0.609832
 O 0.4899 0.6699 0.4897   -0.688397
 O 0.5321 0.4534 0.8916   -0.514533
 O 0.665 0.4178 0.0153   -0.603438
 O 0.4899 0.3301 0.9897   -0.693573
 O 0.4679 0.4534 0.6084   -0.514533
 O 0.335 0.4178 0.4847   -0.603438
 O 0.5101 0.3301 0.5103   -0.693573
