{'_ref': 'TBD', '_srcid': 'CAKYAQ_clean', 'submitters': [{'name': 'Dalar Nazarian Jeff Camp and David Sholl', 'email': 'dalar@gatech.edu jcamp6@gatech.edu'}], '_method': 'VASP DFT with PBE;DDEC'}
data_CuH32C45N4
_symmetry_space_group_name_H-M   'P 1'
_cell_length_a   14.68900000
_cell_length_b   14.99500000
_cell_length_c   30.62500000
_cell_angle_alpha   90.00000000
_cell_angle_beta   90.00000000
_cell_angle_gamma   90.00000000
_symmetry_Int_Tables_number   1
_chemical_formula_structural   CuH32C45N4
_chemical_formula_sum   'Cu4 H128 C180 N16'
_cell_volume   6745.51012187
_cell_formula_units_Z   4
loop_
 _symmetry_equiv_pos_site_id
 _symmetry_equiv_pos_as_xyz
  1  'x, y, z'
loop_
 _atom_site_label
 _atom_site_fract_x
 _atom_site_fract_y
 _atom_site_fract_z
 _atom_site_charge
 Cu 0.5 0.25 0.25   0.38161
 Cu 0.0 0.75 0.75   0.381274
 Cu 0.5 0.75 0.75   0.38161
 Cu 0.0 0.25 0.25   0.381274
 H 0.6013 0.0878 0.2265   0.067342
 H 0.6073 0.9785 0.172   0.125107
 H 0.3862 0.096 0.1179   0.098335
 H 0.3925 0.2 0.1713   0.053001
 H 0.629 0.9197 0.1102   0.09266
 H 0.6326 0.8128 0.0548   0.106719
 H 0.3711 0.8716 0.026   0.099923
 H 0.3699 0.9766 0.0808   0.091286
 H 0.8552 0.6263 0.788   0.069554
 H 0.7579 0.623 0.8468   0.112836
 H 0.8409 0.8713 0.8803   0.130666
 H 0.9358 0.8653 0.8188   0.053146
 H 0.6679 0.6177 0.896   0.083808
 H 0.554 0.6248 0.948   0.095148
 H 0.637 0.8692 0.9841   0.091472
 H 0.752 0.8652 0.9316   0.099869
 H 0.6013 0.4122 0.2735   0.067342
 H 0.6073 0.5215 0.328   0.125108
 H 0.3862 0.404 0.3821   0.098335
 H 0.3925 0.3 0.3287   0.053001
 H 0.629 0.5803 0.3898   0.09266
 H 0.6326 0.6872 0.4452   0.106719
 H 0.3711 0.6284 0.474   0.099923
 H 0.3699 0.5234 0.4192   0.091286
 H 0.8552 0.8737 0.712   0.069554
 H 0.7579 0.877 0.6532   0.112836
 H 0.8409 0.6287 0.6197   0.130666
 H 0.9358 0.6347 0.6812   0.053145
 H 0.6679 0.8823 0.604   0.083808
 H 0.554 0.8752 0.552   0.095148
 H 0.637 0.6308 0.5159   0.091472
 H 0.752 0.6348 0.5684   0.099869
 H 0.3987 0.4122 0.2265   0.067342
 H 0.3927 0.5215 0.172   0.125107
 H 0.6138 0.404 0.1179   0.098335
 H 0.6075 0.3 0.1713   0.053001
 H 0.371 0.5803 0.1102   0.09266
 H 0.3674 0.6872 0.0548   0.106718
 H 0.6289 0.6284 0.026   0.099923
 H 0.6301 0.5234 0.0808   0.091286
 H 0.1448 0.8737 0.788   0.069553
 H 0.2421 0.877 0.8468   0.112836
 H 0.1591 0.6287 0.8803   0.130666
 H 0.0642 0.6347 0.8188   0.053145
 H 0.3321 0.8823 0.896   0.083808
 H 0.446 0.8752 0.948   0.095148
 H 0.363 0.6308 0.9841   0.091472
 H 0.248 0.6348 0.9316   0.099869
 H 0.3987 0.0878 0.2735   0.067342
 H 0.3927 0.9785 0.328   0.125108
 H 0.6138 0.096 0.3821   0.098335
 H 0.6075 0.2 0.3287   0.053001
 H 0.371 0.9197 0.3898   0.09266
 H 0.3674 0.8128 0.4452   0.106718
 H 0.6289 0.8716 0.474   0.099923
 H 0.6301 0.9766 0.4192   0.091286
 H 0.1448 0.6263 0.712   0.069552
 H 0.2421 0.623 0.6532   0.112836
 H 0.1591 0.8713 0.6197   0.130666
 H 0.0642 0.8653 0.6812   0.053144
 H 0.3321 0.6177 0.604   0.083808
 H 0.446 0.6248 0.552   0.095148
 H 0.363 0.8692 0.5159   0.091472
 H 0.248 0.8652 0.5684   0.099869
 H 0.3987 0.9122 0.7735   0.067342
 H 0.3927 0.0215 0.828   0.125107
 H 0.6138 0.904 0.8821   0.098335
 H 0.6075 0.8 0.8287   0.053001
 H 0.371 0.0803 0.8898   0.09266
 H 0.3674 0.1872 0.9452   0.106718
 H 0.6289 0.1284 0.974   0.099924
 H 0.6301 0.0234 0.9192   0.091286
 H 0.1448 0.3737 0.212   0.069554
 H 0.2421 0.377 0.1532   0.112837
 H 0.1591 0.1287 0.1197   0.130665
 H 0.0642 0.1347 0.1812   0.053146
 H 0.3321 0.3823 0.104   0.083808
 H 0.446 0.3752 0.052   0.095148
 H 0.363 0.1308 0.0159   0.091472
 H 0.248 0.1348 0.0684   0.09987
 H 0.3987 0.5878 0.7265   0.067342
 H 0.3927 0.4785 0.672   0.125107
 H 0.6138 0.596 0.6179   0.098335
 H 0.6075 0.7 0.6713   0.053001
 H 0.371 0.4197 0.6102   0.09266
 H 0.3674 0.3128 0.5548   0.106718
 H 0.6289 0.3716 0.526   0.099924
 H 0.6301 0.4766 0.5808   0.091286
 H 0.1448 0.1263 0.288   0.069553
 H 0.2421 0.123 0.3468   0.112837
 H 0.1591 0.3713 0.3803   0.130665
 H 0.0642 0.3653 0.3188   0.053145
 H 0.3321 0.1177 0.396   0.083808
 H 0.446 0.1248 0.448   0.095148
 H 0.363 0.3692 0.4841   0.091472
 H 0.248 0.3652 0.4316   0.09987
 H 0.6013 0.5878 0.7735   0.067342
 H 0.6073 0.4785 0.828   0.125107
 H 0.3862 0.596 0.8821   0.098335
 H 0.3925 0.7 0.8287   0.053001
 H 0.629 0.4197 0.8898   0.09266
 H 0.6326 0.3128 0.9452   0.106718
 H 0.3711 0.3716 0.974   0.099923
 H 0.3699 0.4766 0.9192   0.091286
 H 0.8552 0.1263 0.212   0.069552
 H 0.7579 0.123 0.1532   0.112837
 H 0.8409 0.3713 0.1197   0.130665
 H 0.9358 0.3653 0.1812   0.053144
 H 0.6679 0.1177 0.104   0.083808
 H 0.554 0.1248 0.052   0.095148
 H 0.637 0.3692 0.0159   0.091472
 H 0.752 0.3652 0.0684   0.09987
 H 0.6013 0.9122 0.7265   0.067342
 H 0.6073 0.0215 0.672   0.125107
 H 0.3862 0.904 0.6179   0.098335
 H 0.3925 0.8 0.6713   0.053001
 H 0.629 0.0803 0.6102   0.09266
 H 0.6326 0.1872 0.5548   0.106718
 H 0.3711 0.1284 0.526   0.099923
 H 0.3699 0.0234 0.5808   0.091286
 H 0.8552 0.3737 0.288   0.069552
 H 0.7579 0.377 0.3468   0.112837
 H 0.8409 0.1287 0.3803   0.130665
 H 0.9358 0.1347 0.3188   0.053144
 H 0.6679 0.3823 0.396   0.083808
 H 0.554 0.3752 0.448   0.095148
 H 0.637 0.1308 0.4841   0.091472
 H 0.752 0.1348 0.4316   0.09987
 C 0.5582 0.0895 0.20343   0.124086
 C 0.5622 0.0238 0.17115   -0.23298
 C 0.4967 0.0269 0.13714   0.09871
 C 0.4331 0.0929 0.13923   -0.194941
 C 0.4367 0.1538 0.17151   0.142822
 C 0.4961 0.9593 0.10182   -0.000606
 C 0.576 0.9095 0.09308   -0.115897
 C 0.5785 0.8459 0.05994   -0.132134
 C 0.5014 0.8307 0.03414   0.038525
 C 0.4245 0.8805 0.04297   -0.135193
 C 0.424 0.9432 0.07607   -0.093625
 C 0.8523 0.6764 0.807   0.09925
 C 0.7942 0.6744 0.8418   -0.202168
 C 0.7877 0.7457 0.86968   0.090091
 C 0.8421 0.8203 0.8619   -0.241724
 C 0.8988 0.8149 0.825   0.14506
 C 0.7194 0.7402 0.90719   -0.013871
 C 0.6616 0.6698 0.91343   -0.0975
 C 0.5945 0.6738 0.94473   -0.115885
 C 0.5846 0.7474 0.97161   0.029065
 C 0.6433 0.818 0.96602   -0.120187
 C 0.7113 0.8163 0.93469   -0.122118
 C 0.5582 0.4105 0.29657   0.124086
 C 0.5622 0.4762 0.32885   -0.23298
 C 0.4967 0.4731 0.36286   0.09871
 C 0.4331 0.4071 0.36077   -0.194941
 C 0.4367 0.3462 0.32849   0.142822
 C 0.4961 0.5407 0.39818   -0.000606
 C 0.576 0.5905 0.40692   -0.115897
 C 0.5785 0.6541 0.44006   -0.132134
 C 0.5014 0.6693 0.46586   0.038525
 C 0.4245 0.6195 0.45703   -0.135193
 C 0.424 0.5568 0.42393   -0.093625
 C 0.8523 0.8236 0.693   0.09925
 C 0.7942 0.8256 0.6582   -0.202168
 C 0.7877 0.7543 0.63032   0.090091
 C 0.8421 0.6797 0.6381   -0.241724
 C 0.8988 0.6851 0.675   0.14506
 C 0.7194 0.7598 0.59281   -0.013871
 C 0.6616 0.8302 0.58657   -0.0975
 C 0.5945 0.8262 0.55527   -0.115885
 C 0.5846 0.7526 0.52839   0.029065
 C 0.6433 0.682 0.53398   -0.120187
 C 0.7113 0.6837 0.56531   -0.122118
 C 0.4418 0.4105 0.20343   0.124085
 C 0.4378 0.4762 0.17115   -0.232979
 C 0.5033 0.4731 0.13714   0.09871
 C 0.5669 0.4071 0.13923   -0.194941
 C 0.5633 0.3462 0.17151   0.142822
 C 0.5039 0.5407 0.10182   -0.000605
 C 0.424 0.5905 0.09308   -0.115897
 C 0.4215 0.6541 0.05994   -0.132134
 C 0.4986 0.6693 0.03414   0.038525
 C 0.5755 0.6195 0.04297   -0.135193
 C 0.576 0.5568 0.07607   -0.093625
 C 0.1477 0.8236 0.807   0.099251
 C 0.2058 0.8256 0.8418   -0.202169
 C 0.2123 0.7543 0.86968   0.090092
 C 0.1579 0.6797 0.8619   -0.241724
 C 0.1012 0.6851 0.825   0.145061
 C 0.2806 0.7598 0.90719   -0.013871
 C 0.3384 0.8302 0.91343   -0.0975
 C 0.4055 0.8262 0.94473   -0.115885
 C 0.4154 0.7526 0.97161   0.029065
 C 0.3567 0.682 0.96602   -0.120187
 C 0.2887 0.6837 0.93469   -0.122118
 C 0.4418 0.0895 0.29657   0.124086
 C 0.4378 0.0238 0.32885   -0.232979
 C 0.5033 0.0269 0.36286   0.09871
 C 0.5669 0.0929 0.36077   -0.194941
 C 0.5633 0.1538 0.32849   0.142822
 C 0.5039 0.9593 0.39818   -0.000605
 C 0.424 0.9095 0.40692   -0.115897
 C 0.4215 0.8459 0.44006   -0.132134
 C 0.4986 0.8307 0.46586   0.038525
 C 0.5755 0.8805 0.45703   -0.135193
 C 0.576 0.9432 0.42393   -0.093625
 C 0.1477 0.6764 0.693   0.099251
 C 0.2058 0.6744 0.6582   -0.202169
 C 0.2123 0.7457 0.63032   0.090092
 C 0.1579 0.8203 0.6381   -0.241724
 C 0.1012 0.8149 0.675   0.145061
 C 0.2806 0.7402 0.59281   -0.013871
 C 0.3384 0.6698 0.58657   -0.0975
 C 0.4055 0.6738 0.55527   -0.115885
 C 0.4154 0.7474 0.52839   0.029065
 C 0.3567 0.818 0.53398   -0.120187
 C 0.2887 0.8163 0.56531   -0.122118
 C 0.5 0.75 0.00303   0.025437
 C 0.5 0.75 0.49697   0.025437
 C 0.4418 0.9105 0.79657   0.124085
 C 0.4378 0.9762 0.82885   -0.232979
 C 0.5033 0.9731 0.86286   0.09871
 C 0.5669 0.9071 0.86077   -0.194941
 C 0.5633 0.8462 0.82849   0.142822
 C 0.5039 0.0407 0.89818   -0.000606
 C 0.424 0.0905 0.90692   -0.115897
 C 0.4215 0.1541 0.94006   -0.132134
 C 0.4986 0.1693 0.96586   0.038525
 C 0.5755 0.1195 0.95703   -0.135194
 C 0.576 0.0568 0.92393   -0.093625
 C 0.1477 0.3236 0.193   0.099251
 C 0.2058 0.3256 0.1582   -0.202169
 C 0.2123 0.2543 0.13032   0.090091
 C 0.1579 0.1797 0.1381   -0.241723
 C 0.1012 0.1851 0.175   0.14506
 C 0.2806 0.2598 0.09281   -0.01387
 C 0.3384 0.3302 0.08657   -0.0975
 C 0.4055 0.3262 0.05527   -0.115885
 C 0.4154 0.2526 0.02839   0.029065
 C 0.3567 0.182 0.03398   -0.120187
 C 0.2887 0.1837 0.06531   -0.122118
 C 0.4418 0.5895 0.70343   0.124085
 C 0.4378 0.5238 0.67115   -0.23298
 C 0.5033 0.5269 0.63714   0.09871
 C 0.5669 0.5929 0.63923   -0.194941
 C 0.5633 0.6538 0.67151   0.142822
 C 0.5039 0.4593 0.60182   -0.000606
 C 0.424 0.4095 0.59308   -0.115897
 C 0.4215 0.3459 0.55994   -0.132134
 C 0.4986 0.3307 0.53414   0.038525
 C 0.5755 0.3805 0.54297   -0.135194
 C 0.576 0.4432 0.57607   -0.093625
 C 0.1477 0.1764 0.307   0.099251
 C 0.2058 0.1744 0.3418   -0.202169
 C 0.2123 0.2457 0.36968   0.090091
 C 0.1579 0.3203 0.3619   -0.241723
 C 0.1012 0.3149 0.325   0.14506
 C 0.2806 0.2402 0.40719   -0.01387
 C 0.3384 0.1698 0.41343   -0.0975
 C 0.4055 0.1738 0.44473   -0.115885
 C 0.4154 0.2474 0.47161   0.029065
 C 0.3567 0.318 0.46602   -0.120187
 C 0.2887 0.3163 0.43469   -0.122118
 C 0.5582 0.5895 0.79657   0.124085
 C 0.5622 0.5238 0.82885   -0.232979
 C 0.4967 0.5269 0.86286   0.09871
 C 0.4331 0.5929 0.86077   -0.194941
 C 0.4367 0.6538 0.82849   0.142822
 C 0.4961 0.4593 0.89818   -0.000605
 C 0.576 0.4095 0.90692   -0.115897
 C 0.5785 0.3459 0.94006   -0.132134
 C 0.5014 0.3307 0.96586   0.038525
 C 0.4245 0.3805 0.95703   -0.135193
 C 0.424 0.4432 0.92393   -0.093625
 C 0.8523 0.1764 0.193   0.099251
 C 0.7942 0.1744 0.1582   -0.202169
 C 0.7877 0.2457 0.13032   0.090092
 C 0.8421 0.3203 0.1381   -0.241723
 C 0.8988 0.3149 0.175   0.145061
 C 0.7194 0.2402 0.09281   -0.01387
 C 0.6616 0.1698 0.08657   -0.0975
 C 0.5945 0.1738 0.05527   -0.115885
 C 0.5846 0.2474 0.02839   0.029065
 C 0.6433 0.318 0.03398   -0.120187
 C 0.7113 0.3163 0.06531   -0.122118
 C 0.5582 0.9105 0.70343   0.124085
 C 0.5622 0.9762 0.67115   -0.232979
 C 0.4967 0.9731 0.63714   0.09871
 C 0.4331 0.9071 0.63923   -0.194941
 C 0.4367 0.8462 0.67151   0.142822
 C 0.4961 0.0407 0.60182   -0.000606
 C 0.576 0.0905 0.59308   -0.115897
 C 0.5785 0.1541 0.55994   -0.132134
 C 0.5014 0.1693 0.53414   0.038525
 C 0.4245 0.1195 0.54297   -0.135193
 C 0.424 0.0568 0.57607   -0.093625
 C 0.8523 0.3236 0.307   0.099251
 C 0.7942 0.3256 0.3418   -0.202169
 C 0.7877 0.2543 0.36968   0.090092
 C 0.8421 0.1797 0.3619   -0.241723
 C 0.8988 0.1851 0.325   0.145061
 C 0.7194 0.2598 0.40719   -0.01387
 C 0.6616 0.3302 0.41343   -0.0975
 C 0.5945 0.3262 0.44473   -0.115885
 C 0.5846 0.2526 0.47161   0.029065
 C 0.6433 0.182 0.46602   -0.120187
 C 0.7113 0.1837 0.43469   -0.122118
 C 0.5 0.25 0.99697   0.025437
 C 0.5 0.25 0.50303   0.025437
 N 0.4966 0.154 0.20315   -0.311713
 N 0.9054 0.7477 0.79881   -0.311378
 N 0.4966 0.346 0.29685   -0.311713
 N 0.9054 0.7523 0.70119   -0.311378
 N 0.5034 0.346 0.20315   -0.311713
 N 0.0946 0.7523 0.79881   -0.311378
 N 0.5034 0.154 0.29685   -0.311713
 N 0.0946 0.7477 0.70119   -0.311379
 N 0.5034 0.846 0.79685   -0.311713
 N 0.0946 0.2523 0.20119   -0.311378
 N 0.5034 0.654 0.70315   -0.311713
 N 0.0946 0.2477 0.29881   -0.311379
 N 0.4966 0.654 0.79685   -0.311713
 N 0.9054 0.2477 0.20119   -0.311378
 N 0.4966 0.846 0.70315   -0.311713
 N 0.9054 0.2523 0.29881   -0.311379
