{'_ref': 'TBD', '_srcid': 'CAKYAQ_clean', 'submitters': [{'name': 'Dalar Nazarian Jeff Camp and David Sholl', 'email': 'dalar@gatech.edu jcamp6@gatech.edu'}], '_method': 'VASP DFT with PBE;DDEC'}
data_Co3H6C10(N4O3)2
_symmetry_space_group_name_H-M   'P 1'
_cell_length_a   8.45019967
_cell_length_b   15.27180000
_cell_length_c   15.27179973
_cell_angle_alpha   85.61030117
_cell_angle_beta   73.93920112
_cell_angle_gamma   73.93900265
_symmetry_Int_Tables_number   1
_chemical_formula_structural   Co3H6C10(N4O3)2
_chemical_formula_sum   'Co12 H24 C40 N32 O24'
_cell_volume   1819.97507086
_cell_formula_units_Z   4
loop_
 _symmetry_equiv_pos_site_id
 _symmetry_equiv_pos_as_xyz
  1  'x, y, z'
loop_
 _atom_site_label
 _atom_site_fract_x
 _atom_site_fract_y
 _atom_site_fract_z
 _atom_site_charge
 Co 0.40458 0.96143 0.94969   0.985348
 Co 0.8157 0.53857 0.55031   0.986416
 Co 0.36601 0.44969 0.03857   0.982349
 Co 0.35427 0.05031 0.46143   0.985368
 Co 0.59542 0.03857 0.05031   0.985348
 Co 0.1843 0.46143 0.44969   0.986416
 Co 0.63399 0.55031 0.96143   0.982349
 Co 0.64573 0.94969 0.53857   0.985368
 Co 0.0 0.0 0.0   0.902821
 Co 0.5 0.5 0.5   0.905194
 Co 0.0 0.5 0.0   0.9062
 Co 0.0 0.0 0.5   0.90925
 H 0.9282 0.981 0.1928   0.323384
 H 0.8542 0.9866 0.342   0.084135
 H 0.5433 0.0752 0.2544   0.072731
 H 0.602 0.519 0.3072   0.321086
 H 0.6828 0.5134 0.158   0.085516
 H 0.3729 0.4248 0.2456   0.073368
 H 0.9092 0.6928 0.019   0.322433
 H 0.8408 0.842 0.0134   0.083846
 H 0.6185 0.7544 0.9248   0.072697
 H 0.121 0.8072 0.481   0.318504
 H 0.1962 0.658 0.4866   0.085049
 H 0.7977 0.7456 0.5752   0.074046
 H 0.0718 0.019 0.8072   0.323384
 H 0.1458 0.0134 0.658   0.084135
 H 0.4567 0.9248 0.7456   0.072731
 H 0.398 0.481 0.6928   0.321086
 H 0.3172 0.4866 0.842   0.085516
 H 0.6271 0.5752 0.7544   0.073368
 H 0.0908 0.3072 0.981   0.322433
 H 0.1592 0.158 0.9866   0.083846
 H 0.3815 0.2456 0.0752   0.072697
 H 0.879 0.1928 0.519   0.318504
 H 0.8038 0.342 0.5134   0.085049
 H 0.2023 0.2544 0.4248   0.074045
 C 0.9587 0.9961 0.3095   0.352651
 C 0.2058 0.0292 0.301   0.387333
 C 0.2582 0.0243 0.2055   -0.095976
 C 0.155 0.000700000000002 0.1581   0.515524
 C 0.4451 0.0594 0.2536   0.32034
 C 0.7643 0.5039 0.1905   0.351136
 C 0.036 0.4708 0.199   0.387235
 C 0.988 0.4757 0.2945   -0.095577
 C 0.8138 0.4993 0.3419   0.515498
 C 0.2581 0.4406 0.2464   0.318138
 C 0.9548 0.8095 0.0039   0.354344
 C 0.235 0.801 0.9708   0.386555
 C 0.2825 0.7055 0.9757   -0.095508
 C 0.1557 0.6581 0.9993   0.517174
 C 0.5045 0.7536 0.9406   0.319786
 C 0.2682 0.6905 0.4961   0.352335
 C 0.5068 0.699 0.5292   0.389181
 C 0.4637 0.7945 0.5243   -0.094511
 C 0.3131 0.8419 0.5007   0.51582
 C 0.6987 0.7464 0.5594   0.318377
 C 0.0413 0.0039 0.6905   0.352651
 C 0.7942 0.9708 0.699   0.387333
 C 0.7418 0.9757 0.7945   -0.095976
 C 0.845 0.9993 0.8419   0.515524
 C 0.5549 0.9406 0.7464   0.320341
 C 0.2357 0.4961 0.8095   0.351135
 C 0.964 0.5292 0.801   0.387235
 C 0.012 0.5243 0.7055   -0.095577
 C 0.1862 0.5007 0.6581   0.515498
 C 0.7419 0.5594 0.7536   0.318139
 C 0.0452 0.1905 0.9961   0.354343
 C 0.765 0.199 0.0292   0.386555
 C 0.7175 0.2945 0.0243   -0.095508
 C 0.8443 0.3419 0.000700000000002   0.517174
 C 0.4955 0.2464 0.0594   0.319787
 C 0.7318 0.3095 0.5039   0.352335
 C 0.4932 0.301 0.4708   0.389181
 C 0.5363 0.2055 0.4757   -0.094511
 C 0.6869 0.1581 0.4993   0.51582
 C 0.3013 0.2536 0.4406   0.318378
 N 0.0019 0.9911 0.2171   -0.360228
 N 0.0569 0.0137 0.3551   -0.426684
 N 0.4152 0.044 0.176   -0.361099
 N 0.3254 0.0509 0.3313   -0.458195
 N 0.7101 0.5089 0.2829   -0.35799
 N 0.9257 0.4863 0.1449   -0.424997
 N 0.1352 0.456 0.324   -0.361904
 N 0.2076 0.4491 0.1687   -0.457259
 N 0.993 0.7171 0.0089   -0.360066
 N 0.0706 0.8551 0.9863   -0.426507
 N 0.4592 0.676 0.956   -0.360841
 N 0.3763 0.8313 0.9491   -0.458866
 N 0.219 0.7829 0.4911   -0.355646
 N 0.412 0.6449 0.5137   -0.427515
 N 0.5912 0.824 0.544   -0.363057
 N 0.6567 0.6687 0.5509   -0.459535
 N 0.9981 0.0089 0.7829   -0.360227
 N 0.9431 0.9863 0.6449   -0.426684
 N 0.5848 0.956 0.824   -0.361099
 N 0.6746 0.9491 0.6687   -0.458195
 N 0.2899 0.4911 0.7171   -0.35799
 N 0.0743 0.5137 0.8551   -0.424997
 N 0.8648 0.544 0.676   -0.361904
 N 0.7924 0.5509 0.8313   -0.457259
 N 0.007 0.2829 0.9911   -0.360065
 N 0.9294 0.1449 0.0137   -0.426507
 N 0.5408 0.324 0.044   -0.360841
 N 0.6237 0.1687 0.0509   -0.458866
 N 0.781 0.2171 0.5089   -0.355646
 N 0.588 0.3551 0.4863   -0.427515
 N 0.4088 0.176 0.456   -0.363058
 N 0.3433 0.3313 0.4491   -0.459535
 O 0.42213 0.08407 0.97647   -0.594862
 O 0.19814 0.00945 0.89387   -0.681837
 O 0.1806 0.9898 0.074   -0.51431
 O 0.98267 0.41593 0.52353   -0.59542
 O 0.60146 0.49055 0.60613   -0.682921
 O 0.7444 0.5102 0.426   -0.514567
 O 0.5062 0.47647 0.91593   -0.593392
 O 0.20759 0.39387 0.99055   -0.681997
 O 0.1704 0.574 0.0102   -0.51537
 O 0.3986 0.02353 0.58407   -0.595254
 O 0.09201 0.10613 0.50945   -0.682716
 O 0.2546 0.926 0.4898   -0.514829
 O 0.57787 0.91593 0.02353   -0.594862
 O 0.80186 0.99055 0.10613   -0.681837
 O 0.8194 0.0102 0.926   -0.51431
 O 0.01733 0.58407 0.47647   -0.59542
 O 0.39854 0.50945 0.39387   -0.682921
 O 0.2556 0.4898 0.574   -0.514567
 O 0.4938 0.52353 0.08407   -0.593392
 O 0.79241 0.60613 0.00945   -0.681997
 O 0.8296 0.426 0.9898   -0.51537
 O 0.6014 0.97647 0.41593   -0.595254
 O 0.90799 0.89387 0.49055   -0.682716
 O 0.7454 0.074 0.5102   -0.514829
