{'_ref': 'TBD', '_srcid': 'CAKYAQ_clean', 'submitters': [{'name': 'Dalar Nazarian Jeff Camp and David Sholl', 'email': 'dalar@gatech.edu jcamp6@gatech.edu'}], '_method': 'VASP DFT with PBE;DDEC'}
data_MnH12C20(N3O4)2
_symmetry_space_group_name_H-M   'P 1'
_cell_length_a   9.60650003
_cell_length_b   10.99609959
_cell_length_c   10.99610000
_cell_angle_alpha   70.59699970
_cell_angle_beta   71.93300302
_cell_angle_gamma   71.93300139
_symmetry_Int_Tables_number   1
_chemical_formula_structural   MnH12C20(N3O4)2
_chemical_formula_sum   'Mn2 H24 C40 N12 O16'
_cell_volume   1013.41259908
_cell_formula_units_Z   2
loop_
 _symmetry_equiv_pos_site_id
 _symmetry_equiv_pos_as_xyz
  1  'x, y, z'
loop_
 _atom_site_label
 _atom_site_fract_x
 _atom_site_fract_y
 _atom_site_fract_z
 _atom_site_charge
 Mn 0.25 0.04905 0.95095   1.041813
 Mn 0.75 0.95095 0.04905   1.041813
 H 0.6192 0.2723 0.1319   0.094673
 H 0.2002 0.3638 0.0814   0.11312
 H 0.3267 0.6026 0.2136   0.127987
 H 0.9582 0.4529 0.2309   0.104749
 H 0.1212 0.7698 0.0706   0.112882
 H 0.6774 0.6105 0.2141   0.306612
 H 0.8808 0.8681 0.7277   0.094673
 H 0.2998 0.9186 0.6362   0.11312
 H 0.1733 0.7864 0.3974   0.127987
 H 0.5418 0.7691 0.5471   0.104749
 H 0.3788 0.9294 0.2302   0.112882
 H 0.8226 0.7859 0.3895   0.306612
 H 0.3808 0.7277 0.8681   0.094673
 H 0.7998 0.6362 0.9186   0.11312
 H 0.6733 0.3974 0.7864   0.127987
 H 0.0418 0.5471 0.7691   0.104749
 H 0.8788 0.2302 0.9294   0.112882
 H 0.3226 0.3895 0.7859   0.306612
 H 0.1192 0.1319 0.2723   0.094673
 H 0.7002 0.0814 0.3638   0.11312
 H 0.8267 0.2136 0.6026   0.127987
 H 0.4582 0.2309 0.4529   0.104749
 H 0.6212 0.0706 0.7698   0.112882
 H 0.1774 0.2141 0.6105   0.306612
 C 0.5242 0.32895 0.13517   -0.002635
 C 0.416 0.29999 0.09735   -0.10156
 C 0.2743 0.38319 0.10519   -0.095644
 C 0.2429 0.49526 0.14842   0.100001
 C 0.3493 0.5266 0.18488   -0.101083
 C 0.4916 0.442 0.17792   -0.138648
 C 0.9656 0.54057 0.19413   0.139994
 C 0.0549 0.71386 0.10628   0.180337
 C 0.4518 0.18215 0.04223   0.677342
 C 0.6157 0.47491 0.20615   0.616774
 C 0.9758 0.86483 0.67105   -0.002635
 C 0.084 0.90265 0.70001   -0.10156
 C 0.2257 0.89481 0.61681   -0.095644
 C 0.2571 0.85158 0.50474   0.100001
 C 0.1507 0.81512 0.4734   -0.101083
 C 0.0084 0.82208 0.558   -0.138648
 C 0.5344 0.80587 0.45943   0.139994
 C 0.4451 0.89372 0.28614   0.180337
 C 0.0482 0.95777 0.81785   0.677342
 C 0.8843 0.79385 0.52509   0.616774
 C 0.4758 0.67105 0.86483   -0.002636
 C 0.584 0.70001 0.90265   -0.101561
 C 0.7257 0.61681 0.89481   -0.095645
 C 0.7571 0.50474 0.85158   0.100001
 C 0.6507 0.4734 0.81512   -0.101083
 C 0.5084 0.558 0.82208   -0.138649
 C 0.0344 0.45943 0.80587   0.139994
 C 0.9451 0.28614 0.89372   0.180337
 C 0.5482 0.81785 0.95777   0.677342
 C 0.3843 0.52509 0.79385   0.616774
 C 0.0242 0.13517 0.32895   -0.002636
 C 0.916 0.09735 0.29999   -0.10156
 C 0.7743 0.10519 0.38319   -0.095645
 C 0.7429 0.14842 0.49526   0.100001
 C 0.8493 0.18488 0.5266   -0.101083
 C 0.9916 0.17792 0.442   -0.138649
 C 0.4656 0.19413 0.54057   0.139995
 C 0.5549 0.10628 0.71386   0.180337
 C 0.9518 0.04223 0.18215   0.677342
 C 0.1157 0.20615 0.47491   0.616774
 N 0.09534 0.58043 0.15239   -0.003755
 N 0.85244 0.64031 0.17647   -0.209889
 N 0.90916 0.75267 0.11919   -0.240407
 N 0.40466 0.84761 0.41957   -0.003755
 N 0.64756 0.82353 0.35969   -0.209889
 N 0.59084 0.88081 0.24733   -0.240407
 N 0.90466 0.41957 0.84761   -0.003755
 N 0.14756 0.35969 0.82353   -0.209889
 N 0.09084 0.24733 0.88081   -0.240407
 N 0.59534 0.15239 0.58043   -0.003755
 N 0.35244 0.17647 0.64031   -0.209889
 N 0.40916 0.11919 0.75267   -0.240407
 O 0.58864 0.13169 0.00257   -0.606795
 O 0.34171 0.14588 0.0399   -0.601144
 O 0.73918 0.40281 0.20141   -0.508591
 O 0.57863 0.5921 0.23074   -0.485223
 O 0.91136 0.99743 0.86831   -0.606795
 O 0.15829 0.9601 0.85412   -0.601144
 O 0.76082 0.79859 0.59719   -0.508591
 O 0.92137 0.76926 0.4079   -0.485223
 O 0.41136 0.86831 0.99743   -0.606795
 O 0.65829 0.85412 0.9601   -0.601144
 O 0.26082 0.59719 0.79859   -0.508591
 O 0.42137 0.4079 0.76926   -0.485223
 O 0.08864 0.00257 0.13169   -0.606795
 O 0.84171 0.0399 0.14588   -0.601144
 O 0.23918 0.20141 0.40281   -0.508591
 O 0.07863 0.23074 0.5921   -0.485223
