{'_ref': 'TBD', '_srcid': 'CAKYAQ_clean', 'submitters': [{'name': 'Dalar Nazarian Jeff Camp and David Sholl', 'email': 'dalar@gatech.edu jcamp6@gatech.edu'}], '_method': 'VASP DFT with PBE;DDEC'}
data_CuH7C13NO4
_symmetry_space_group_name_H-M   'P 1'
_cell_length_a   11.91319974
_cell_length_b   13.54600000
_cell_length_c   13.67000000
_cell_angle_alpha   90.00000000
_cell_angle_beta   113.95900136
_cell_angle_gamma   90.00000000
_symmetry_Int_Tables_number   1
_chemical_formula_structural   CuH7C13NO4
_chemical_formula_sum   'Cu4 H28 C52 N4 O16'
_cell_volume   2015.93441863
_cell_formula_units_Z   4
loop_
 _symmetry_equiv_pos_site_id
 _symmetry_equiv_pos_as_xyz
  1  'x, y, z'
loop_
 _atom_site_label
 _atom_site_fract_x
 _atom_site_fract_y
 _atom_site_fract_z
 _atom_site_charge
 Cu 0.89919 0.44328 0.45961   0.728062
 Cu 0.10081 0.94328 0.04039   0.728062
 Cu 0.10081 0.55672 0.54039   0.72806
 Cu 0.89919 0.05672 0.95961   0.72806
 H 0.6478 0.5177 0.386   0.086512
 H 0.4474 0.4739 0.3368   0.131926
 H 0.5436 0.1876 0.3641   0.141913
 H 0.7399 0.2448 0.3854   0.06855
 H 0.316 0.404 0.4188   0.092912
 H 0.0071 0.2532 0.2456   0.11045
 H 0.3299 0.1795 0.2322   0.096901
 H 0.3522 0.0177 0.114   0.086513
 H 0.5526 0.9739 0.1632   0.131926
 H 0.4564 0.6876 0.1359   0.141913
 H 0.2601 0.7448 0.1146   0.06855
 H 0.684 0.904 0.0812   0.092912
 H 0.9929 0.7532 0.2544   0.11045
 H 0.6701 0.6795 0.2678   0.096901
 H 0.3522 0.4823 0.614   0.086512
 H 0.5526 0.5261 0.6632   0.131926
 H 0.4564 0.8124 0.6359   0.141914
 H 0.2601 0.7552 0.6146   0.06855
 H 0.684 0.596 0.5812   0.092912
 H 0.9929 0.7468 0.7544   0.11045
 H 0.6701 0.8205 0.7678   0.096901
 H 0.6478 0.9823 0.886   0.086513
 H 0.4474 0.0261 0.8368   0.131926
 H 0.5436 0.3124 0.8641   0.141914
 H 0.7399 0.2552 0.8854   0.06855
 H 0.316 0.096 0.9188   0.092912
 H 0.0071 0.2468 0.7456   0.11045
 H 0.3299 0.3205 0.7322   0.096901
 C 0.6266 0.4498 0.3819   0.130957
 C 0.5082 0.4237 0.3547   -0.223614
 C 0.4726 0.3242 0.3523   0.134762
 C 0.5606 0.2563 0.3667   -0.252683
 C 0.6822 0.2928 0.3865   0.216715
 C 0.3416 0.2975 0.3237   0.001986
 C 0.2749 0.3535 0.3688   -0.081461
 C 0.1506 0.3369 0.3424   -0.113902
 C 0.0929 0.2631 0.2678   -0.02512
 C 0.1567 0.203 0.2244   -0.10583
 C 0.2835 0.2216 0.2573   -0.079307
 C 0.0839 0.3989 0.3965   0.657032
 C 0.0927 0.124 0.1436   0.668356
 C 0.3734 0.9498 0.1181   0.130958
 C 0.4918 0.9237 0.1453   -0.223614
 C 0.5274 0.8242 0.1477   0.134762
 C 0.4394 0.7563 0.1333   -0.252683
 C 0.3178 0.7928 0.1135   0.216715
 C 0.6584 0.7975 0.1763   0.001986
 C 0.7251 0.8535 0.1312   -0.081461
 C 0.8494 0.8369 0.1576   -0.113902
 C 0.9071 0.7631 0.2322   -0.025121
 C 0.8433 0.703 0.2756   -0.10583
 C 0.7165 0.7216 0.2427   -0.079307
 C 0.9161 0.8989 0.1035   0.657032
 C 0.9073 0.624 0.3564   0.668356
 C 0.3734 0.5502 0.6181   0.130957
 C 0.4918 0.5763 0.6453   -0.223614
 C 0.5274 0.6758 0.6477   0.134762
 C 0.4394 0.7437 0.6333   -0.252683
 C 0.3178 0.7072 0.6135   0.216715
 C 0.6584 0.7025 0.6763   0.001986
 C 0.7251 0.6465 0.6312   -0.081461
 C 0.8494 0.6631 0.6576   -0.113902
 C 0.9071 0.7369 0.7322   -0.025121
 C 0.8433 0.797 0.7756   -0.105831
 C 0.7165 0.7784 0.7427   -0.079307
 C 0.9161 0.6011 0.6035   0.657032
 C 0.9073 0.876 0.8564   0.668356
 C 0.6266 0.0502 0.8819   0.130957
 C 0.5082 0.0763 0.8547   -0.223614
 C 0.4726 0.1758 0.8523   0.134762
 C 0.5606 0.2437 0.8667   -0.252683
 C 0.6822 0.2072 0.8865   0.216715
 C 0.3416 0.2025 0.8237   0.001986
 C 0.2749 0.1465 0.8688   -0.081461
 C 0.1506 0.1631 0.8424   -0.113902
 C 0.0929 0.2369 0.7678   -0.025121
 C 0.1567 0.297 0.7244   -0.10583
 C 0.2835 0.2784 0.7573   -0.079307
 C 0.0839 0.1011 0.8965   0.657032
 C 0.0927 0.376 0.6436   0.668356
 N 0.7196 0.3774 0.4043   -0.307894
 N 0.2804 0.8774 0.0957   -0.307894
 N 0.2804 0.6226 0.5957   -0.307893
 N 0.7196 0.1226 0.9043   -0.307893
 O 0.1441 0.469 0.4435   -0.514083
 O 0.9785 0.3718 0.375   -0.507352
 O 0.9876 0.1443 0.0845   -0.514853
 O 0.1555 0.0503 0.1493   -0.540937
 O 0.8559 0.969 0.0565   -0.514082
 O 0.0215 0.8718 0.125   -0.507352
 O 0.0124 0.6443 0.4155   -0.514853
 O 0.8445 0.5503 0.3507   -0.540937
 O 0.8559 0.531 0.5565   -0.514083
 O 0.0215 0.6282 0.625   -0.507352
 O 0.0124 0.8557 0.9155   -0.514853
 O 0.8445 0.9497 0.8507   -0.540937
 O 0.1441 0.031 0.9435   -0.514083
 O 0.9785 0.1282 0.875   -0.507351
 O 0.9876 0.3557 0.5845   -0.514853
 O 0.1555 0.4497 0.6493   -0.540937
