{'_ref': 'TBD', '_srcid': 'CAKYAQ_clean', 'submitters': [{'name': 'Dalar Nazarian Jeff Camp and David Sholl', 'email': 'dalar@gatech.edu jcamp6@gatech.edu'}], '_method': 'VASP DFT with PBE;DDEC'}
data_CuH6C6IN2
_symmetry_space_group_name_H-M   'P 1'
_cell_length_a   13.13599980
_cell_length_b   14.08069976
_cell_length_c   14.08067264
_cell_angle_alpha   77.43314922
_cell_angle_beta   62.19570823
_cell_angle_gamma   62.19560193
_symmetry_Int_Tables_number   1
_chemical_formula_structural   CuH6C6IN2
_chemical_formula_sum   'Cu8 H48 C48 I8 N16'
_cell_volume   2037.75154628
_cell_formula_units_Z   8
loop_
 _symmetry_equiv_pos_site_id
 _symmetry_equiv_pos_as_xyz
  1  'x, y, z'
loop_
 _atom_site_label
 _atom_site_fract_x
 _atom_site_fract_y
 _atom_site_fract_z
 _atom_site_charge
 Cu 0.1157 0.25 0.2686   0.213861
 Cu 0.6343 0.25 0.2314   0.213214
 Cu 0.3657 0.2686 0.25   0.21322
 Cu 0.8843 0.2314 0.25   0.213862
 Cu 0.8843 0.75 0.7314   0.213861
 Cu 0.3657 0.75 0.7686   0.213214
 Cu 0.6343 0.7314 0.75   0.21322
 Cu 0.1157 0.7686 0.75   0.213862
 H 0.8503 0.342 0.5052   0.110798
 H 0.8685 0.3828 0.3892   0.088974
 H 0.6975 0.158 0.9948   0.110037
 H 0.6405 0.1172 0.1108   0.08892
 H 0.1923 0.5052 0.158   0.110119
 H 0.2513 0.3892 0.1172   0.090254
 H 0.8555 0.9948 0.342   0.109584
 H 0.7577 0.1108 0.3828   0.089958
 H 0.1497 0.9948 0.158   0.110796
 H 0.1315 0.1108 0.1172   0.088968
 H 0.3025 0.5052 0.342   0.110044
 H 0.3595 0.3892 0.3828   0.088923
 H 0.8077 0.342 0.9948   0.110123
 H 0.7487 0.3828 0.1108   0.09026
 H 0.1445 0.158 0.5052   0.109587
 H 0.2423 0.1172 0.3892   0.089958
 H 0.1497 0.658 0.4948   0.110797
 H 0.1315 0.6172 0.6108   0.088974
 H 0.3025 0.842 0.0052   0.110036
 H 0.3595 0.8828 0.8892   0.08892
 H 0.8077 0.4948 0.842   0.110117
 H 0.7487 0.6108 0.8828   0.090254
 H 0.1445 0.0052 0.658   0.109583
 H 0.2423 0.8892 0.6172   0.089958
 H 0.8503 0.0052 0.842   0.110794
 H 0.8685 0.8892 0.8828   0.088968
 H 0.6975 0.4948 0.658   0.110043
 H 0.6405 0.6108 0.6172   0.088923
 H 0.1923 0.658 0.0052   0.110122
 H 0.2513 0.6172 0.8892   0.09026
 H 0.8555 0.842 0.4948   0.109586
 H 0.7577 0.8828 0.6108   0.089958
 H 0.6656 0.4813 0.5187   0.08504
 H 0.7361 0.5518 0.4482   0.07768
 H 0.6656 0.0187 0.9813   0.085042
 H 0.7361 0.9482 0.0518   0.077676
 H 0.1469 0.5187 0.0187   0.084302
 H 0.2879 0.4482 0.9482   0.077763
 H 0.6843 0.9813 0.4813   0.086996
 H 0.6843 0.0518 0.5518   0.077536
 H 0.3344 0.9813 0.0187   0.085042
 H 0.2639 0.0518 0.9482   0.077676
 H 0.3344 0.5187 0.4813   0.08504
 H 0.2639 0.4482 0.5518   0.077678
 H 0.8531 0.4813 0.9813   0.084302
 H 0.7121 0.5518 0.0518   0.077763
 H 0.3157 0.0187 0.5187   0.086996
 H 0.3157 0.9482 0.4482   0.077535
 C 0.9692 0.4156 0.442   0.24136
 C 0.8563 0.4008 0.4568   -0.230937
 C 0.8268 0.0844 0.058   0.24315
 C 0.7139 0.0992 0.0432   -0.230353
 C 0.3848 0.442 0.0844   0.242532
 C 0.2571 0.4568 0.0992   -0.231699
 C 0.9112 0.058 0.4156   0.242313
 C 0.8131 0.0432 0.4008   -0.230575
 C 0.0308 0.058 0.0844   0.241342
 C 0.1437 0.0432 0.0992   -0.230923
 C 0.1732 0.442 0.4156   0.243137
 C 0.2861 0.4568 0.4008   -0.230359
 C 0.6152 0.4156 0.058   0.242536
 C 0.7429 0.4008 0.0432   -0.231725
 C 0.0888 0.0844 0.442   0.242314
 C 0.1869 0.0992 0.4568   -0.230582
 C 0.0308 0.5844 0.558   0.241359
 C 0.1437 0.5992 0.5432   -0.230936
 C 0.1732 0.9156 0.942   0.243149
 C 0.2861 0.9008 0.9568   -0.230353
 C 0.6152 0.558 0.9156   0.242531
 C 0.7429 0.5432 0.9008   -0.231699
 C 0.0888 0.942 0.5844   0.242312
 C 0.1869 0.9568 0.5992   -0.230575
 C 0.9692 0.942 0.9156   0.241343
 C 0.8563 0.9568 0.9008   -0.230923
 C 0.8268 0.558 0.5844   0.243138
 C 0.7139 0.5432 0.5992   -0.230359
 C 0.3848 0.5844 0.942   0.242537
 C 0.2571 0.5992 0.9568   -0.231724
 C 0.9112 0.9156 0.558   0.242315
 C 0.8131 0.9008 0.5432   -0.230582
 C 0.9486 0.4927 0.5073   -0.101376
 C 0.7355 0.4973 0.5027   -0.053394
 C 0.9486 0.0073 0.9927   -0.10138
 C 0.7355 0.0027 0.9973   -0.053388
 C 0.4413 0.5073 0.0073   -0.101083
 C 0.2328 0.5027 0.0027   -0.053089
 C 0.9559 0.9927 0.4927   -0.10136
 C 0.7382 0.9973 0.4973   -0.056226
 C 0.0514 0.9927 0.0073   -0.101374
 C 0.2645 0.9973 0.0027   -0.053388
 C 0.0514 0.5073 0.4927   -0.10137
 C 0.2645 0.5027 0.4973   -0.053394
 C 0.5587 0.4927 0.9927   -0.101077
 C 0.7672 0.4973 0.9973   -0.053089
 C 0.0441 0.0073 0.5073   -0.101353
 C 0.2618 0.0027 0.5027   -0.056226
 I 0.35594 0.14406 0.14406   -0.359931
 I 0.64406 0.35594 0.35594   -0.35993
 I 0.5 0.14406 0.35594   -0.360215
 I 0.0 0.35594 0.14406   -0.360339
 I 0.64406 0.85594 0.85594   -0.359932
 I 0.35594 0.64406 0.64406   -0.359931
 I 0.5 0.85594 0.64406   -0.360216
 I 0.0 0.64406 0.85594   -0.36034
 N 0.0833 0.3575 0.3709   -0.140629
 N 0.8117 0.1425 0.1291   -0.142791
 N 0.4408 0.3709 0.1425   -0.141848
 N 0.9542 0.1291 0.3575   -0.141405
 N 0.9167 0.1291 0.1425   -0.140617
 N 0.1883 0.3709 0.3575   -0.142787
 N 0.5592 0.3575 0.1291   -0.141841
 N 0.0458 0.1425 0.3709   -0.141401
 N 0.9167 0.6425 0.6291   -0.140629
 N 0.1883 0.8575 0.8709   -0.14279
 N 0.5592 0.6291 0.8575   -0.141848
 N 0.0458 0.8709 0.6425   -0.141405
 N 0.0833 0.8709 0.8575   -0.140618
 N 0.8117 0.6291 0.6425   -0.142787
 N 0.4408 0.6425 0.8709   -0.141841
 N 0.9542 0.8575 0.6291   -0.141401
