{'_ref': 'TBD', '_srcid': 'CAKYAQ_clean', 'submitters': [{'name': 'Dalar Nazarian Jeff Camp and David Sholl', 'email': 'dalar@gatech.edu jcamp6@gatech.edu'}], '_method': 'VASP DFT with PBE;DDEC'}
data_CoCuH8C12(N2O)4
_symmetry_space_group_name_H-M   'P 1'
_cell_length_a   9.31010023
_cell_length_b   9.31010035
_cell_length_c   10.44600000
_cell_angle_alpha   99.96780029
_cell_angle_beta   99.96780041
_cell_angle_gamma   91.70589994
_symmetry_Int_Tables_number   1
_chemical_formula_structural   CoCuH8C12(N2O)4
_chemical_formula_sum   'Co2 Cu2 H16 C24 N16 O8'
_cell_volume   876.64284182
_cell_formula_units_Z   2
loop_
 _symmetry_equiv_pos_site_id
 _symmetry_equiv_pos_as_xyz
  1  'x, y, z'
loop_
 _atom_site_label
 _atom_site_fract_x
 _atom_site_fract_y
 _atom_site_fract_z
 _atom_site_charge
 Co 0.14796 0.85204 0.25   0.94901
 Co 0.85204 0.14796 0.75   0.94901
 Cu 0.0 0.0 0.5   1.008061
 Cu 0.0 0.0 0.0   1.008061
 H 0.2768 0.5446 0.1468   0.071573
 H 0.2555 0.3055 0.1683   0.136411
 H 0.9522 0.4104 0.3897   0.116365
 H 0.9801 0.6459 0.3606   0.077734
 H 0.4554 0.7232 0.3532   0.071573
 H 0.6945 0.7445 0.3317   0.136411
 H 0.5896 0.0478 0.1103   0.116365
 H 0.3541 0.0199 0.1394   0.077734
 H 0.7232 0.4554 0.8532   0.071573
 H 0.7445 0.6945 0.8317   0.136411
 H 0.0478 0.5896 0.6103   0.116365
 H 0.0199 0.3541 0.6394   0.077734
 H 0.5446 0.2768 0.6468   0.071573
 H 0.3055 0.2555 0.6683   0.136411
 H 0.4104 0.9522 0.8897   0.116365
 H 0.6459 0.9801 0.8606   0.077734
 C 0.1074 0.332 0.2889   -0.028697
 C 0.2117 0.5175 0.1978   0.156944
 C 0.2007 0.3737 0.2111   -0.13554
 C 0.0968 0.1776 0.3169   0.676293
 C 0.0213 0.4359 0.3417   -0.129375
 C 0.0383 0.5771 0.3231   0.168585
 C 0.668 0.8926 0.2111   -0.028697
 C 0.4825 0.7883 0.3022   0.156944
 C 0.6263 0.7993 0.2889   -0.13554
 C 0.8224 0.9032 0.1831   0.676293
 C 0.5641 0.9787 0.1583   -0.129375
 C 0.4229 0.9617 0.1769   0.168585
 C 0.8926 0.668 0.7111   -0.028697
 C 0.7883 0.4825 0.8022   0.156945
 C 0.7993 0.6263 0.7889   -0.13554
 C 0.9032 0.8224 0.6831   0.676293
 C 0.9787 0.5641 0.6583   -0.129375
 C 0.9617 0.4229 0.6769   0.168585
 C 0.332 0.1074 0.7889   -0.028697
 C 0.5175 0.2117 0.6978   0.156945
 C 0.3737 0.2007 0.7111   -0.13554
 C 0.1776 0.0968 0.8169   0.676293
 C 0.4359 0.0213 0.8417   -0.129375
 C 0.5771 0.0383 0.8231   0.168585
 N 0.1339 0.6211 0.2542   -0.355402
 N 0.093 0.8212 0.043   -0.738088
 N 0.1717 0.7547 0.9749   0.566021
 N 0.2467 0.6923 0.9129   -0.36942
 N 0.3789 0.8661 0.2458   -0.355402
 N 0.1788 0.907 0.457   -0.738088
 N 0.2453 0.8283 0.5251   0.566021
 N 0.3077 0.7533 0.5871   -0.36942
 N 0.8661 0.3789 0.7458   -0.355402
 N 0.907 0.1788 0.957   -0.738088
 N 0.8283 0.2453 0.0251   0.566021
 N 0.7533 0.3077 0.0871   -0.36942
 N 0.6211 0.1339 0.7542   -0.355402
 N 0.8212 0.093 0.543   -0.738088
 N 0.7547 0.1717 0.4749   0.566021
 N 0.6923 0.2467 0.4129   -0.36942
 O 0.1389 0.0777 0.2384   -0.610422
 O 0.0436 0.1664 0.4179   -0.581518
 O 0.9223 0.8611 0.2616   -0.610422
 O 0.8336 0.9564 0.0821   -0.581518
 O 0.8611 0.9223 0.7616   -0.610422
 O 0.9564 0.8336 0.5821   -0.581518
 O 0.0777 0.1389 0.7384   -0.610422
 O 0.1664 0.0436 0.9179   -0.581518
