{'_ref': 'TBD', '_srcid': 'CAKYAQ_clean', 'submitters': [{'name': 'Dalar Nazarian Jeff Camp and David Sholl', 'email': 'dalar@gatech.edu jcamp6@gatech.edu'}], '_method': 'VASP DFT with PBE;DDEC'}
data_Cd3H8C4(N10Cl)2
_symmetry_space_group_name_H-M   'P 1'
_cell_length_a   9.34540000
_cell_length_b   9.87220036
_cell_length_c   12.78170000
_cell_angle_alpha   90.00000000
_cell_angle_beta   90.00000000
_cell_angle_gamma   90.89979810
_symmetry_Int_Tables_number   1
_chemical_formula_structural   Cd3H8C4(N10Cl)2
_chemical_formula_sum   'Cd6 H16 C8 N40 Cl4'
_cell_volume   1179.08989835
_cell_formula_units_Z   2
loop_
 _symmetry_equiv_pos_site_id
 _symmetry_equiv_pos_as_xyz
  1  'x, y, z'
loop_
 _atom_site_label
 _atom_site_fract_x
 _atom_site_fract_y
 _atom_site_fract_z
 _atom_site_charge
 Cd 0.73676 0.98739 0.25382   0.911824
 Cd 0.76324 0.51261 0.75382   0.911824
 Cd 0.26324 0.01261 0.74618   0.911823
 Cd 0.23676 0.48739 0.24618   0.911823
 Cd 0.5 0.0 0.5   0.652632
 Cd 0.0 0.5 0.0   0.652632
 H 0.3645 0.2855 0.8872   0.331612
 H 0.4755 0.4004 0.8884   0.32553
 H 0.3847 0.7622 0.9107   0.345864
 H 0.4937 0.649 0.9143   0.327904
 H 0.1355 0.2145 0.3872   0.331612
 H 0.0245 0.0996 0.3884   0.32553
 H 0.1153 0.7378 0.4107   0.345864
 H 0.0063 0.851 0.4143   0.327904
 H 0.6355 0.7145 0.1128   0.331612
 H 0.5245 0.5996 0.1116   0.325531
 H 0.6153 0.2378 0.0893   0.345863
 H 0.5063 0.351 0.0857   0.327904
 H 0.8645 0.7855 0.6128   0.331612
 H 0.9755 0.9004 0.6116   0.325531
 H 0.8847 0.2622 0.5893   0.345863
 H 0.9937 0.149 0.5857   0.327904
 C 0.4906 0.2842 0.7651   0.624723
 C 0.4975 0.7492 0.7833   0.628397
 C 0.0094 0.2158 0.2651   0.624723
 C 0.0025 0.7508 0.2833   0.628397
 C 0.5094 0.7158 0.2349   0.624717
 C 0.5025 0.2508 0.2167   0.62839
 C 0.9906 0.7842 0.7349   0.624717
 C 0.9975 0.2492 0.7167   0.62839
 N 0.6027 0.3399 0.7158   -0.380332
 N 0.6222 0.263 0.6302   -0.118292
 N 0.5263 0.1675 0.6286   0.023751
 N 0.4395 0.1767 0.7135   -0.433277
 N 0.4373 0.3286 0.8578   -0.748959
 N 0.6036 0.6881 0.7314   -0.3776
 N 0.614 0.755 0.6401   -0.135201
 N 0.5199 0.8489 0.6372   0.03142
 N 0.4434 0.8492 0.7264   -0.43622
 N 0.4535 0.7163 0.8807   -0.75558
 N 0.8973 0.1601 0.2158   -0.380332
 N 0.8778 0.237 0.1302   -0.118292
 N 0.9737 0.3325 0.1286   0.023751
 N 0.0605 0.3233 0.2135   -0.433277
 N 0.0627 0.1714 0.3578   -0.748959
 N 0.8964 0.8119 0.2314   -0.3776
 N 0.886 0.745 0.1401   -0.135201
 N 0.9801 0.6511 0.1372   0.03142
 N 0.0566 0.6508 0.2264   -0.43622
 N 0.0465 0.7837 0.3807   -0.75558
 N 0.3973 0.6601 0.2842   -0.38033
 N 0.3778 0.737 0.3698   -0.118304
 N 0.4737 0.8325 0.3714   0.023749
 N 0.5605 0.8233 0.2865   -0.433277
 N 0.5627 0.6714 0.1422   -0.748959
 N 0.3964 0.3119 0.2686   -0.377597
 N 0.386 0.245 0.3599   -0.135214
 N 0.4801 0.1511 0.3628   0.031419
 N 0.5566 0.1508 0.2736   -0.436219
 N 0.5465 0.2837 0.1193   -0.75558
 N 0.1027 0.8399 0.7842   -0.38033
 N 0.1222 0.763 0.8698   -0.118304
 N 0.0263 0.6675 0.8714   0.023749
 N 0.9395 0.6767 0.7865   -0.433277
 N 0.9373 0.8286 0.6422   -0.748959
 N 0.1036 0.1881 0.7686   -0.377597
 N 0.114 0.255 0.8599   -0.135214
 N 0.0199 0.3489 0.8628   0.031419
 N 0.9434 0.3492 0.7736   -0.436219
 N 0.9535 0.2163 0.6193   -0.75558
 Cl 0.77871 0.99901 0.45728   -0.491862
 Cl 0.72129 0.50099 0.95728   -0.491862
 Cl 0.22129 0.000990000000002 0.54272   -0.491862
 Cl 0.27871 0.49901 0.04272   -0.491862
