{'_ref': 'TBD', '_srcid': 'CAKYAQ_clean', 'submitters': [{'name': 'Dalar Nazarian Jeff Camp and David Sholl', 'email': 'dalar@gatech.edu jcamp6@gatech.edu'}], '_method': 'VASP DFT with PBE;DDEC'}
data_CuH7C7N5O2
_symmetry_space_group_name_H-M   'P 1'
_cell_length_a   15.29800011
_cell_length_b   15.29800008
_cell_length_c   15.61291784
_cell_angle_alpha   119.33459339
_cell_angle_beta   119.33459362
_cell_angle_gamma   89.99999856
_symmetry_Int_Tables_number   1
_chemical_formula_structural   CuH7C7N5O2
_chemical_formula_sum   'Cu8 H56 C56 N40 O16'
_cell_volume   2634.79065309
_cell_formula_units_Z   8
loop_
 _symmetry_equiv_pos_site_id
 _symmetry_equiv_pos_as_xyz
  1  'x, y, z'
loop_
 _atom_site_label
 _atom_site_fract_x
 _atom_site_fract_y
 _atom_site_fract_z
 _atom_site_charge
 Cu 0.53729 0.59573 0.11166   0.730295
 Cu 0.07437 0.51593 0.11166   0.723893
 Cu 0.59573 0.07437 0.61166   0.72621
 Cu 0.51593 0.53729 0.61166   0.727918
 Cu 0.46271 0.40427 0.88834   0.730295
 Cu 0.92563 0.48407 0.88834   0.723889
 Cu 0.40427 0.92563 0.38834   0.726202
 Cu 0.48407 0.46271 0.38834   0.727894
 H 0.6416 0.8165 0.1846   0.057648
 H 0.6228 0.7622 0.828   0.331723
 H 0.6732 0.8656 0.9446   0.355054
 H 0.4725 0.4164 0.699   0.059345
 H 0.8368 0.5174 0.2316   0.142615
 H 0.816 0.4524 0.105   0.157917
 H 0.7779 0.3954 0.1468   0.167919
 H 0.043 0.3681 0.1846   0.057892
 H 0.7052 0.0658 0.828   0.331728
 H 0.7714 0.079 0.9446   0.355229
 H 0.7265 0.2826 0.699   0.059509
 H 0.8948 0.7142 0.2316   0.143053
 H 0.789 0.6526 0.105   0.15873
 H 0.8689 0.7514 0.1468   0.168229
 H 0.8165 0.043 0.6846   0.057743
 H 0.7622 0.7052 0.328   0.3319
 H 0.8656 0.7714 0.4446   0.355126
 H 0.4164 0.7265 0.199   0.059571
 H 0.5174 0.8948 0.7316   0.143019
 H 0.4524 0.789 0.605   0.158565
 H 0.3954 0.8689 0.6468   0.168218
 H 0.3681 0.6416 0.6846   0.057843
 H 0.0658 0.6228 0.328   0.331625
 H 0.079 0.6732 0.4446   0.355143
 H 0.2826 0.4725 0.199   0.059306
 H 0.7142 0.8368 0.7316   0.142921
 H 0.6526 0.816 0.605   0.158382
 H 0.7514 0.7779 0.6468   0.168149
 H 0.3584 0.1835 0.8154   0.057649
 H 0.3772 0.2378 0.172   0.331723
 H 0.3268 0.1344 0.0554   0.355058
 H 0.5275 0.5836 0.301   0.059345
 H 0.1632 0.4826 0.7684   0.142615
 H 0.184 0.5476 0.895   0.157917
 H 0.2221 0.6046 0.8532   0.167918
 H 0.957 0.6319 0.8154   0.057892
 H 0.2948 0.9342 0.172   0.331729
 H 0.2286 0.921 0.0554   0.355232
 H 0.2735 0.7174 0.301   0.059509
 H 0.1052 0.2858 0.7684   0.143054
 H 0.211 0.3474 0.895   0.158731
 H 0.1311 0.2486 0.8532   0.168231
 H 0.1835 0.957 0.3154   0.057744
 H 0.2378 0.2948 0.672   0.3319
 H 0.1344 0.2286 0.5554   0.355129
 H 0.5836 0.2735 0.801   0.059571
 H 0.4826 0.1052 0.2684   0.14302
 H 0.5476 0.211 0.395   0.158565
 H 0.6046 0.1311 0.3532   0.168219
 H 0.6319 0.3584 0.3154   0.057842
 H 0.9342 0.3772 0.672   0.331626
 H 0.921 0.3268 0.5554   0.355146
 H 0.7174 0.5275 0.801   0.059307
 H 0.2858 0.1632 0.2684   0.142921
 H 0.3474 0.184 0.395   0.158382
 H 0.2486 0.2221 0.3532   0.16815
 C 0.6261 0.7712 0.1086   0.403645
 C 0.5594 0.61 0.9438   0.382529
 C 0.5739 0.6482 0.884   -0.078997
 C 0.6218 0.7504 0.9458   0.47925
 C 0.5033 0.4845 0.7674   0.310105
 C 0.6828 0.4799 0.0998   0.750672
 C 0.788 0.4594 0.1504   -0.50589
 C 0.9825 0.3374 0.1086   0.403167
 C 0.8844 0.3338 0.9438   0.381428
 C 0.8101 0.2358 0.884   -0.07785
 C 0.824 0.1954 0.9458   0.479284
 C 0.7641 0.2829 0.7674   0.309471
 C 0.917 0.6199 0.0998   0.749071
 C 0.8624 0.691 0.1504   -0.504151
 C 0.7712 0.9825 0.6086   0.403331
 C 0.61 0.8844 0.4438   0.382093
 C 0.6482 0.8101 0.384   -0.078446
 C 0.7504 0.824 0.4458   0.479289
 C 0.4845 0.7641 0.2674   0.309942
 C 0.4799 0.917 0.5998   0.749809
 C 0.4594 0.8624 0.6504   -0.505756
 C 0.3374 0.6261 0.6086   0.403509
 C 0.3338 0.5594 0.4438   0.382181
 C 0.2358 0.5739 0.384   -0.078723
 C 0.1954 0.6218 0.4458   0.479354
 C 0.2829 0.5033 0.2674   0.309692
 C 0.6199 0.6828 0.5998   0.750066
 C 0.691 0.788 0.6504   -0.505415
 C 0.3739 0.2288 0.8914   0.403645
 C 0.4406 0.39 0.0562   0.382529
 C 0.4261 0.3518 0.116   -0.078998
 C 0.3782 0.2496 0.0542   0.47925
 C 0.4967 0.5155 0.2326   0.310107
 C 0.3172 0.5201 0.9002   0.750671
 C 0.212 0.5406 0.8496   -0.50589
 C 0.0175 0.6626 0.8914   0.403167
 C 0.1156 0.6662 0.0562   0.38143
 C 0.1899 0.7642 0.116   -0.07785
 C 0.176 0.8046 0.0542   0.479284
 C 0.2359 0.7171 0.2326   0.309474
 C 0.083 0.3801 0.9002   0.749073
 C 0.1376 0.309 0.8496   -0.504152
 C 0.2288 0.0175 0.3914   0.40333
 C 0.39 0.1156 0.5562   0.382093
 C 0.3518 0.1899 0.616   -0.078446
 C 0.2496 0.176 0.5542   0.47929
 C 0.5155 0.2359 0.7326   0.309945
 C 0.5201 0.083 0.4002   0.74981
 C 0.5406 0.1376 0.3496   -0.505757
 C 0.6626 0.3739 0.3914   0.403508
 C 0.6662 0.4406 0.5562   0.382181
 C 0.7642 0.4261 0.616   -0.078723
 C 0.8046 0.3782 0.5542   0.479354
 C 0.7171 0.4967 0.7326   0.309696
 C 0.3801 0.3172 0.4002   0.750067
 C 0.309 0.212 0.3496   -0.505415
 N 0.6498 0.8151 0.0658   -0.583398
 N 0.5824 0.6689 0.0556   -0.47744
 N 0.6417 0.7987 0.9006   -0.67577
 N 0.5396 0.5678 0.7732   -0.390155
 N 0.5142 0.5055 0.8668   -0.468616
 N 0.916 0.2507 0.0658   -0.583302
 N 0.9732 0.3867 0.0556   -0.475531
 N 0.7589 0.1019 0.9006   -0.675506
 N 0.7336 0.2054 0.7732   -0.390325
 N 0.8526 0.3613 0.8668   -0.466879
 N 0.8151 0.916 0.5658   -0.583251
 N 0.6689 0.9732 0.5556   -0.476276
 N 0.7987 0.7589 0.4006   -0.675597
 N 0.5678 0.7336 0.2732   -0.390242
 N 0.5055 0.8526 0.3668   -0.467564
 N 0.2507 0.6498 0.5658   -0.583275
 N 0.3867 0.5824 0.5556   -0.476892
 N 0.1019 0.6417 0.4006   -0.675672
 N 0.2054 0.5396 0.2732   -0.390039
 N 0.3613 0.5142 0.3668   -0.468084
 N 0.3502 0.1849 0.9342   -0.583398
 N 0.4176 0.3311 0.9444   -0.47744
 N 0.3583 0.2013 0.0994   -0.675772
 N 0.4604 0.4322 0.2268   -0.390151
 N 0.4858 0.4945 0.1332   -0.468617
 N 0.084 0.7493 0.9342   -0.583303
 N 0.0268 0.6133 0.9444   -0.47553
 N 0.2411 0.8981 0.0994   -0.675507
 N 0.2664 0.7946 0.2268   -0.390324
 N 0.1474 0.6387 0.1332   -0.46688
 N 0.1849 0.084 0.4342   -0.583251
 N 0.3311 0.0268 0.4444   -0.476275
 N 0.2013 0.2411 0.5994   -0.675599
 N 0.4322 0.2664 0.7268   -0.390242
 N 0.4945 0.1474 0.6332   -0.467566
 N 0.7493 0.3502 0.4342   -0.583275
 N 0.6133 0.4176 0.4444   -0.476888
 N 0.8981 0.3583 0.5994   -0.675674
 N 0.7946 0.4604 0.7268   -0.390039
 N 0.6387 0.4858 0.6332   -0.468087
 O 0.6734 0.5635 0.1638   -0.579339
 O 0.6139 0.4112 0.9932   -0.572947
 O 0.9904 0.6003 0.1638   -0.575018
 O 0.8793 0.582 0.9932   -0.56852
 O 0.5635 0.9904 0.6638   -0.576809
 O 0.4112 0.8793 0.4932   -0.570395
 O 0.6003 0.6734 0.6638   -0.57732
 O 0.582 0.6139 0.4932   -0.570914
 O 0.3266 0.4365 0.8362   -0.579339
 O 0.3861 0.5888 0.0068   -0.572947
 O 0.0096 0.3997 0.8362   -0.575018
 O 0.1207 0.418 0.0068   -0.568521
 O 0.4365 0.0096 0.3362   -0.576808
 O 0.5888 0.1207 0.5068   -0.570396
 O 0.3997 0.3266 0.3362   -0.577318
 O 0.418 0.3861 0.5068   -0.570916
