{'_ref': 'TBD', '_srcid': 'CAKYAQ_clean', 'submitters': [{'name': 'Dalar Nazarian Jeff Camp and David Sholl', 'email': 'dalar@gatech.edu jcamp6@gatech.edu'}], '_method': 'VASP DFT with PBE;DDEC'}
data_ZnH10C17NO4
_symmetry_space_group_name_H-M   'P 1'
_cell_length_a   7.75300014
_cell_length_b   10.45799941
_cell_length_c   11.23858254
_cell_angle_alpha   62.27227011
_cell_angle_beta   85.33359007
_cell_angle_gamma   79.92990127
_symmetry_Int_Tables_number   1
_chemical_formula_structural   ZnH10C17NO4
_chemical_formula_sum   'Zn2 H20 C34 N2 O8'
_cell_volume   794.169772849
_cell_formula_units_Z   2
loop_
 _symmetry_equiv_pos_site_id
 _symmetry_equiv_pos_as_xyz
  1  'x, y, z'
loop_
 _atom_site_label
 _atom_site_fract_x
 _atom_site_fract_y
 _atom_site_fract_z
 _atom_site_charge
 Zn 0.1124 0.60011 0.0   0.932208
 Zn 0.8876 0.39989 0.0   0.932194
 H 0.7716 0.5727 0.5732   0.120675
 H 0.8997 0.5922 0.3796   0.090301
 H 0.4934 0.4693 0.2778   0.103696
 H 0.2284 0.8541 0.5732   0.121085
 H 0.1003 0.0282 0.3796   0.090407
 H 0.5066 0.2529 0.2778   0.103945
 H 0.2284 0.4273 0.4268   0.120665
 H 0.1003 0.4078 0.6204   0.090296
 H 0.5066 0.5307 0.7222   0.103692
 H 0.7716 0.1459 0.4268   0.121076
 H 0.8997 0.9718 0.6204   0.090402
 H 0.4934 0.7471 0.7222   0.10394
 H 0.0361 0.9032 0.0   0.074541
 H 0.1973 0.0715 0.0   0.125118
 H 0.6462 0.8096 0.0   0.127269
 H 0.4851 0.6413 0.0   0.099367
 H 0.9639 0.0968 0.0   0.074541
 H 0.8027 0.9285 0.0   0.125118
 H 0.3538 0.1904 0.0   0.127267
 H 0.5149 0.3587 0.0   0.099361
 C 0.5393 0.516 0.547   0.043751
 C 0.7124 0.5537 0.5148   -0.128987
 C 0.7892 0.5616 0.401   -0.046342
 C 0.5476 0.4901 0.3372   -0.088265
 C 0.715 0.527 0.3106   -0.142006
 C 0.807 0.5246 0.1908   0.685668
 C 0.4607 0.937 0.547   0.044055
 C 0.2876 0.9315 0.5148   -0.129098
 C 0.2108 0.0374 0.401   -0.04677
 C 0.4524 0.1727 0.3372   -0.089109
 C 0.285 0.1624 0.3106   -0.141457
 C 0.193 0.2846 0.1908   0.685685
 C 0.4607 0.484 0.453   0.043747
 C 0.2876 0.4463 0.4852   -0.128986
 C 0.2108 0.4384 0.599   -0.04634
 C 0.4524 0.5099 0.6628   -0.088273
 C 0.285 0.473 0.6894   -0.142005
 C 0.193 0.4754 0.8092   0.685666
 C 0.5393 0.063 0.453   0.04405
 C 0.7124 0.0685 0.4852   -0.129098
 C 0.7892 0.9626 0.599   -0.046768
 C 0.5476 0.8273 0.6628   -0.089118
 C 0.715 0.8376 0.6894   -0.141456
 C 0.807 0.7154 0.8092   0.685683
 C 0.1592 0.8843 0.0   0.169837
 C 0.2553 0.9848 0.0   -0.180858
 C 0.4373 0.9568 0.0   0.111536
 C 0.5231 0.8285 0.0   -0.178469
 C 0.427 0.7281 0.0   0.167961
 C 0.8408 0.1157 0.0   0.169843
 C 0.7447 0.0152 0.0   -0.180864
 C 0.5627 0.0432 0.0   0.111575
 C 0.4769 0.1715 0.0   -0.178473
 C 0.573 0.2719 0.0   0.167963
 N 0.245 0.756 0.0   -0.321597
 N 0.755 0.244 0.0   -0.321596
 O 0.9329 0.5952 0.1462   -0.611093
 O 0.7608 0.451 0.1406   -0.590837
 O 0.0671 0.2586 0.1462   -0.611214
 O 0.2392 0.4084 0.1406   -0.590977
 O 0.0671 0.4048 0.8538   -0.611093
 O 0.2392 0.549 0.8594   -0.59084
 O 0.9329 0.7414 0.8538   -0.611216
 O 0.7608 0.5916 0.8594   -0.590978
