{'_ref': 'TBD', '_srcid': 'CAKYAQ_clean', 'submitters': [{'name': 'Dalar Nazarian Jeff Camp and David Sholl', 'email': 'dalar@gatech.edu jcamp6@gatech.edu'}], '_method': 'VASP DFT with PBE;DDEC'}
data_AgH18(C3S)3
_symmetry_space_group_name_H-M   'P 1'
_cell_length_a   8.60100000
_cell_length_b   14.22400000
_cell_length_c   16.09800000
_cell_angle_alpha   90.00000000
_cell_angle_beta   90.00000000
_cell_angle_gamma   90.00000000
_symmetry_Int_Tables_number   1
_chemical_formula_structural   AgH18(C3S)3
_chemical_formula_sum   'Ag4 H72 C36 S12'
_cell_volume   1969.43936515
_cell_formula_units_Z   4
loop_
 _symmetry_equiv_pos_site_id
 _symmetry_equiv_pos_as_xyz
  1  'x, y, z'
loop_
 _atom_site_label
 _atom_site_fract_x
 _atom_site_fract_y
 _atom_site_fract_z
 _atom_site_charge
 Ag 0.94145 0.43042 0.3745   -0.254777
 Ag 0.55855 0.56958 0.8745   -0.254777
 Ag 0.05855 0.93042 0.1255   -0.254777
 Ag 0.44145 0.06958 0.6255   -0.254777
 H 0.2807 0.367 0.2571   0.081788
 H 0.1425 0.332 0.1894   0.094032
 H 0.3607 0.2064 0.2646   0.062615
 H 0.3866 0.2254 0.1761   0.05916
 H 0.845 0.658 0.3738   0.05112
 H 0.9171 0.6425 0.2646   0.056099
 H 0.6354 0.4339 0.2175   0.0993
 H 0.6164 0.55 0.1919   0.079366
 H 0.89 0.5516 0.1567   0.072713
 H 0.8682 0.423 0.1487   0.103246
 H 0.8282 0.568 0.5658   0.056355
 H 0.6607 0.5259 0.5308   0.089819
 H 0.5829 0.3595 0.4471   0.074795
 H 0.5761 0.3464 0.5473   0.070317
 H 0.7939 0.2093 0.4681   0.092256
 H 0.6125 0.2005 0.4971   0.066082
 H 0.2993 0.3702 0.4242   0.015324
 H 0.3589 0.2684 0.3946   0.074398
 H 0.2193 0.633 0.7571   0.081786
 H 0.3575 0.668 0.6894   0.094018
 H 0.1393 0.7936 0.7646   0.062614
 H 0.1134 0.7746 0.6761   0.059146
 H 0.655 0.342 0.8738   0.051117
 H 0.5829 0.3575 0.7646   0.056099
 H 0.8646 0.5661 0.7175   0.099294
 H 0.8836 0.45 0.6919   0.079366
 H 0.61 0.4484 0.6567   0.0727
 H 0.6318 0.577 0.6487   0.103239
 H 0.6718 0.432 0.0658   0.056333
 H 0.8393 0.4741 0.0308   0.089797
 H 0.9171 0.6405 0.9471   0.074794
 H 0.9239 0.6536 0.0473   0.070306
 H 0.7061 0.7907 0.9681   0.092256
 H 0.8875 0.7995 0.9971   0.066082
 H 0.2007 0.6298 0.9242   0.015323
 H 0.1411 0.7316 0.8946   0.074398
 H 0.7193 0.867 0.2429   0.081787
 H 0.8575 0.832 0.3106   0.094019
 H 0.6393 0.7064 0.2354   0.062597
 H 0.6134 0.7254 0.3239   0.059148
 H 0.155 0.158 0.1262   0.0511
 H 0.0829 0.1425 0.2354   0.056091
 H 0.3646 0.9339 0.2825   0.099298
 H 0.3836 0.05 0.3081   0.079342
 H 0.11 0.0516 0.3433   0.072705
 H 0.1318 0.923 0.3513   0.103245
 H 0.1718 0.068 0.9342   0.056354
 H 0.3393 0.0259 0.9692   0.089816
 H 0.4171 0.8595 0.0529   0.074795
 H 0.4239 0.8464 0.9527   0.07031
 H 0.2061 0.7093 0.0319   0.09222
 H 0.3875 0.7005 0.0029   0.066079
 H 0.7007 0.8702 0.0758   0.015313
 H 0.6411 0.7684 0.1054   0.074397
 H 0.7807 0.133 0.7429   0.081785
 H 0.6425 0.168 0.8106   0.094006
 H 0.8607 0.2936 0.7354   0.062596
 H 0.8866 0.2746 0.8239   0.059134
 H 0.345 0.842 0.6262   0.051098
 H 0.4171 0.8575 0.7354   0.056091
 H 0.1354 0.0661 0.7825   0.099292
 H 0.1164 0.95 0.8081   0.079342
 H 0.39 0.9484 0.8433   0.072693
 H 0.3682 0.077 0.8513   0.103238
 H 0.3282 0.932 0.4342   0.056332
 H 0.1607 0.9741 0.4692   0.089793
 H 0.0829 0.1405 0.5529   0.074794
 H 0.0761 0.1536 0.4527   0.0703
 H 0.2939 0.2907 0.5319   0.09222
 H 0.1125 0.2995 0.5029   0.066078
 H 0.7993 0.1298 0.5758   0.015312
 H 0.8589 0.2316 0.6054   0.074397
 C 0.2117 0.3109 0.2404   -0.137885
 C 0.2947 0.2222 0.2141   -0.090125
 C 0.82 0.6445 0.306   -0.127983
 C 0.684 0.499 0.2077   -0.114932
 C 0.8198 0.4864 0.1493   -0.166243
 C 0.7365 0.5194 0.5599   -0.071616
 C 0.6649 0.3371 0.5026   -0.135657
 C 0.7137 0.235 0.5028   -0.105332
 C 0.2694 0.3016 0.4134   -0.090843
 C 0.2883 0.6891 0.7404   -0.137881
 C 0.2053 0.7778 0.7141   -0.090121
 C 0.68 0.3555 0.806   -0.127984
 C 0.816 0.501 0.7077   -0.114932
 C 0.6802 0.5136 0.6493   -0.166234
 C 0.7635 0.4806 0.0599   -0.071598
 C 0.8351 0.6629 0.0026   -0.135653
 C 0.7863 0.765 0.0028   -0.105333
 C 0.2306 0.6984 0.9134   -0.090842
 C 0.7883 0.8109 0.2596   -0.137883
 C 0.7053 0.7222 0.2859   -0.090111
 C 0.18 0.1445 0.194   -0.127968
 C 0.316 0.999 0.2923   -0.114923
 C 0.1802 0.9864 0.3507   -0.166243
 C 0.2635 0.0194 0.9401   -0.071614
 C 0.3351 0.8371 0.9974   -0.13566
 C 0.2863 0.735 0.9972   -0.105317
 C 0.7306 0.8016 0.0866   -0.090836
 C 0.7117 0.1891 0.7596   -0.13788
 C 0.7947 0.2778 0.7859   -0.090107
 C 0.32 0.8555 0.694   -0.127969
 C 0.184 0.000999999999998 0.7923   -0.114923
 C 0.3198 0.0136 0.8507   -0.166234
 C 0.2365 0.9806 0.4401   -0.071597
 C 0.1649 0.1629 0.4974   -0.135656
 C 0.2137 0.265 0.4972   -0.105317
 C 0.7694 0.1984 0.5866   -0.090835
 S 0.1101 0.2962 0.3394   0.033187
 S 0.7311 0.5282 0.3147   -0.012928
 S 0.8298 0.4115 0.52509   -0.023552
 S 0.3899 0.7038 0.8394   0.033185
 S 0.7689 0.4718 0.8147   -0.012928
 S 0.6702 0.5885 0.02509   -0.023556
 S 0.8899 0.7962 0.1606   0.033186
 S 0.2689 0.0282 0.1853   -0.012932
 S 0.1702 0.9115 0.97491   -0.023551
 S 0.6101 0.2038 0.6606   0.033184
 S 0.2311 0.9718 0.6853   -0.012932
 S 0.3298 0.0885 0.47491   -0.023555
