{'_ref': 'TBD', '_srcid': 'CAKYAQ_clean', 'submitters': [{'name': 'Dalar Nazarian Jeff Camp and David Sholl', 'email': 'dalar@gatech.edu jcamp6@gatech.edu'}], '_method': 'VASP DFT with PBE;DDEC'}
data_CoH7C9NO5
_symmetry_space_group_name_H-M   'P 1'
_cell_length_a   9.35820000
_cell_length_b   10.95300000
_cell_length_c   24.37000000
_cell_angle_alpha   90.00000000
_cell_angle_beta   90.00000000
_cell_angle_gamma   90.00000000
_symmetry_Int_Tables_number   1
_chemical_formula_structural   CoH7C9NO5
_chemical_formula_sum   'Co8 H56 C72 N8 O40'
_cell_volume   2497.9338853
_cell_formula_units_Z   8
loop_
 _symmetry_equiv_pos_site_id
 _symmetry_equiv_pos_as_xyz
  1  'x, y, z'
loop_
 _atom_site_label
 _atom_site_fract_x
 _atom_site_fract_y
 _atom_site_fract_z
 _atom_site_charge
 Co 0.75735 0.27013 0.96162   1.12423
 Co 0.74265 0.22987 0.46162   1.12423
 Co 0.24265 0.27013 0.53838   1.12423
 Co 0.25735 0.22987 0.03838   1.12423
 Co 0.24265 0.72987 0.03838   1.12423
 Co 0.25735 0.77013 0.53838   1.12423
 Co 0.75735 0.72987 0.46162   1.12423
 Co 0.74265 0.77013 0.96162   1.12423
 H 0.6155 0.0654 0.0715   0.089519
 H 0.8498 0.98 0.0673   0.158604
 H 0.8381 0.0921 0.1068   0.137704
 H 0.9005 0.0983 0.8822   0.081453
 H 0.003 0.0904 0.7973   0.134169
 H 0.9127 0.4468 0.7806   0.132851
 H 0.8164 0.4429 0.8665   0.074282
 H 0.8845 0.4346 0.5715   0.089519
 H 0.6502 0.52 0.5673   0.158604
 H 0.6619 0.4079 0.6068   0.137704
 H 0.5995 0.4017 0.3822   0.081453
 H 0.497 0.4096 0.2973   0.134169
 H 0.5873 0.0532 0.2806   0.132851
 H 0.6836 0.0571 0.3665   0.074282
 H 0.3845 0.0654 0.4285   0.089519
 H 0.1502 0.98 0.4327   0.158604
 H 0.1619 0.0921 0.3932   0.137704
 H 0.0995 0.0983 0.6178   0.081453
 H 0.997 0.0904 0.7027   0.134168
 H 0.0873 0.4468 0.7194   0.132849
 H 0.1836 0.4429 0.6335   0.074282
 H 0.1155 0.4346 0.9285   0.089519
 H 0.3498 0.52 0.9327   0.158604
 H 0.3381 0.4079 0.8932   0.137704
 H 0.4005 0.4017 0.1178   0.081453
 H 0.503 0.4096 0.2027   0.134168
 H 0.4127 0.0532 0.2194   0.132849
 H 0.3164 0.0571 0.1335   0.074282
 H 0.3845 0.9346 0.9285   0.089519
 H 0.1502 0.02 0.9327   0.158604
 H 0.1619 0.9079 0.8932   0.137704
 H 0.0995 0.9017 0.1178   0.081453
 H 0.997 0.9096 0.2027   0.134169
 H 0.0873 0.5532 0.2194   0.132851
 H 0.1836 0.5571 0.1335   0.074282
 H 0.1155 0.5654 0.4285   0.089519
 H 0.3498 0.48 0.4327   0.158604
 H 0.3381 0.5921 0.3932   0.137704
 H 0.4005 0.5983 0.6178   0.081453
 H 0.503 0.5904 0.7027   0.134169
 H 0.4127 0.9468 0.7194   0.132851
 H 0.3164 0.9429 0.6335   0.074282
 H 0.6155 0.9346 0.5715   0.089519
 H 0.8498 0.02 0.5673   0.158604
 H 0.8381 0.9079 0.6068   0.137704
 H 0.9005 0.9017 0.3822   0.081453
 H 0.003 0.9096 0.2973   0.134168
 H 0.9127 0.5532 0.2806   0.132849
 H 0.8164 0.5571 0.3665   0.074282
 H 0.8845 0.5654 0.0715   0.089519
 H 0.6502 0.48 0.0673   0.158604
 H 0.6619 0.5921 0.1068   0.137704
 H 0.5995 0.5983 0.8822   0.081453
 H 0.497 0.5904 0.7973   0.134168
 H 0.5873 0.9468 0.7806   0.132849
 H 0.6836 0.9429 0.8665   0.074282
 C 0.6645 0.0359 0.98961   0.643643
 C 0.6877 0.0961 0.04584   0.10178
 C 0.8357 0.0677 0.06857   -0.392612
 C 0.9586 0.1277 0.03953   0.751118
 C 0.9035 0.1693 0.86129   0.207132
 C 0.9645 0.1632 0.81018   -0.213398
 C 0.9677 0.2687 0.77787   0.095712
 C 0.9115 0.3742 0.80035   -0.212958
 C 0.8537 0.371 0.85213   0.195607
 C 0.8355 0.4641 0.48961   0.643643
 C 0.8123 0.4039 0.54584   0.10178
 C 0.6643 0.4323 0.56857   -0.392612
 C 0.5414 0.3723 0.53953   0.751118
 C 0.5965 0.3307 0.36129   0.207132
 C 0.5355 0.3368 0.31018   -0.213398
 C 0.5323 0.2313 0.27787   0.095712
 C 0.5885 0.1258 0.30035   -0.212958
 C 0.6463 0.129 0.35213   0.195607
 C 0.3355 0.0359 0.51039   0.643643
 C 0.3123 0.0961 0.45416   0.10178
 C 0.1643 0.0677 0.43143   -0.392612
 C 0.0414 0.1277 0.46047   0.751118
 C 0.0965 0.1693 0.63871   0.207132
 C 0.0355 0.1632 0.68982   -0.213398
 C 0.0323 0.2687 0.72213   0.095712
 C 0.0885 0.3742 0.69965   -0.212957
 C 0.1463 0.371 0.64787   0.195607
 C 0.1645 0.4641 0.01039   0.643643
 C 0.1877 0.4039 0.95416   0.10178
 C 0.3357 0.4323 0.93143   -0.392612
 C 0.4586 0.3723 0.96047   0.751118
 C 0.4035 0.3307 0.13871   0.207132
 C 0.4645 0.3368 0.18982   -0.213398
 C 0.4677 0.2313 0.22213   0.095712
 C 0.4115 0.1258 0.19965   -0.212957
 C 0.3537 0.129 0.14787   0.195607
 C 0.3355 0.9641 0.01039   0.643643
 C 0.3123 0.9039 0.95416   0.10178
 C 0.1643 0.9323 0.93143   -0.392612
 C 0.0414 0.8723 0.96047   0.751118
 C 0.0965 0.8307 0.13871   0.207132
 C 0.0355 0.8368 0.18982   -0.213398
 C 0.0323 0.7313 0.22213   0.095712
 C 0.0885 0.6258 0.19965   -0.212958
 C 0.1463 0.629 0.14787   0.195607
 C 0.1645 0.5359 0.51039   0.643643
 C 0.1877 0.5961 0.45416   0.10178
 C 0.3357 0.5677 0.43143   -0.392612
 C 0.4586 0.6277 0.46047   0.751118
 C 0.4035 0.6693 0.63871   0.207132
 C 0.4645 0.6632 0.68982   -0.213398
 C 0.4677 0.7687 0.72213   0.095712
 C 0.4115 0.8742 0.69965   -0.212958
 C 0.3537 0.871 0.64787   0.195607
 C 0.6645 0.9641 0.48961   0.643643
 C 0.6877 0.9039 0.54584   0.10178
 C 0.8357 0.9323 0.56857   -0.392612
 C 0.9586 0.8723 0.53953   0.751118
 C 0.9035 0.8307 0.36129   0.207132
 C 0.9645 0.8368 0.31018   -0.213398
 C 0.9677 0.7313 0.27787   0.095712
 C 0.9115 0.6258 0.30035   -0.212957
 C 0.8537 0.629 0.35213   0.195607
 C 0.8355 0.5359 0.98961   0.643643
 C 0.8123 0.5961 0.04584   0.10178
 C 0.6643 0.5677 0.06857   -0.392612
 C 0.5414 0.6277 0.03953   0.751118
 C 0.5965 0.6693 0.86129   0.207132
 C 0.5355 0.6632 0.81018   -0.213398
 C 0.5323 0.7687 0.77787   0.095712
 C 0.5885 0.8742 0.80035   -0.212957
 C 0.6463 0.871 0.85213   0.195607
 N 0.8481 0.2709 0.88286   -0.342895
 N 0.6519 0.2291 0.38286   -0.342895
 N 0.1519 0.2709 0.61714   -0.342895
 N 0.3481 0.2291 0.11714   -0.342895
 N 0.1519 0.7291 0.11714   -0.342895
 N 0.3481 0.7709 0.61714   -0.342895
 N 0.8481 0.7291 0.38286   -0.342895
 N 0.6519 0.7709 0.88286   -0.342895
 O 0.665 0.1016 0.94748   -0.56798
 O 0.6461 0.92306 0.99076   -0.565138
 O 0.675 0.22612 0.04214   -0.448361
 O 0.9384 0.17235 0.99163   -0.577677
 O 0.0769 0.1292 0.06333   -0.606783
 O 0.835 0.3984 0.44748   -0.56798
 O 0.8539 0.57694 0.49076   -0.565138
 O 0.825 0.27388 0.54214   -0.448361
 O 0.5616 0.32765 0.49163   -0.577677
 O 0.4231 0.3708 0.56333   -0.606783
 O 0.335 0.1016 0.55252   -0.56798
 O 0.3539 0.92306 0.50924   -0.565138
 O 0.325 0.22612 0.45786   -0.448362
 O 0.0616 0.17235 0.50837   -0.577677
 O 0.9231 0.1292 0.43667   -0.606783
 O 0.165 0.3984 0.05252   -0.56798
 O 0.1461 0.57694 0.00924   -0.565138
 O 0.175 0.27388 0.95786   -0.448362
 O 0.4384 0.32765 0.00837   -0.577677
 O 0.5769 0.3708 0.93667   -0.606783
 O 0.335 0.8984 0.05252   -0.56798
 O 0.3539 0.07694 0.00924   -0.565139
 O 0.325 0.77388 0.95786   -0.448361
 O 0.0616 0.82765 0.00837   -0.577677
 O 0.9231 0.8708 0.93667   -0.606783
 O 0.165 0.6016 0.55252   -0.56798
 O 0.1461 0.42306 0.50924   -0.565139
 O 0.175 0.72612 0.45786   -0.448361
 O 0.4384 0.67235 0.50837   -0.577677
 O 0.5769 0.6292 0.43667   -0.606783
 O 0.665 0.8984 0.44748   -0.56798
 O 0.6461 0.07694 0.49076   -0.565139
 O 0.675 0.77388 0.54214   -0.448362
 O 0.9384 0.82765 0.49163   -0.577677
 O 0.0769 0.8708 0.56333   -0.606783
 O 0.835 0.6016 0.94748   -0.56798
 O 0.8539 0.42306 0.99076   -0.565139
 O 0.825 0.72612 0.04214   -0.448362
 O 0.5616 0.67235 0.99163   -0.577677
 O 0.4231 0.6292 0.06333   -0.606783
