{'_ref': 'TBD', '_srcid': 'CAKYAQ_clean', 'submitters': [{'name': 'Dalar Nazarian Jeff Camp and David Sholl', 'email': 'dalar@gatech.edu jcamp6@gatech.edu'}], '_method': 'VASP DFT with PBE;DDEC'}
data_MgH8(C7O2)2
_symmetry_space_group_name_H-M   'P 1'
_cell_length_a   11.39180000
_cell_length_b   11.42989990
_cell_length_c   26.99800000
_cell_angle_alpha   90.00000000
_cell_angle_beta   90.00000000
_cell_angle_gamma   94.28300236
_symmetry_Int_Tables_number   1
_chemical_formula_structural   MgH8(C7O2)2
_chemical_formula_sum   'Mg6 H48 C84 O24'
_cell_volume   3505.51504421
_cell_formula_units_Z   6
loop_
 _symmetry_equiv_pos_site_id
 _symmetry_equiv_pos_as_xyz
  1  'x, y, z'
loop_
 _atom_site_label
 _atom_site_fract_x
 _atom_site_fract_y
 _atom_site_fract_z
 _atom_site_charge
 Mg 0.86026 0.24997 0.46172   1.577432
 Mg 0.63974 0.75003 0.96172   1.577432
 Mg 0.13974 0.75003 0.53828   1.577432
 Mg 0.36026 0.24997 0.03828   1.577432
 Mg 0.0 0.0 0.5   1.55032
 Mg 0.5 0.0 0.0   1.55032
 H 0.1769 0.472 0.4605   0.110906
 H 0.3521 0.5883 0.4733   0.096314
 H 0.4953 0.3138 0.5391   0.107802
 H 0.32 0.1975 0.5263   0.108383
 H 0.7615 0.3081 0.622   0.109412
 H 0.7121 0.2577 0.7033   0.111023
 H 0.7766 0.9223 0.6746   0.112809
 H 0.8263 0.9724 0.5932   0.1121
 H 0.7948 0.1921 0.7879   0.119688
 H 0.7089 0.1444 0.8651   0.103414
 H 0.541 0.8525 0.8078   0.110515
 H 0.6173 0.9014 0.7292   0.108762
 H 0.3231 0.528 0.9605   0.110906
 H 0.1479 0.4117 0.9733   0.096314
 H 0.0047 0.6862 0.0391   0.107802
 H 0.18 0.8025 0.0263   0.108383
 H 0.7385 0.6919 0.122   0.109412
 H 0.7879 0.7423 0.2033   0.111023
 H 0.7234 0.0777 0.1746   0.112809
 H 0.6737 0.0276 0.0932   0.1121
 H 0.7052 0.8079 0.2879   0.119688
 H 0.7911 0.8556 0.3651   0.103414
 H 0.959 0.1475 0.3078   0.110515
 H 0.8827 0.0986 0.2292   0.108762
 H 0.8231 0.528 0.5395   0.110905
 H 0.6479 0.4117 0.5267   0.096314
 H 0.5047 0.6862 0.4609   0.107803
 H 0.68 0.8025 0.4737   0.108384
 H 0.2385 0.6919 0.378   0.109411
 H 0.2879 0.7423 0.2967   0.111023
 H 0.2234 0.0777 0.3254   0.112808
 H 0.1737 0.0276 0.4068   0.1121
 H 0.2052 0.8079 0.2121   0.119688
 H 0.2911 0.8556 0.1349   0.103414
 H 0.459 0.1475 0.1922   0.110514
 H 0.3827 0.0986 0.2708   0.108763
 H 0.6769 0.472 0.0395   0.110905
 H 0.8521 0.5883 0.0267   0.096314
 H 0.9953 0.3138 0.9609   0.107803
 H 0.82 0.1975 0.9737   0.108384
 H 0.2615 0.3081 0.878   0.109411
 H 0.2121 0.2577 0.7967   0.111023
 H 0.2766 0.9223 0.8254   0.112808
 H 0.3263 0.9724 0.9068   0.1121
 H 0.2948 0.1921 0.7121   0.119688
 H 0.2089 0.1444 0.6349   0.103414
 H 0.041 0.8525 0.6922   0.110514
 H 0.1173 0.9014 0.7708   0.108763
 C 0.1158 0.2515 0.48098   0.778723
 C 0.232 0.3238 0.4922   -0.144042
 C 0.2415 0.4399 0.4765   -0.049022
 C 0.3456 0.509 0.484   -0.163993
 C 0.4402 0.462 0.5074   0.024054
 C 0.4306 0.3459 0.5231   -0.142686
 C 0.3265 0.2768 0.5156   -0.039134
 C 0.8285 0.1814 0.54776   0.746036
 C 0.7994 0.1453 0.59969   -0.15773
 C 0.7648 0.2292 0.63265   -0.030282
 C 0.735 0.1991 0.6811   -0.160007
 C 0.7382 0.0849 0.69732   0.073895
 C 0.7732 0.0012 0.66394   -0.159719
 C 0.8032 0.0308 0.61548   0.002282
 C 0.7031 0.0523 0.7487   0.047665
 C 0.741 0.1251 0.7916   -0.160827
 C 0.695 0.0925 0.8379   -0.036962
 C 0.632 0.9901 0.84525   -0.146167
 C 0.5941 0.9199 0.8036   -0.048847
 C 0.6363 0.9519 0.7565   -0.145126
 C 0.5939 0.9494 0.8963   0.754629
 C 0.3842 0.7485 0.98098   0.778723
 C 0.268 0.6762 0.9922   -0.144042
 C 0.2585 0.5601 0.9765   -0.049022
 C 0.1544 0.491 0.984   -0.163993
 C 0.0598 0.538 0.0074   0.024054
 C 0.0694 0.6541 0.0231   -0.142686
 C 0.1735 0.7232 0.0156   -0.039134
 C 0.6715 0.8186 0.04776   0.746036
 C 0.7006 0.8547 0.09969   -0.15773
 C 0.7352 0.7708 0.13265   -0.030282
 C 0.765 0.8009 0.1811   -0.160007
 C 0.7618 0.9151 0.19732   0.073895
 C 0.7268 0.9988 0.16394   -0.159719
 C 0.6968 0.9692 0.11548   0.002282
 C 0.7969 0.9477 0.2487   0.047665
 C 0.759 0.8749 0.2916   -0.160827
 C 0.805 0.9075 0.3379   -0.036962
 C 0.868 0.0099 0.34525   -0.146167
 C 0.9059 0.0801 0.3036   -0.048847
 C 0.8637 0.0481 0.2565   -0.145126
 C 0.9061 0.0506 0.3963   0.754629
 C 0.8842 0.7485 0.51902   0.778723
 C 0.768 0.6762 0.5078   -0.144043
 C 0.7585 0.5601 0.5235   -0.049022
 C 0.6544 0.491 0.516   -0.163993
 C 0.5598 0.538 0.4926   0.024056
 C 0.5694 0.6541 0.4769   -0.142686
 C 0.6735 0.7232 0.4844   -0.039133
 C 0.1715 0.8186 0.45224   0.746036
 C 0.2006 0.8547 0.40031   -0.15773
 C 0.2352 0.7708 0.36735   -0.030282
 C 0.265 0.8009 0.3189   -0.160007
 C 0.2618 0.9151 0.30268   0.073895
 C 0.2268 0.9988 0.33606   -0.159718
 C 0.1968 0.9692 0.38452   0.002282
 C 0.2969 0.9477 0.2513   0.047665
 C 0.259 0.8749 0.2084   -0.160827
 C 0.305 0.9075 0.1621   -0.036962
 C 0.368 0.0099 0.15475   -0.146167
 C 0.4059 0.0801 0.1964   -0.048846
 C 0.3637 0.0481 0.2435   -0.145126
 C 0.4061 0.0506 0.1037   0.754629
 C 0.6158 0.2515 0.01902   0.778723
 C 0.732 0.3238 0.0078   -0.144043
 C 0.7415 0.4399 0.0235   -0.049022
 C 0.8456 0.509 0.016   -0.163993
 C 0.9402 0.462 0.9926   0.024056
 C 0.9306 0.3459 0.9769   -0.142686
 C 0.8265 0.2768 0.9844   -0.039133
 C 0.3285 0.1814 0.95224   0.746036
 C 0.2994 0.1453 0.90031   -0.15773
 C 0.2648 0.2292 0.86735   -0.030282
 C 0.235 0.1991 0.8189   -0.160007
 C 0.2382 0.0849 0.80268   0.073895
 C 0.2732 0.0012 0.83606   -0.159718
 C 0.3032 0.0308 0.88452   0.002282
 C 0.2031 0.0523 0.7513   0.047665
 C 0.241 0.1251 0.7084   -0.160827
 C 0.195 0.0925 0.6621   -0.036962
 C 0.132 0.9901 0.65475   -0.146167
 C 0.0941 0.9199 0.6964   -0.048846
 C 0.1363 0.9519 0.7435   -0.145126
 C 0.0939 0.9494 0.6037   0.754629
 O 0.8117 0.28399 0.53453   -0.705957
 O 0.86686 0.10967 0.51705   -0.822887
 O 0.577 0.8419 0.9026   -0.817446
 O 0.02665 0.30904 0.47587   -0.779784
 O 0.56312 0.02156 0.92694   -0.675243
 O 0.11752 0.14269 0.48313   -0.705144
 O 0.6883 0.71601 0.03453   -0.705957
 O 0.63314 0.89033 0.01705   -0.822887
 O 0.923 0.1581 0.4026   -0.817446
 O 0.47335 0.69096 0.97587   -0.779784
 O 0.93688 0.97844 0.42694   -0.675243
 O 0.38248 0.85731 0.98313   -0.705144
 O 0.1883 0.71601 0.46547   -0.705957
 O 0.13314 0.89033 0.48295   -0.822887
 O 0.423 0.1581 0.0974   -0.817446
 O 0.97335 0.69096 0.52413   -0.779784
 O 0.43688 0.97844 0.07306   -0.675243
 O 0.88248 0.85731 0.51687   -0.705144
 O 0.3117 0.28399 0.96547   -0.705957
 O 0.36686 0.10967 0.98295   -0.822887
 O 0.077 0.8419 0.5974   -0.817446
 O 0.52665 0.30904 0.02413   -0.779784
 O 0.06312 0.02156 0.57306   -0.675243
 O 0.61752 0.14269 0.01687   -0.705144
