{'_ref': 'TBD', '_srcid': 'CAKYAQ_clean', 'submitters': [{'name': 'Dalar Nazarian Jeff Camp and David Sholl', 'email': 'dalar@gatech.edu jcamp6@gatech.edu'}], '_method': 'VASP DFT with PBE;DDEC'}
data_ZnP2H6(C3O4)2
_symmetry_space_group_name_H-M   'P 1'
_cell_length_a   9.15710023
_cell_length_b   10.45710000
_cell_length_c   10.45709998
_cell_angle_alpha   84.10069864
_cell_angle_beta   79.69510096
_cell_angle_gamma   79.69500019
_symmetry_Int_Tables_number   1
_chemical_formula_structural   ZnP2H6(C3O4)2
_chemical_formula_sum   'Zn2 P4 H12 C12 O16'
_cell_volume   966.699456443
_cell_formula_units_Z   2
loop_
 _symmetry_equiv_pos_site_id
 _symmetry_equiv_pos_as_xyz
  1  'x, y, z'
loop_
 _atom_site_label
 _atom_site_fract_x
 _atom_site_fract_y
 _atom_site_fract_z
 _atom_site_charge
 Zn 0.75 0.97557 0.02443   1.201477
 Zn 0.25 0.02443 0.97557   1.201477
 P 0.99153 0.94474 0.20632   1.507723
 P 0.50847 0.79368 0.05526   1.507745
 P 0.00847 0.05526 0.79368   1.507724
 P 0.49153 0.20632 0.94474   1.507746
 H 0.0132 0.7525 0.2349   0.468059
 H 0.7264 0.0375 0.3459   0.423638
 H 0.2144 0.9137 0.3631   0.114387
 H 0.4868 0.7651 0.2475   0.468059
 H 0.7736 0.6541 0.9625   0.423639
 H 0.2856 0.6369 0.0863   0.114387
 H 0.9868 0.2475 0.7651   0.46806
 H 0.2736 0.9625 0.6541   0.423639
 H 0.7856 0.0863 0.6369   0.114385
 H 0.5132 0.2349 0.7525   0.468059
 H 0.2264 0.3459 0.0375   0.423639
 H 0.7144 0.3631 0.9137   0.114385
 C 0.861 0.02668 0.45668   0.372726
 C 0.9901 0.97425 0.37309   -0.489423
 C 0.1282 0.9484 0.4182   -0.078323
 C 0.639 0.54332 0.97332   0.372727
 C 0.5099 0.62691 0.02575   -0.489423
 C 0.3718 0.5818 0.0516   -0.078326
 C 0.139 0.97332 0.54332   0.37274
 C 0.0099 0.02575 0.62691   -0.489428
 C 0.8718 0.0516 0.5818   -0.078307
 C 0.361 0.45668 0.02668   0.37274
 C 0.4901 0.37309 0.97425   -0.489428
 C 0.6282 0.4182 0.9484   -0.07831
 O 0.0621 0.80069 0.18481   -0.698648
 O 0.827 0.97302 0.18768   -0.847356
 O 0.0893 0.03108 0.12064   -0.823961
 O 0.721 0.05662 0.42088   -0.549568
 O 0.4379 0.81519 0.19931   -0.698662
 O 0.673 0.81232 0.02698   -0.847368
 O 0.4107 0.87936 0.96892   -0.823963
 O 0.779 0.57912 0.94338   -0.549569
 O 0.9379 0.19931 0.81519   -0.698648
 O 0.173 0.02698 0.81232   -0.847356
 O 0.9107 0.96892 0.87936   -0.823962
 O 0.279 0.94338 0.57912   -0.549569
 O 0.5621 0.18481 0.80069   -0.698663
 O 0.327 0.18768 0.97302   -0.847368
 O 0.5893 0.12064 0.03108   -0.823963
 O 0.221 0.42088 0.05662   -0.54957
