{'_ref': 'TBD', '_srcid': 'CAKYAQ_clean', 'submitters': [{'name': 'Dalar Nazarian Jeff Camp and David Sholl', 'email': 'dalar@gatech.edu jcamp6@gatech.edu'}], '_method': 'VASP DFT with PBE;DDEC'}
data_K3H45C33O7
_symmetry_space_group_name_H-M   'P 1'
_cell_length_a   13.86830038
_cell_length_b   16.22810000
_cell_length_c   20.49100000
_cell_angle_alpha   90.00000000
_cell_angle_beta   104.71499936
_cell_angle_gamma   90.00000000
_symmetry_Int_Tables_number   1
_chemical_formula_structural   K3H45C33O7
_chemical_formula_sum   'K12 H180 C132 O28'
_cell_volume   4460.37049924
_cell_formula_units_Z   4
loop_
 _symmetry_equiv_pos_site_id
 _symmetry_equiv_pos_as_xyz
  1  'x, y, z'
loop_
 _atom_site_label
 _atom_site_fract_x
 _atom_site_fract_y
 _atom_site_fract_z
 _atom_site_charge
 K 0.01002 0.39783 0.88517   0.918474
 K 0.06504 0.37118 0.11015   0.921015
 K 0.21901 0.48151 0.02823   0.917442
 K 0.98998 0.89783 0.61483   0.918474
 K 0.93496 0.87118 0.38985   0.921015
 K 0.78099 0.98151 0.47177   0.917442
 K 0.98998 0.60217 0.11483   0.918458
 K 0.93496 0.62882 0.88985   0.921005
 K 0.78099 0.51849 0.97177   0.917452
 K 0.01002 0.10217 0.38517   0.918458
 K 0.06504 0.12882 0.61015   0.921005
 K 0.21901 0.01849 0.52823   0.917452
 H 0.2015 0.0816 0.969   0.085762
 H 0.3177 0.1212 0.9106   0.094341
 H 0.3413 0.2609 0.8934   0.078703
 H 0.2511 0.359 0.9345   0.094781
 H 0.0746 0.2105 0.0573   0.013903
 H 0.9691 0.1319 0.9353   0.109211
 H 0.9206 0.161 0.9945   0.099834
 H 0.9617 0.228 0.9509   0.090449
 H 0.155 0.0836 0.0874   0.107007
 H 0.0372 0.0752 0.0775   0.102838
 H 0.0875 0.0427 0.0202   0.101748
 H 0.6278 0.3892 0.6841   0.085183
 H 0.7174 0.4432 0.6123   0.101359
 H 0.8682 0.5117 0.6585   0.07563
 H 0.926 0.5267 0.775   0.087842
 H 0.6634 0.4303 0.8547   0.01333
 H 0.5256 0.3449 0.8219   0.102425
 H 0.5201 0.4134 0.7648   0.106535
 H 0.5546 0.3215 0.7535   0.106087
 H 0.7221 0.2703 0.8208   0.109052
 H 0.7898 0.3292 0.8767   0.090146
 H 0.6883 0.2921 0.8878   0.097483
 H 0.3404 0.6411 0.8175   0.085111
 H 0.3583 0.7567 0.8875   0.092903
 H 0.262 0.7694 0.9644   0.080377
 H 0.1483 0.6679 0.9711   0.101737
 H 0.1766 0.4693 0.8241   0.019762
 H 0.2971 0.4142 0.7793   0.105573
 H 0.3456 0.4484 0.8536   0.099232
 H 0.3567 0.4996 0.7892   0.097584
 H 0.0963 0.5511 0.7357   0.104997
 H 0.1522 0.478 0.7078   0.100821
 H 0.1985 0.5689 0.7155   0.106121
 H 0.8821 0.225 0.7134   0.048715
 H 0.8551 0.3178 0.729   0.063071
 H 0.0878 0.2086 0.8501   0.055977
 H 0.0223 0.1598 0.786   0.053454
 H 0.1424 0.3005 0.7787   0.04903
 H 0.1697 0.208 0.7629   0.071997
 H 0.9364 0.3155 0.6409   0.070636
 H 0.000999999999998 0.3661 0.7042   0.039785
 H 0.4564 0.3672 0.0196   0.078601
 H 0.5224 0.4291 0.0739   0.050409
 H 0.4836 0.5729 0.0661   0.05242
 H 0.392 0.605 0.0071   0.056575
 H 0.7985 0.5816 0.531   0.085761
 H 0.6823 0.6212 0.5894   0.094339
 H 0.6587 0.7609 0.6066   0.078703
 H 0.7489 0.859 0.5655   0.094781
 H 0.9254 0.7105 0.4427   0.013903
 H 0.0309 0.6319 0.5647   0.109211
 H 0.0794 0.661 0.5055   0.099834
 H 0.0383 0.728 0.5491   0.090449
 H 0.845 0.5836 0.4126   0.107007
 H 0.9628 0.5752 0.4225   0.102838
 H 0.9125 0.5427 0.4798   0.101748
 H 0.3722 0.8892 0.8159   0.085182
 H 0.2826 0.9432 0.8877   0.101357
 H 0.1318 0.0117 0.8415   0.075629
 H 0.074 0.0267 0.725   0.087841
 H 0.3366 0.9303 0.6453   0.01333
 H 0.4744 0.8449 0.6781   0.102425
 H 0.4799 0.9134 0.7352   0.106535
 H 0.4454 0.8215 0.7465   0.106087
 H 0.2779 0.7703 0.6792   0.109052
 H 0.2102 0.8292 0.6233   0.090146
 H 0.3117 0.7921 0.6122   0.097483
 H 0.6596 0.1411 0.6825   0.085112
 H 0.6417 0.2567 0.6125   0.092903
 H 0.738 0.2694 0.5356   0.080377
 H 0.8517 0.1679 0.5289   0.101737
 H 0.8234 0.9693 0.6759   0.019762
 H 0.7029 0.9142 0.7207   0.105573
 H 0.6544 0.9484 0.6464   0.099232
 H 0.6433 0.9996 0.7108   0.097584
 H 0.9037 0.0511 0.7643   0.104997
 H 0.8478 0.978 0.7922   0.100821
 H 0.8015 0.0689 0.7845   0.106121
 H 0.1179 0.725 0.7866   0.048715
 H 0.1449 0.8178 0.771   0.063071
 H 0.9122 0.7086 0.6499   0.055977
 H 0.9777 0.6598 0.714   0.053454
 H 0.8576 0.8005 0.7213   0.04903
 H 0.8303 0.708 0.7371   0.071997
 H 0.0636 0.8155 0.8591   0.070636
 H 0.999 0.8661 0.7958   0.039785
 H 0.5436 0.8672 0.4804   0.078601
 H 0.4776 0.9291 0.4261   0.050409
 H 0.5164 0.0729 0.4339   0.05242
 H 0.608 0.105 0.4929   0.056575
 H 0.7985 0.9184 0.031   0.085762
 H 0.6823 0.8788 0.0894   0.09434
 H 0.6587 0.7391 0.1066   0.078703
 H 0.7489 0.641 0.0655   0.094781
 H 0.9254 0.7895 0.9427   0.013904
 H 0.0309 0.8681 0.0647   0.109211
 H 0.0794 0.839 0.0055   0.099834
 H 0.0383 0.772 0.0491   0.090451
 H 0.845 0.9164 0.9126   0.107007
 H 0.9628 0.9248 0.9225   0.102838
 H 0.9125 0.9573 0.9798   0.101749
 H 0.3722 0.6108 0.3159   0.085183
 H 0.2826 0.5568 0.3877   0.101359
 H 0.1318 0.4883 0.3415   0.07563
 H 0.074 0.4733 0.225   0.087841
 H 0.3366 0.5697 0.1453   0.013331
 H 0.4744 0.6551 0.1781   0.102425
 H 0.4799 0.5866 0.2352   0.106535
 H 0.4454 0.6785 0.2465   0.106087
 H 0.2779 0.7297 0.1792   0.109052
 H 0.2102 0.6708 0.1233   0.090147
 H 0.3117 0.7079 0.1122   0.097483
 H 0.6596 0.3589 0.1825   0.085112
 H 0.6417 0.2433 0.1125   0.092903
 H 0.738 0.2306 0.0356   0.080377
 H 0.8517 0.3321 0.0289   0.10174
 H 0.8234 0.5307 0.1759   0.019761
 H 0.7029 0.5858 0.2207   0.105573
 H 0.6544 0.5516 0.1464   0.099233
 H 0.6433 0.5004 0.2108   0.097584
 H 0.9037 0.4489 0.2643   0.104997
 H 0.8478 0.522 0.2922   0.100821
 H 0.8015 0.4311 0.2845   0.106121
 H 0.1179 0.775 0.2866   0.048715
 H 0.1449 0.6822 0.271   0.063071
 H 0.9122 0.7914 0.1499   0.055977
 H 0.9777 0.8402 0.214   0.053454
 H 0.8576 0.6995 0.2213   0.049031
 H 0.8303 0.792 0.2371   0.071997
 H 0.0636 0.6845 0.3591   0.070636
 H 0.999 0.6339 0.2958   0.039785
 H 0.5436 0.6328 0.9804   0.078601
 H 0.4776 0.5709 0.9261   0.050409
 H 0.5164 0.4271 0.9339   0.05242
 H 0.608 0.395 0.9929   0.056575
 H 0.2015 0.4184 0.469   0.085762
 H 0.3177 0.3788 0.4106   0.094339
 H 0.3413 0.2391 0.3934   0.078703
 H 0.2511 0.141 0.4345   0.094781
 H 0.0746 0.2895 0.5573   0.013904
 H 0.9691 0.3681 0.4353   0.109211
 H 0.9206 0.339 0.4945   0.099834
 H 0.9617 0.272 0.4509   0.090451
 H 0.155 0.4164 0.5874   0.107007
 H 0.0372 0.4248 0.5775   0.102838
 H 0.0875 0.4573 0.5202   0.101749
 H 0.6278 0.1108 0.1841   0.085182
 H 0.7174 0.0568 0.1123   0.101357
 H 0.8682 0.9883 0.1585   0.075629
 H 0.926 0.9733 0.275   0.087841
 H 0.6634 0.0697 0.3547   0.013331
 H 0.5256 0.1551 0.3219   0.102425
 H 0.5201 0.0866 0.2648   0.106535
 H 0.5546 0.1785 0.2535   0.106087
 H 0.7221 0.2297 0.3208   0.109052
 H 0.7898 0.1708 0.3767   0.090147
 H 0.6883 0.2079 0.3878   0.097483
 H 0.3404 0.8589 0.3175   0.085112
 H 0.3583 0.7433 0.3875   0.092903
 H 0.262 0.7306 0.4644   0.080377
 H 0.1483 0.8321 0.4711   0.10174
 H 0.1766 0.0307 0.3241   0.019761
 H 0.2971 0.0858 0.2793   0.105573
 H 0.3456 0.0516 0.3536   0.099233
 H 0.3567 0.000399999999999 0.2892   0.097584
 H 0.0963 0.9489 0.2357   0.104997
 H 0.1522 0.022 0.2078   0.100821
 H 0.1985 0.9311 0.2155   0.106121
 H 0.8821 0.275 0.2134   0.048715
 H 0.8551 0.1822 0.229   0.063071
 H 0.0878 0.2914 0.3501   0.055977
 H 0.0223 0.3402 0.286   0.053453
 H 0.1424 0.1995 0.2787   0.049031
 H 0.1697 0.292 0.2629   0.071997
 H 0.9364 0.1845 0.1409   0.070636
 H 0.000999999999998 0.1339 0.2042   0.039785
 H 0.4564 0.1328 0.5196   0.078601
 H 0.5224 0.0709 0.5739   0.050409
 H 0.4836 0.9271 0.5661   0.05242
 H 0.392 0.895 0.5071   0.056575
 C 0.1706 0.2809 0.97841   0.384047
 C 0.1552 0.1951 0.98745   -0.148241
 C 0.2111 0.1386 0.9622   -0.083891
 C 0.2805 0.1616 0.9273   -0.188191
 C 0.2944 0.244 0.9174   -0.022224
 C 0.2406 0.3024 0.94219   -0.349582
 C 0.0749 0.1692 0.0211   0.143168
 C 0.9724 0.1729 0.9709   -0.344152
 C 0.09 0.0853 0.0545   -0.362672
 C 0.8089 0.4705 0.8004   0.387607
 C 0.7198 0.4262 0.7722   -0.146751
 C 0.6882 0.4177 0.7029   -0.081191
 C 0.7414 0.4494 0.6598   -0.185119
 C 0.8303 0.4902 0.6873   -0.006905
 C 0.8642 0.4998 0.7568   -0.369312
 C 0.6642 0.3885 0.819   0.145967
 C 0.5566 0.365 0.787   -0.361593
 C 0.7212 0.3132 0.8543   -0.348295
 C 0.1727 0.5915 0.89764   0.359627
 C 0.2321 0.5842 0.8512   -0.138203
 C 0.3003 0.646 0.8486   -0.084124
 C 0.3114 0.7151 0.8905   -0.179962
 C 0.2548 0.7227 0.9357   -0.012012
 C 0.1871 0.6621 0.9392   -0.370825
 C 0.219 0.5086 0.8059   0.147835
 C 0.3125 0.4639 0.8071   -0.362261
 C 0.1615 0.5284 0.7351   -0.355159
 C 0.9107 0.2789 0.73104   0.059871
 C 0.0485 0.2148 0.80276   0.066884
 C 0.1139 0.2468 0.76065   0.062793
 C 0.9759 0.3106 0.68831   0.077771
 C 0.4847 0.4235 0.0261   0.076488
 C 0.4466 0.564 0.0185   0.073078
 C 0.8294 0.7809 0.52159   0.384047
 C 0.8448 0.6951 0.51255   -0.148241
 C 0.7889 0.6386 0.5378   -0.083891
 C 0.7195 0.6616 0.5727   -0.18819
 C 0.7056 0.744 0.5826   -0.022224
 C 0.7594 0.8024 0.55781   -0.349582
 C 0.9251 0.6692 0.4789   0.143168
 C 0.0276 0.6729 0.5291   -0.344152
 C 0.91 0.5853 0.4455   -0.362672
 C 0.1911 0.9705 0.6996   0.387607
 C 0.2802 0.9262 0.7278   -0.146751
 C 0.3118 0.9177 0.7971   -0.081192
 C 0.2586 0.9494 0.8402   -0.185119
 C 0.1697 0.9902 0.8127   -0.006905
 C 0.1358 0.9998 0.7432   -0.369312
 C 0.3358 0.8885 0.681   0.145967
 C 0.4434 0.865 0.713   -0.361593
 C 0.2788 0.8132 0.6457   -0.348295
 C 0.8273 0.0915 0.60236   0.359627
 C 0.7679 0.0842 0.6488   -0.138203
 C 0.6997 0.146 0.6514   -0.084125
 C 0.6886 0.2151 0.6095   -0.179962
 C 0.7452 0.2227 0.5643   -0.012012
 C 0.8129 0.1621 0.5608   -0.370825
 C 0.781 0.0086 0.6941   0.147835
 C 0.6875 0.9639 0.6929   -0.362261
 C 0.8385 0.0284 0.7649   -0.355159
 C 0.0893 0.7789 0.76896   0.059871
 C 0.9515 0.7148 0.69724   0.066884
 C 0.8861 0.7468 0.73935   0.062793
 C 0.0241 0.8106 0.81169   0.077771
 C 0.5153 0.9235 0.4739   0.076488
 C 0.5534 0.064 0.4815   0.073078
 C 0.8294 0.7191 0.02159   0.384052
 C 0.8448 0.8049 0.01255   -0.148241
 C 0.7889 0.8614 0.0378   -0.083892
 C 0.7195 0.8384 0.0727   -0.188191
 C 0.7056 0.756 0.0826   -0.022224
 C 0.7594 0.6976 0.05781   -0.349581
 C 0.9251 0.8308 0.9789   0.143168
 C 0.0276 0.8271 0.0291   -0.344153
 C 0.91 0.9147 0.9455   -0.362673
 C 0.1911 0.5295 0.1996   0.387612
 C 0.2802 0.5738 0.2278   -0.146751
 C 0.3118 0.5823 0.2971   -0.081192
 C 0.2586 0.5506 0.3402   -0.185119
 C 0.1697 0.5098 0.3127   -0.006906
 C 0.1358 0.5002 0.2432   -0.36931
 C 0.3358 0.6115 0.181   0.145967
 C 0.4434 0.635 0.213   -0.361593
 C 0.2788 0.6868 0.1457   -0.348295
 C 0.8273 0.4085 0.10236   0.359619
 C 0.7679 0.4158 0.1488   -0.138203
 C 0.6997 0.354 0.1514   -0.084124
 C 0.6886 0.2849 0.1095   -0.179962
 C 0.7452 0.2773 0.0643   -0.012012
 C 0.8129 0.3379 0.0608   -0.370826
 C 0.781 0.4914 0.1941   0.147834
 C 0.6875 0.5361 0.1929   -0.362261
 C 0.8385 0.4716 0.2649   -0.355159
 C 0.0893 0.7211 0.26896   0.05987
 C 0.9515 0.7852 0.19724   0.066884
 C 0.8861 0.7532 0.23935   0.062794
 C 0.0241 0.6894 0.31169   0.077772
 C 0.5153 0.5765 0.9739   0.076488
 C 0.5534 0.436 0.9815   0.073079
 C 0.1706 0.2191 0.47841   0.384052
 C 0.1552 0.3049 0.48745   -0.148242
 C 0.2111 0.3614 0.4622   -0.083892
 C 0.2805 0.3384 0.4273   -0.18819
 C 0.2944 0.256 0.4174   -0.022224
 C 0.2406 0.1976 0.44219   -0.349581
 C 0.0749 0.3308 0.5211   0.143168
 C 0.9724 0.3271 0.4709   -0.344153
 C 0.09 0.4147 0.5545   -0.362673
 C 0.8089 0.0295 0.3004   0.387612
 C 0.7198 0.0738 0.2722   -0.146751
 C 0.6882 0.0823 0.2029   -0.081192
 C 0.7414 0.0506 0.1598   -0.185118
 C 0.8303 0.0098 0.1873   -0.006906
 C 0.8642 0.0002 0.2568   -0.36931
 C 0.6642 0.1115 0.319   0.145967
 C 0.5566 0.135 0.287   -0.361593
 C 0.7212 0.1868 0.3543   -0.348295
 C 0.1727 0.9085 0.39764   0.359619
 C 0.2321 0.9158 0.3512   -0.138203
 C 0.3003 0.854 0.3486   -0.084124
 C 0.3114 0.7849 0.3905   -0.179962
 C 0.2548 0.7773 0.4357   -0.012012
 C 0.1871 0.8379 0.4392   -0.370826
 C 0.219 0.9914 0.3059   0.147835
 C 0.3125 0.0361 0.3071   -0.362261
 C 0.1615 0.9716 0.2351   -0.355159
 C 0.9107 0.2211 0.23104   0.05987
 C 0.0485 0.2852 0.30276   0.066884
 C 0.1139 0.2532 0.26065   0.062794
 C 0.9759 0.1894 0.18831   0.077772
 C 0.4847 0.0765 0.5261   0.076488
 C 0.4466 0.936 0.5185   0.073079
 O 0.1203 0.33781 0.00187   -0.905397
 O 0.84043 0.48307 0.86622   -0.906769
 O 0.1075 0.53499 0.90228   -0.863539
 O 0.96779 0.26977 0.7999   -0.402891
 O 0.05819 0.25656 0.6917   -0.417677
 O 0.4054 0.48283 0.01107   -0.416824
 O 0.9865 0.4805 0.9989   0.032362
 O 0.8797 0.83781 0.49813   -0.905397
 O 0.15957 0.98307 0.63378   -0.906769
 O 0.8925 0.03499 0.59772   -0.863539
 O 0.03221 0.76977 0.7001   -0.402891
 O 0.94181 0.75656 0.8083   -0.417677
 O 0.5946 0.98283 0.48893   -0.416824
 O 0.0135 0.9805 0.5011   0.032362
 O 0.8797 0.66219 0.99813   -0.905413
 O 0.15957 0.51693 0.13378   -0.906782
 O 0.8925 0.46501 0.09772   -0.863515
 O 0.03221 0.73023 0.2001   -0.402888
 O 0.94181 0.74344 0.3083   -0.417679
 O 0.5946 0.51717 0.98893   -0.416826
 O 0.0135 0.5195 0.0011   0.033977
 O 0.1203 0.16219 0.50187   -0.905413
 O 0.84043 0.01693 0.36622   -0.906782
 O 0.1075 0.96501 0.40228   -0.863515
 O 0.96779 0.23023 0.2999   -0.402888
 O 0.05819 0.24344 0.1917   -0.417679
 O 0.4054 0.01717 0.51107   -0.416826
 O 0.9865 0.0195 0.4989   0.033977
