{'_ref': 'TBD', '_srcid': 'CAKYAQ_clean', 'submitters': [{'name': 'Dalar Nazarian Jeff Camp and David Sholl', 'email': 'dalar@gatech.edu jcamp6@gatech.edu'}], '_method': 'VASP DFT with PBE;DDEC'}
data_Na13Fe4Sb2W18(C4O43)2
_symmetry_space_group_name_H-M   'P 1'
_cell_length_a   12.58979964
_cell_length_b   14.93390033
_cell_length_c   19.73900000
_cell_angle_alpha   111.35000136
_cell_angle_beta   101.66099872
_cell_angle_gamma   93.97699948
_symmetry_Int_Tables_number   1
_chemical_formula_structural   Na13Fe4Sb2W18(C4O43)2
_chemical_formula_sum   'Na13 Fe4 Sb2 W18 C8 O86'
_cell_volume   3343.37270789
_cell_formula_units_Z   1
loop_
 _symmetry_equiv_pos_site_id
 _symmetry_equiv_pos_as_xyz
  1  'x, y, z'
loop_
 _atom_site_label
 _atom_site_fract_x
 _atom_site_fract_y
 _atom_site_fract_z
 _atom_site_charge
 Na 0.8943 0.4103 0.4214   0.969991
 Na 0.0219 0.0268 0.4264   0.93122
 Na 0.6213 0.1084 0.3872   0.938411
 Na 0.8305 0.4255 0.1364   0.914877
 Na 0.3569 0.4618 0.9528   0.943664
 Na 0.0571 0.1453 0.7582   0.911102
 Na 0.1057 0.5897 0.5786   0.969973
 Na 0.9781 0.9732 0.5736   0.930707
 Na 0.3787 0.8916 0.6128   0.938523
 Na 0.1695 0.5745 0.8636   0.914839
 Na 0.6431 0.5382 0.0472   0.943481
 Na 0.9429 0.8547 0.2418   0.911011
 Na 0.5 0.0 0.5   0.91177
 Fe 0.34663 0.35335 0.48166   1.193407
 Fe 0.79497 0.31641 0.56353   1.254393
 Fe 0.65337 0.64665 0.51834   1.193434
 Fe 0.20503 0.68359 0.43647   1.254403
 Sb 0.40051 0.49158 0.35593   1.371987
 Sb 0.59949 0.50842 0.64407   1.371994
 W 0.60529 0.37471 0.41946   2.624789
 W 0.45745 0.22825 0.24635   1.479609
 W 0.64618 0.41071 0.26783   2.716184
 W 0.59635 0.66472 0.34157   1.892952
 W 0.45035 0.5227 0.17065   2.687613
 W 0.33286 0.68093 0.29261   1.626165
 W 0.1202 0.47793 0.26567   2.556851
 W 0.23922 0.31884 0.14597   1.483738
 W 0.19416 0.28243 0.29355   1.806102
 W 0.39471 0.62529 0.58054   2.624805
 W 0.54255 0.77175 0.75365   1.479612
 W 0.35382 0.58929 0.73217   2.716186
 W 0.40365 0.33528 0.65843   1.892956
 W 0.54965 0.4773 0.82935   2.687609
 W 0.66714 0.31907 0.70739   1.626163
 W 0.8798 0.52207 0.73433   2.556858
 W 0.76078 0.68116 0.85403   1.483738
 W 0.80584 0.71757 0.70645   1.80612
 C 0.1537 0.2343 0.4775   0.434754
 C 0.2305 0.1638 0.4424   0.451651
 C 0.9178 0.1814 0.6026   0.586852
 C 0.8522 0.1257 0.5207   0.571959
 C 0.8463 0.7657 0.5225   0.434765
 C 0.7695 0.8362 0.5576   0.451645
 C 0.0822 0.8186 0.3974   0.586873
 C 0.1478 0.8743 0.4793   0.57196
 O 0.7001 0.333 0.4767   -0.884498
 O 0.4809 0.3591 0.4474   -0.849563
 O 0.6389 0.5042 0.4663   -0.844836
 O 0.7044 0.384 0.3522   -1.084697
 O 0.5526 0.2398 0.3354   -0.838356
 O 0.5023 0.3964 0.3221   -0.989343
 O 0.329 0.2295 0.2836   -0.702643
 O 0.5772 0.2758 0.215   -0.7614
 O 0.3689 0.2728 0.1727   -0.610555
 O 0.7567 0.4021 0.2284   -0.812042
 O 0.6639 0.5462 0.3229   -0.889599
 O 0.5371 0.4342 0.1934   -0.993709
 O 0.4282 0.3431 0.5736   -0.680508
 O 0.4841 0.7454 0.3308   -0.691247
 O 0.5747 0.6222 0.2321   -0.860667
 O 0.4335 0.5617 0.2917   -0.87491
 O 0.467 0.5132 0.0834   -0.92903
 O 0.3228 0.4292 0.1414   -0.836568
 O 0.3638 0.6263 0.1919   -0.823586
 O 0.6767 0.3036 0.6121   -0.638834
 O 0.2083 0.5793 0.2527   -0.831133
 O 0.9895 0.5047 0.2437   -0.779066
 O 0.8331 0.452 0.6321   -0.831345
 O 0.1228 0.3963 0.1629   -0.802982
 O 0.0812 0.3609 0.2823   -0.840033
 O 0.2741 0.4077 0.2726   -0.838394
 O 0.1686 0.2365 0.1836   -0.705341
 O 0.2595 0.3597 0.3894   -0.655924
 O 0.3184 0.2041 0.437   -0.426618
 O 0.1968 0.3246 0.5042   -0.434473
 O 0.9018 0.2691 0.6311   -0.511984
 O 0.7811 0.1723 0.4966   -0.572079
 O 0.9292 0.3378 0.5182   -0.467288
 O 0.8686 0.0437 0.4852   -0.58605
 O 0.2007 0.0754 0.4214   -0.528032
 O 0.0616 0.2025 0.4782   -0.462663
 O 0.9779 0.1388 0.6333   -0.695708
 O 0.9118 0.5419 0.5402   -0.429946
 O 0.6242 0.9556 0.4166   -0.550109
 O 0.6667 0.3771 0.0383   -0.672675
 O 0.7589 0.5791 0.1694   -0.399504
 O 0.5259 0.1523 0.4859   -0.487315
 O 0.9651 0.0282 0.3035   -0.698118
 O 0.2999 0.667 0.5233   -0.884501
 O 0.5191 0.6409 0.5526   -0.849567
 O 0.3611 0.4958 0.5337   -0.844871
 O 0.2956 0.616 0.6478   -1.084691
 O 0.4474 0.7602 0.6646   -0.838375
 O 0.4977 0.6036 0.6779   -0.989344
 O 0.671 0.7705 0.7164   -0.702644
 O 0.4228 0.7242 0.785   -0.761396
 O 0.6311 0.7272 0.8273   -0.61055
 O 0.2433 0.5979 0.7716   -0.812036
 O 0.3361 0.4538 0.6771   -0.889659
 O 0.4629 0.5658 0.8066   -0.993709
 O 0.5718 0.6569 0.4264   -0.680513
 O 0.5159 0.2546 0.6692   -0.691239
 O 0.4253 0.3778 0.7679   -0.860667
 O 0.5665 0.4383 0.7083   -0.874911
 O 0.533 0.4868 0.9166   -0.929021
 O 0.6772 0.5708 0.8586   -0.836565
 O 0.6362 0.3737 0.8081   -0.823586
 O 0.3233 0.6964 0.3879   -0.638833
 O 0.7917 0.4207 0.7473   -0.831139
 O 0.0105 0.4953 0.7563   -0.779118
 O 0.1669 0.548 0.3679   -0.831359
 O 0.8772 0.6037 0.8371   -0.80298
 O 0.9188 0.6391 0.7177   -0.84007
 O 0.7259 0.5923 0.7274   -0.838395
 O 0.8314 0.7635 0.8164   -0.705337
 O 0.7405 0.6403 0.6106   -0.656042
 O 0.6816 0.7959 0.563   -0.42662
 O 0.8032 0.6754 0.4958   -0.434678
 O 0.0982 0.7309 0.3689   -0.512048
 O 0.2189 0.8277 0.5034   -0.572095
 O 0.0708 0.6622 0.4818   -0.467308
 O 0.1314 0.9563 0.5148   -0.586059
 O 0.7993 0.9246 0.5786   -0.528067
 O 0.9384 0.7975 0.5218   -0.462605
 O 0.0221 0.8612 0.3667   -0.695767
 O 0.0882 0.4581 0.4598   -0.430193
 O 0.3758 0.0444 0.5834   -0.550171
 O 0.3333 0.6229 0.9617   -0.672684
 O 0.2411 0.4209 0.8306   -0.399521
 O 0.4741 0.8477 0.5141   -0.487321
 O 0.0349 0.9718 0.6965   -0.698075
