{'_ref': 'TBD', '_srcid': 'CAKYAQ_clean', 'submitters': [{'name': 'Dalar Nazarian Jeff Camp and David Sholl', 'email': 'dalar@gatech.edu jcamp6@gatech.edu'}], '_method': 'VASP DFT with PBE;DDEC'}
data_CuH4C8N4(OF)2
_symmetry_space_group_name_H-M   'P 1'
_cell_length_a   10.00099979
_cell_length_b   15.55079983
_cell_length_c   15.55080000
_cell_angle_alpha   84.06499995
_cell_angle_beta   71.24280040
_cell_angle_gamma   71.24270106
_symmetry_Int_Tables_number   1
_chemical_formula_structural   CuH4C8N4(OF)2
_chemical_formula_sum   'Cu8 H32 C64 N32 O16 F16'
_cell_volume   2168.44016477
_cell_formula_units_Z   8
loop_
 _symmetry_equiv_pos_site_id
 _symmetry_equiv_pos_as_xyz
  1  'x, y, z'
loop_
 _atom_site_label
 _atom_site_fract_x
 _atom_site_fract_y
 _atom_site_fract_z
 _atom_site_charge
 Cu 0.12874 0.26113 0.99859   0.813499
 Cu 0.38846 0.73887 0.00141   0.811548
 Cu 0.37733 0.50141 0.76113   0.787271
 Cu 0.63987 0.49859 0.23887   0.810037
 Cu 0.38846 0.00141 0.73887   0.811543
 Cu 0.12874 0.99859 0.26113   0.813502
 Cu 0.63987 0.23887 0.49859   0.810041
 Cu 0.37733 0.76113 0.50141   0.787281
 H 0.8501 0.2055 0.0155   0.094589
 H 0.9471 0.3313 0.8595   0.11526
 H 0.8978 0.4816 0.3076   0.124445
 H 0.2486 0.3134 0.141   0.091706
 H 0.0711 0.7945 0.9845   0.095102
 H 0.1379 0.6687 0.1405   0.115021
 H 0.687 0.5184 0.6924   0.125155
 H 0.703 0.6866 0.859   0.091253
 H 0.1156 0.4845 0.7055   0.094874
 H 0.0566 0.6405 0.8313   0.117541
 H 0.4554 0.1924 0.9816   0.124885
 H 0.6396 0.359 0.8134   0.093066
 H 0.3056 0.5155 0.2945   0.094693
 H 0.5284 0.3595 0.1687   0.115486
 H 0.6294 0.8076 0.0184   0.124344
 H 0.812 0.641 0.1866   0.089654
 H 0.0711 0.9845 0.7945   0.095107
 H 0.1379 0.1405 0.6687   0.115027
 H 0.687 0.6924 0.5184   0.125154
 H 0.703 0.859 0.6866   0.091255
 H 0.8501 0.0155 0.2055   0.09459
 H 0.9471 0.8595 0.3313   0.115259
 H 0.8978 0.3076 0.4816   0.124443
 H 0.2486 0.141 0.3134   0.091706
 H 0.3056 0.2945 0.5155   0.094692
 H 0.5284 0.1687 0.3595   0.11549
 H 0.6294 0.0184 0.8076   0.124347
 H 0.812 0.1866 0.641   0.089652
 H 0.1156 0.7055 0.4845   0.09487
 H 0.0566 0.8313 0.6405   0.117542
 H 0.4554 0.9816 0.1924   0.124879
 H 0.6396 0.8134 0.359   0.093067
 C 0.89432 0.16893 0.05623   0.134771
 C 0.01804 0.27664 0.83668   0.130902
 C 0.91949 0.38922 0.1282   0.703958
 C 0.94086 0.44668 0.255   0.116882
 C 0.0877 0.4022 0.2288   0.080511
 C 0.1485 0.3467 0.1563   0.143251
 C 0.11948 0.83107 0.94377   0.132434
 C 0.13136 0.72336 0.16332   0.129617
 C 0.43691 0.61078 0.8718   0.700155
 C 0.64254 0.55332 0.745   0.115144
 C 0.7187 0.5978 0.7712   0.080857
 C 0.6515 0.6533 0.8437   0.143488
 C 0.20055 0.44377 0.66893   0.131329
 C 0.10472 0.66332 0.77664   0.128215
 C 0.29769 0.3718 0.88922   0.702712
 C 0.44586 0.245 0.94668   0.117445
 C 0.5665 0.2712 0.9022   0.081791
 C 0.5548 0.3437 0.8467   0.139232
 C 0.31325 0.55623 0.33107   0.134979
 C 0.54468 0.33668 0.22336   0.132604
 C 0.55871 0.6282 0.11078   0.703382
 C 0.63754 0.755 0.05332   0.119004
 C 0.7399 0.7288 0.0978   0.07725
 C 0.7452 0.6563 0.1533   0.1452
 C 0.11948 0.94377 0.83107   0.132417
 C 0.13136 0.16332 0.72336   0.129603
 C 0.43691 0.8718 0.61078   0.70016
 C 0.64254 0.745 0.55332   0.115148
 C 0.7187 0.7712 0.5978   0.080859
 C 0.6515 0.8437 0.6533   0.143485
 C 0.89432 0.05623 0.16893   0.134774
 C 0.01804 0.83668 0.27664   0.130902
 C 0.91949 0.1282 0.38922   0.703921
 C 0.94086 0.255 0.44668   0.116878
 C 0.0877 0.2288 0.4022   0.080515
 C 0.1485 0.1563 0.3467   0.143249
 C 0.31325 0.33107 0.55623   0.134978
 C 0.54468 0.22336 0.33668   0.1326
 C 0.55871 0.11078 0.6282   0.703388
 C 0.63754 0.05332 0.755   0.11901
 C 0.7399 0.0978 0.7288   0.077245
 C 0.7452 0.1533 0.6563   0.145206
 C 0.20055 0.66893 0.44377   0.131335
 C 0.10472 0.77664 0.66332   0.128211
 C 0.29769 0.88922 0.3718   0.702719
 C 0.44586 0.94668 0.245   0.117441
 C 0.5665 0.9022 0.2712   0.081804
 C 0.5548 0.8467 0.3437   0.139232
 C 0.0834 0.124 0.124   0.705109
 C 0.8336 0.1057 0.1057   0.076526
 C 0.3314 0.876 0.876   0.701087
 C 0.045 0.8943 0.8943   0.078872
 C 0.4574 0.376 0.624   0.694374
 C 0.1893 0.3943 0.6057   0.07578
 C 0.4574 0.624 0.376   0.694371
 C 0.1893 0.6057 0.3943   0.075767
 C 0.2165 0.1523 0.8477   0.672714
 C 0.0225 0.2425 0.7575   0.051443
 C 0.2165 0.8477 0.1523   0.672715
 C 0.0225 0.7575 0.2425   0.051436
 C 0.3142 0.6523 0.6523   0.669233
 C 0.03 0.7425 0.7425   0.051066
 C 0.6188 0.3477 0.3477   0.674074
 C 0.515 0.2575 0.2575   0.049316
 N 0.01626 0.17905 0.06543   -0.451907
 N 0.11253 0.23317 0.88077   -0.449561
 N 0.06758 0.3385 0.10614   -0.453119
 N 0.85673 0.44044 0.2049   -0.459417
 N 0.26074 0.82095 0.93457   -0.447447
 N 0.22647 0.76683 0.11923   -0.44838
 N 0.51222 0.6615 0.89386   -0.448889
 N 0.50207 0.55956 0.7951   -0.451124
 N 0.33169 0.43457 0.67905   -0.435535
 N 0.2433 0.61923 0.73317   -0.437594
 N 0.42372 0.39386 0.8385   -0.443083
 N 0.31163 0.2951 0.94044   -0.456657
 N 0.44531 0.56543 0.32095   -0.442118
 N 0.5957 0.38077 0.26683   -0.449698
 N 0.65608 0.60614 0.1615   -0.453378
 N 0.54717 0.7049 0.05956   -0.460096
 N 0.26074 0.93457 0.82095   -0.447444
 N 0.22647 0.11923 0.76683   -0.448374
 N 0.51222 0.89386 0.6615   -0.44888
 N 0.50207 0.7951 0.55956   -0.451132
 N 0.01626 0.06543 0.17905   -0.451909
 N 0.11253 0.88077 0.23317   -0.449553
 N 0.06758 0.10614 0.3385   -0.453111
 N 0.85673 0.2049 0.44044   -0.459405
 N 0.44531 0.32095 0.56543   -0.442123
 N 0.5957 0.26683 0.38077   -0.449694
 N 0.65608 0.1615 0.60614   -0.453388
 N 0.54717 0.05956 0.7049   -0.460106
 N 0.33169 0.67905 0.43457   -0.435523
 N 0.2433 0.73317 0.61923   -0.437591
 N 0.42372 0.8385 0.39386   -0.443104
 N 0.31163 0.94044 0.2951   -0.456657
 O 0.84646 0.3847 0.07898   -0.612454
 O 0.31014 0.6153 0.92102   -0.609714
 O 0.17544 0.42102 0.8847   -0.612737
 O 0.48116 0.57898 0.1153   -0.611227
 O 0.31014 0.92102 0.6153   -0.609717
 O 0.84646 0.07898 0.3847   -0.612432
 O 0.48116 0.1153 0.57898   -0.611228
 O 0.17544 0.8847 0.42102   -0.612725
 O 0.20249 0.12891 0.12891   -0.613129
 O 0.46031 0.87109 0.87109   -0.613
 O 0.5814 0.37109 0.62891   -0.608875
 O 0.5814 0.62891 0.37109   -0.608882
 O 0.3009 0.1089 0.8911   -0.577961
 O 0.3009 0.8911 0.1089   -0.577966
 O 0.442 0.6089 0.6089   -0.573873
 O 0.6598 0.3911 0.3911   -0.57953
 F 0.172 0.41166 0.27754   -0.147998
 F 0.8612 0.58834 0.72246   -0.147122
 F 0.69954 0.22246 0.91166   -0.147862
 F 0.83366 0.77754 0.08834   -0.146459
 F 0.8612 0.72246 0.58834   -0.147122
 F 0.172 0.27754 0.41166   -0.147999
 F 0.83366 0.08834 0.77754   -0.146457
 F 0.69954 0.91166 0.22246   -0.147869
 F 0.7114 0.0952 0.0952   -0.147184
 F 0.9018 0.9048 0.9048   -0.148424
 F 0.0566 0.4048 0.5952   -0.145989
 F 0.0566 0.5952 0.4048   -0.145985
 F 0.9235 0.28602 0.71398   -0.129295
 F 0.9235 0.71398 0.28602   -0.129294
 F 0.88748 0.78602 0.78602   -0.127617
 F 0.45952 0.21398 0.21398   -0.128831
