{'_ref': 'TBD', '_srcid': 'CAKYAQ_clean', 'submitters': [{'name': 'Dalar Nazarian Jeff Camp and David Sholl', 'email': 'dalar@gatech.edu jcamp6@gatech.edu'}], '_method': 'VASP DFT with PBE;DDEC'}
data_Er2CuH2C12(NO3)4
_symmetry_space_group_name_H-M   'P 1'
_cell_length_a   6.94569979
_cell_length_b   19.23070015
_cell_length_c   19.66810000
_cell_angle_alpha   71.65489891
_cell_angle_beta   79.82979880
_cell_angle_gamma   79.59599965
_symmetry_Int_Tables_number   1
_chemical_formula_structural   Er2CuH2C12(NO3)4
_chemical_formula_sum   'Er8 Cu4 H8 C48 N16 O48'
_cell_volume   2432.31572256
_cell_formula_units_Z   4
loop_
 _symmetry_equiv_pos_site_id
 _symmetry_equiv_pos_as_xyz
  1  'x, y, z'
loop_
 _atom_site_label
 _atom_site_fract_x
 _atom_site_fract_y
 _atom_site_fract_z
 _atom_site_charge
 Er 0.83728 0.61991 0.76589   1.53041
 Er 0.76823 0.38235 0.61059   1.551125
 Er 0.22308 0.88009 0.73411   1.530881
 Er 0.76117 0.11765 0.88941   1.551588
 Er 0.16272 0.38009 0.23411   1.530408
 Er 0.23177 0.61765 0.38941   1.551121
 Er 0.77692 0.11991 0.26589   1.530879
 Er 0.23883 0.88235 0.11059   1.551585
 Cu 0.7501 0.48981 0.00235   0.773558
 Cu 0.24226 0.01019 0.49765   0.773288
 Cu 0.2499 0.51019 0.99765   0.773559
 Cu 0.75774 0.98981 0.50235   0.773288
 H 0.8901 0.7321 0.9805   0.158056
 H 0.6824 0.3405 0.8551   0.127796
 H 0.6027 0.7679 0.5195   0.15844
 H 0.878 0.1595 0.6449   0.12786
 H 0.1099 0.2679 0.0195   0.158056
 H 0.3176 0.6595 0.1449   0.127796
 H 0.3973 0.2321 0.4805   0.15844
 H 0.122 0.8405 0.3551   0.12786
 C 0.7817 0.5841 0.0793   0.578888
 C 0.8242 0.6242 0.0026   -0.054969
 C 0.8731 0.6938 0.9636   -0.130916
 C 0.891 0.6914 0.893   0.08131
 C 0.9485 0.7471 0.8215   0.692465
 C 0.6753 0.3534 0.0056   0.590541
 C 0.7091 0.3942 0.9294   -0.045146
 C 0.7074 0.3828 0.8634   -0.100952
 C 0.7493 0.4485 0.8133   0.053965
 C 0.761 0.4754 0.7342   0.724777
 C 0.0843 0.4867 0.5229   0.564331
 C 0.4451 0.9159 0.4207   0.577812
 C 0.451 0.8758 0.4974   -0.053612
 C 0.5305 0.8062 0.5364   -0.131271
 C 0.4754 0.8086 0.607   0.081203
 C 0.5171 0.7529 0.6785   0.693738
 C 0.0343 0.1466 0.4944   0.590573
 C 0.0327 0.1058 0.5706   -0.045381
 C 0.9536 0.1172 0.6366   -0.100827
 C 0.0111 0.0515 0.6867   0.052833
 C 0.9706 0.0246 0.7658   0.723913
 C 0.0939 0.0133 0.9771   0.564826
 C 0.2183 0.4159 0.9207   0.578887
 C 0.1758 0.3758 0.9974   -0.054969
 C 0.1269 0.3062 0.0364   -0.130916
 C 0.109 0.3086 0.107   0.08131
 C 0.0515 0.2529 0.1785   0.692465
 C 0.3247 0.6466 0.9944   0.590541
 C 0.2909 0.6058 0.0706   -0.045146
 C 0.2926 0.6172 0.1366   -0.100952
 C 0.2507 0.5515 0.1867   0.053965
 C 0.239 0.5246 0.2658   0.724776
 C 0.9157 0.5133 0.4771   0.564328
 C 0.5549 0.0841 0.5793   0.577812
 C 0.549 0.1242 0.5026   -0.053612
 C 0.4695 0.1938 0.4636   -0.131272
 C 0.5246 0.1914 0.393   0.081203
 C 0.4829 0.2471 0.3215   0.693738
 C 0.9657 0.8534 0.5056   0.590573
 C 0.9673 0.8942 0.4294   -0.045381
 C 0.0464 0.8828 0.3634   -0.100827
 C 0.9889 0.9485 0.3133   0.052833
 C 0.0294 0.9754 0.2342   0.723913
 C 0.9061 0.9867 0.0229   0.564823
 C 0.892 0.25 0.75   0.49893
 C 0.668 0.25 0.75   0.604535
 C 0.108 0.75 0.25   0.49893
 C 0.332 0.75 0.25   0.604534
 N 0.8205 0.5855 0.9569   -0.13788
 N 0.8595 0.627 0.8886   -0.356945
 N 0.7531 0.4628 0.9168   -0.107855
 N 0.7783 0.4967 0.8463   -0.364786
 N 0.3629 0.9145 0.5431   -0.138657
 N 0.3751 0.873 0.6114   -0.357302
 N 0.1327 0.0372 0.5832   -0.108081
 N 0.1213 0.0033 0.6537   -0.363063
 N 0.1795 0.4145 0.0431   -0.137881
 N 0.1405 0.373 0.1114   -0.356945
 N 0.2469 0.5372 0.0832   -0.107855
 N 0.2217 0.5033 0.1537   -0.364786
 N 0.6371 0.0855 0.4569   -0.138658
 N 0.6249 0.127 0.3886   -0.357302
 N 0.8673 0.9628 0.4168   -0.108081
 N 0.8787 0.9967 0.3463   -0.363063
 O 0.7496 0.5174 0.0904   -0.494391
 O 0.7794 0.6119 0.1273   -0.424209
 O 0.9137 0.7314 0.7676   -0.664066
 O 0.0244 0.8007 0.8215   -0.617861
 O 0.6704 0.3922 0.0494   -0.494397
 O 0.6517 0.2879 0.0271   -0.457681
 O 0.786 0.5423 0.7049   -0.65191
 O 0.7415 0.4316 0.7006   -0.672289
 O 0.9729 0.2979 0.6989   -0.485261
 O 0.5984 0.2922 0.6954   -0.555101
 O 0.0605 0.4355 0.5795   -0.550399
 O 0.2332 0.5203 0.4989   -0.612224
 O 0.3574 0.9826 0.4096   -0.494322
 O 0.5186 0.8881 0.3727   -0.423828
 O 0.4127 0.7686 0.7324   -0.664956
 O 0.6466 0.6993 0.6785   -0.618106
 O 0.112 0.1078 0.4506   -0.493869
 O 0.9667 0.2121 0.4729   -0.458107
 O 0.0332 0.9577 0.7951   -0.651237
 O 0.8737 0.0684 0.7994   -0.672306
 O 0.9697 0.2021 0.8011   -0.484937
 O 0.586 0.2078 0.8046   -0.555244
 O 0.0755 0.0645 0.9205   -0.550708
 O 0.2524 0.9797 0.0011   -0.612585
 O 0.2504 0.4826 0.9096   -0.494391
 O 0.2206 0.3881 0.8727   -0.424209
 O 0.0863 0.2686 0.2324   -0.664065
 O 0.9756 0.1993 0.1785   -0.617861
 O 0.3296 0.6078 0.9506   -0.494397
 O 0.3483 0.7121 0.9729   -0.457681
 O 0.214 0.4577 0.2951   -0.65191
 O 0.2585 0.5684 0.2994   -0.672289
 O 0.0271 0.7021 0.3011   -0.485261
 O 0.4016 0.7078 0.3046   -0.5551
 O 0.9395 0.5645 0.4205   -0.550398
 O 0.7668 0.4797 0.5011   -0.612224
 O 0.6426 0.0174 0.5904   -0.494322
 O 0.4814 0.1119 0.6273   -0.423827
 O 0.5873 0.2314 0.2676   -0.664956
 O 0.3534 0.3007 0.3215   -0.618106
 O 0.888 0.8922 0.5494   -0.493869
 O 0.0333 0.7879 0.5271   -0.458107
 O 0.9668 0.0423 0.2049   -0.651237
 O 0.1263 0.9316 0.2006   -0.672306
 O 0.0303 0.7979 0.1989   -0.484937
 O 0.414 0.7922 0.1954   -0.555243
 O 0.9245 0.9355 0.0795   -0.550707
 O 0.7476 0.0203 0.9989   -0.612585
