{'_ref': 'TBD', '_srcid': 'CAKYAQ_clean', 'submitters': [{'name': 'Dalar Nazarian Jeff Camp and David Sholl', 'email': 'dalar@gatech.edu jcamp6@gatech.edu'}], '_method': 'VASP DFT with PBE;DDEC'}
data_YH3(C3O2)3
_symmetry_space_group_name_H-M   'P 1'
_cell_length_a   10.22300000
_cell_length_b   10.22300000
_cell_length_c   14.49300000
_cell_angle_alpha   90.00000000
_cell_angle_beta   90.00000000
_cell_angle_gamma   90.00000000
_symmetry_Int_Tables_number   1
_chemical_formula_structural   YH3(C3O2)3
_chemical_formula_sum   'Y4 H12 C36 O24'
_cell_volume   1514.6595024
_cell_formula_units_Z   4
loop_
 _symmetry_equiv_pos_site_id
 _symmetry_equiv_pos_as_xyz
  1  'x, y, z'
loop_
 _atom_site_label
 _atom_site_fract_x
 _atom_site_fract_y
 _atom_site_fract_z
 _atom_site_charge
 Y 0.65023 0.65023 0.875   2.108612
 Y 0.34977 0.34977 0.375   2.108612
 Y 0.34977 0.65023 0.125   2.108613
 Y 0.65023 0.34977 0.625   2.108613
 H 0.9416 0.5757 0.1214   0.10778
 H 0.0584 0.4243 0.6214   0.10778
 H 0.4243 0.9416 0.3714   0.10778
 H 0.5757 0.0584 0.8714   0.10778
 H 0.0584 0.5757 0.8786   0.107781
 H 0.9416 0.4243 0.3786   0.107781
 H 0.5757 0.9416 0.6286   0.107781
 H 0.4243 0.0584 0.1286   0.107781
 H 0.6032 0.5 0.25   0.063961
 H 0.3968 0.5 0.75   0.063961
 H 0.5 0.6032 0.5   0.063961
 H 0.5 0.3968 0.0   0.063961
 C 0.755 0.549 0.1714   -0.200731
 C 0.894 0.547 0.1721   0.055006
 C 0.674 0.589 0.093   0.80029
 C 0.245 0.451 0.6714   -0.200731
 C 0.106 0.453 0.6721   0.055006
 C 0.326 0.411 0.593   0.80029
 C 0.451 0.755 0.4214   -0.200731
 C 0.453 0.894 0.4221   0.055006
 C 0.411 0.674 0.343   0.80029
 C 0.549 0.245 0.9214   -0.200731
 C 0.547 0.106 0.9221   0.055006
 C 0.589 0.326 0.843   0.80029
 C 0.245 0.549 0.8286   -0.20073
 C 0.106 0.547 0.8279   0.055005
 C 0.326 0.589 0.907   0.80029
 C 0.755 0.451 0.3286   -0.20073
 C 0.894 0.453 0.3279   0.055005
 C 0.674 0.411 0.407   0.80029
 C 0.549 0.755 0.5786   -0.20073
 C 0.547 0.894 0.5779   0.055005
 C 0.589 0.674 0.657   0.80029
 C 0.451 0.245 0.0786   -0.20073
 C 0.453 0.106 0.0779   0.055005
 C 0.411 0.326 0.157   0.80029
 C 0.694 0.5 0.25   0.039622
 C 0.957 0.5 0.25   -0.211693
 C 0.114 0.5 0.25   0.794221
 C 0.306 0.5 0.75   0.039622
 C 0.043 0.5 0.75   -0.211693
 C 0.886 0.5 0.75   0.794221
 C 0.5 0.694 0.5   0.039622
 C 0.5 0.957 0.5   -0.211693
 C 0.5 0.114 0.5   0.794221
 C 0.5 0.306 0.0   0.039622
 C 0.5 0.043 0.0   -0.211693
 C 0.5 0.886 0.0   0.794221
 O 0.739 0.5948 0.0144   -0.754192
 O 0.561 0.616 0.102   -0.697192
 O 0.1646 0.4221 0.3075   -0.708324
 O 0.261 0.4052 0.5144   -0.754192
 O 0.439 0.384 0.602   -0.697192
 O 0.8354 0.5779 0.8075   -0.708324
 O 0.4052 0.739 0.2644   -0.754192
 O 0.384 0.561 0.352   -0.697192
 O 0.5779 0.1646 0.5575   -0.708324
 O 0.5948 0.261 0.7644   -0.754192
 O 0.616 0.439 0.852   -0.697192
 O 0.4221 0.8354 0.0575   -0.708324
 O 0.261 0.5948 0.9856   -0.754192
 O 0.439 0.616 0.898   -0.697192
 O 0.8354 0.4221 0.6925   -0.708324
 O 0.739 0.4052 0.4856   -0.754192
 O 0.561 0.384 0.398   -0.697192
 O 0.1646 0.5779 0.1925   -0.708324
 O 0.5948 0.739 0.7356   -0.754192
 O 0.616 0.561 0.648   -0.697192
 O 0.4221 0.1646 0.4425   -0.708324
 O 0.4052 0.261 0.2356   -0.754192
 O 0.384 0.439 0.148   -0.697192
 O 0.5779 0.8354 0.9425   -0.708324
