{'_ref': 'TBD', '_srcid': 'CAKYAQ_clean', 'submitters': [{'name': 'Dalar Nazarian Jeff Camp and David Sholl', 'email': 'dalar@gatech.edu jcamp6@gatech.edu'}], '_method': 'VASP DFT with PBE;DDEC'}
data_LaH12(C3O2)3
_symmetry_space_group_name_H-M   'P 1'
_cell_length_a   9.24900001
_cell_length_b   9.80699970
_cell_length_c   10.73000000
_cell_angle_alpha   67.99999841
_cell_angle_beta   84.46999822
_cell_angle_gamma   62.05000036
_symmetry_Int_Tables_number   1
_chemical_formula_structural   LaH12(C3O2)3
_chemical_formula_sum   'La2 H24 C18 O12'
_cell_volume   793.399850166
_cell_formula_units_Z   2
loop_
 _symmetry_equiv_pos_site_id
 _symmetry_equiv_pos_as_xyz
  1  'x, y, z'
loop_
 _atom_site_label
 _atom_site_fract_x
 _atom_site_fract_y
 _atom_site_fract_z
 _atom_site_charge
 La 0.22478 0.04374 0.98423   2.164271
 La 0.77522 0.95626 0.01577   2.16427
 H 0.3623 0.1259 0.3718   0.122214
 H 0.5338 0.9756 0.3773   0.142302
 H 0.6328 0.1621 0.2461   0.064259
 H 0.5764 0.1891 0.3812   0.067519
 H 0.3289 0.4247 0.2648   0.062159
 H 0.3822 0.3967 0.1292   0.064835
 H 0.6009 0.4503 0.1337   0.128802
 H 0.5656 0.4603 0.2764   0.113431
 H 0.8318 0.0961 0.651   0.127931
 H 0.886 0.2292 0.5605   0.131965
 H 0.0866 0.8817 0.6269   0.07043
 H 0.1337 0.0178 0.5312   0.070612
 H 0.6377 0.8741 0.6282   0.122214
 H 0.4662 0.0244 0.6227   0.142303
 H 0.3672 0.8379 0.7539   0.06426
 H 0.4236 0.8109 0.6188   0.067519
 H 0.6711 0.5753 0.7352   0.062159
 H 0.6178 0.6033 0.8708   0.064834
 H 0.3991 0.5497 0.8663   0.128802
 H 0.4344 0.5397 0.7236   0.11343
 H 0.1682 0.9039 0.349   0.127931
 H 0.114 0.7708 0.4395   0.131965
 H 0.9134 0.1183 0.3731   0.07043
 H 0.8663 0.9822 0.4688   0.070613
 C 0.4004 0.0878 0.195   0.820449
 C 0.4564 0.0886 0.3215   -0.360421
 C 0.5378 0.2002 0.2953   -0.071843
 C 0.4226 0.3841 0.2151   -0.073622
 C 0.5141 0.4854 0.1906   -0.322687
 C 0.4079 0.6714 0.1253   0.721977
 C 0.0137 0.0938 0.7486   0.795819
 C 0.9258 0.1159 0.6252   -0.348942
 C 0.0424 0.9943 0.5602   -0.066821
 C 0.5996 0.9122 0.805   0.820449
 C 0.5436 0.9114 0.6785   -0.360422
 C 0.4622 0.7998 0.7047   -0.071843
 C 0.5774 0.6159 0.7849   -0.073622
 C 0.4859 0.5146 0.8094   -0.322687
 C 0.5921 0.3286 0.8747   0.721977
 C 0.9863 0.9062 0.2514   0.795819
 C 0.0742 0.8841 0.3748   -0.348942
 C 0.9576 0.0057 0.4398   -0.066819
 O 0.2519 0.1223 0.1764   -0.727537
 O 0.5005 0.051 0.1099   -0.798048
 O 0.4217 0.7659 0.1727   -0.697045
 O 0.3081 0.7337 0.0225   -0.689695
 O 0.1274 0.1336 0.7338   -0.714304
 O 0.9777 0.0317 0.8655   -0.798011
 O 0.7481 0.8777 0.8236   -0.727537
 O 0.4995 0.949 0.8901   -0.798048
 O 0.5783 0.2341 0.8273   -0.697045
 O 0.6919 0.2663 0.9775   -0.689695
 O 0.8726 0.8664 0.2662   -0.714304
 O 0.0223 0.9683 0.1345   -0.798011
