{'_ref': 'TBD', '_srcid': 'CAKYAQ_clean', 'submitters': [{'name': 'Dalar Nazarian Jeff Camp and David Sholl', 'email': 'dalar@gatech.edu jcamp6@gatech.edu'}], '_method': 'VASP DFT with PBE;DDEC'}
data_LaH12(C3O2)3
_symmetry_space_group_name_H-M   'P 1'
_cell_length_a   9.23900022
_cell_length_b   9.79000023
_cell_length_c   10.70900000
_cell_angle_alpha   68.03999817
_cell_angle_beta   84.49000001
_cell_angle_gamma   62.01000107
_symmetry_Int_Tables_number   1
_chemical_formula_structural   LaH12(C3O2)3
_chemical_formula_sum   'La2 H24 C18 O12'
_cell_volume   789.523041972
_cell_formula_units_Z   2
loop_
 _symmetry_equiv_pos_site_id
 _symmetry_equiv_pos_as_xyz
  1  'x, y, z'
loop_
 _atom_site_label
 _atom_site_fract_x
 _atom_site_fract_y
 _atom_site_fract_z
 _atom_site_charge
 La 0.7753 0.4562 0.0159   2.163297
 La 0.2247 0.5438 0.9841   2.163295
 H 0.113 0.268 0.436   0.130202
 H 0.17 0.402 0.348   0.129587
 H 0.867 0.483 0.468   0.071185
 H 0.915 0.619 0.371   0.070744
 H 0.361 0.619 0.374   0.124983
 H 0.538 0.473 0.374   0.140434
 H 0.634 0.661 0.248   0.067171
 H 0.577 0.687 0.386   0.063984
 H 0.381 0.898 0.128   0.062443
 H 0.325 0.924 0.263   0.061302
 H 0.567 0.958 0.276   0.119903
 H 0.598 0.957 0.125   0.128626
 H 0.887 0.732 0.564   0.130202
 H 0.83 0.598 0.652   0.129587
 H 0.133 0.517 0.532   0.071186
 H 0.085 0.381 0.629   0.070744
 H 0.639 0.381 0.626   0.124984
 H 0.462 0.527 0.626   0.140435
 H 0.366 0.339 0.752   0.067171
 H 0.423 0.313 0.614   0.063985
 H 0.619 0.102 0.872   0.062443
 H 0.675 0.076 0.737   0.061302
 H 0.433 0.042 0.724   0.119903
 H 0.402 0.043 0.875   0.128626
 C 0.9867 0.4053 0.252   0.795682
 C 0.0746 0.3837 0.3748   -0.348322
 C 0.9576 0.5052 0.4398   -0.064951
 C 0.4002 0.588 0.1948   0.820712
 C 0.4564 0.5886 0.3219   -0.364499
 C 0.537 0.7006 0.295   -0.069504
 C 0.4228 0.8839 0.2152   -0.067804
 C 0.5146 0.9852 0.1905   -0.330959
 C 0.4074 0.1712 0.125   0.723009
 C 0.0133 0.5947 0.748   0.795682
 C 0.9254 0.6163 0.6252   -0.348322
 C 0.0424 0.4948 0.5602   -0.06495
 C 0.5998 0.412 0.8052   0.820712
 C 0.5436 0.4114 0.6781   -0.364499
 C 0.463 0.2994 0.705   -0.069504
 C 0.5772 0.1161 0.7848   -0.067804
 C 0.4854 0.0148 0.8095   -0.330959
 C 0.5926 0.8288 0.875   0.723009
 O 0.022 0.4682 0.1346   -0.800102
 O 0.8725 0.3658 0.2663   -0.714482
 O 0.501 0.551 0.1102   -0.800558
 O 0.422 0.2656 0.173   -0.700847
 O 0.2524 0.622 0.1768   -0.725522
 O 0.3085 0.2329 0.0227   -0.685717
 O 0.978 0.5318 0.8654   -0.800102
 O 0.1275 0.6342 0.7337   -0.714482
 O 0.499 0.449 0.8898   -0.800558
 O 0.578 0.7344 0.827   -0.700847
 O 0.7476 0.378 0.8232   -0.725522
 O 0.6915 0.7671 0.9773   -0.685717
