{'_ref': 'TBD', '_srcid': 'CAKYAQ_clean', 'submitters': [{'name': 'Dalar Nazarian Jeff Camp and David Sholl', 'email': 'dalar@gatech.edu jcamp6@gatech.edu'}], '_method': 'VASP DFT with PBE;DDEC'}
data_NpC2O5
_symmetry_space_group_name_H-M   'P 1'
_cell_length_a   11.38200000
_cell_length_b   11.38199987
_cell_length_c   11.73400000
_cell_angle_alpha   90.00000000
_cell_angle_beta   90.00000000
_cell_angle_gamma   120.00000037
_symmetry_Int_Tables_number   1
_chemical_formula_structural   NpC2O5
_chemical_formula_sum   'Np6 C12 O30'
_cell_volume   1316.47880571
_cell_formula_units_Z   6
loop_
 _symmetry_equiv_pos_site_id
 _symmetry_equiv_pos_as_xyz
  1  'x, y, z'
loop_
 _atom_site_label
 _atom_site_fract_x
 _atom_site_fract_y
 _atom_site_fract_z
 _atom_site_charge
 Np 0.50744 0.89648 0.75   2.234102
 Np 0.38904 0.49256 0.75   2.234102
 Np 0.10352 0.61096 0.75   2.234101
 Np 0.49256 0.10352 0.25   2.234102
 Np 0.61096 0.50744 0.25   2.234101
 Np 0.89648 0.38904 0.25   2.2341
 C 0.4993 0.9369 0.4756   0.547321
 C 0.4376 0.5007 0.4756   0.547321
 C 0.0631 0.5624 0.4756   0.547321
 C 0.5007 0.0631 0.9756   0.547321
 C 0.5624 0.4993 0.9756   0.547321
 C 0.9369 0.4376 0.9756   0.547321
 C 0.5007 0.0631 0.5244   0.547322
 C 0.5624 0.4993 0.5244   0.547322
 C 0.9369 0.4376 0.5244   0.547321
 C 0.4993 0.9369 0.0244   0.547322
 C 0.4376 0.5007 0.0244   0.547322
 C 0.0631 0.5624 0.0244   0.547321
 O 0.5043 0.856 0.5442   -0.593341
 O 0.5101 0.076 0.6316   -0.578662
 O 0.3517 0.4957 0.5442   -0.593341
 O 0.5659 0.4899 0.6316   -0.578662
 O 0.144 0.6483 0.5442   -0.59334
 O 0.924 0.4341 0.6316   -0.578662
 O 0.4957 0.144 0.0442   -0.593341
 O 0.4899 0.924 0.1316   -0.578662
 O 0.6483 0.5043 0.0442   -0.593341
 O 0.4341 0.5101 0.1316   -0.578662
 O 0.856 0.3517 0.0442   -0.59334
 O 0.076 0.5659 0.1316   -0.578662
 O 0.4957 0.144 0.4558   -0.59334
 O 0.4899 0.924 0.3684   -0.578662
 O 0.6483 0.5043 0.4558   -0.59334
 O 0.4341 0.5101 0.3684   -0.578662
 O 0.856 0.3517 0.4558   -0.59334
 O 0.076 0.5659 0.3684   -0.578662
 O 0.5043 0.856 0.9558   -0.59334
 O 0.5101 0.076 0.8684   -0.578662
 O 0.3517 0.4957 0.9558   -0.59334
 O 0.5659 0.4899 0.8684   -0.578662
 O 0.144 0.6483 0.9558   -0.59334
 O 0.924 0.4341 0.8684   -0.578662
 O 0.3166 0.8129 0.75   -0.984738
 O 0.4963 0.6834 0.75   -0.984738
 O 0.1871 0.5037 0.75   -0.984738
 O 0.6834 0.1871 0.25   -0.984738
 O 0.5037 0.3166 0.25   -0.984738
 O 0.8129 0.4963 0.25   -0.984738
