{'_ref': 'TBD', '_srcid': 'CAKYAQ_clean', 'submitters': [{'name': 'Dalar Nazarian Jeff Camp and David Sholl', 'email': 'dalar@gatech.edu jcamp6@gatech.edu'}], '_method': 'VASP DFT with PBE;DDEC'}
data_Pr2H9C24(NO6)3
_symmetry_space_group_name_H-M   'P 1'
_cell_length_a   13.78660033
_cell_length_b   13.78659955
_cell_length_c   16.52200000
_cell_angle_alpha   67.08739921
_cell_angle_beta   67.08740057
_cell_angle_gamma   75.50610038
_symmetry_Int_Tables_number   1
_chemical_formula_structural   Pr2H9C24(NO6)3
_chemical_formula_sum   'Pr4 H18 C48 N6 O36'
_cell_volume   2646.25340977
_cell_formula_units_Z   2
loop_
 _symmetry_equiv_pos_site_id
 _symmetry_equiv_pos_as_xyz
  1  'x, y, z'
loop_
 _atom_site_label
 _atom_site_fract_x
 _atom_site_fract_y
 _atom_site_fract_z
 _atom_site_charge
 Pr 0.83158 0.546 0.50254   2.148133
 Pr 0.454 0.16842 0.99746   2.148132
 Pr 0.16842 0.454 0.49746   2.148133
 Pr 0.546 0.83158 0.00254   2.148132
 H 0.9133 0.4521 0.286   0.105616
 H 0.078 0.3476 0.068   0.122333
 H 0.2222 0.3406 0.2405   0.120424
 H 0.9201 0.8743 0.3467   0.123235
 H 0.5479 0.0867 0.214   0.105616
 H 0.6524 0.922 0.432   0.12233
 H 0.6594 0.7778 0.2595   0.120424
 H 0.1257 0.0799 0.1533   0.123235
 H 0.0867 0.5479 0.714   0.105616
 H 0.922 0.6524 0.932   0.122333
 H 0.7778 0.6594 0.7595   0.120424
 H 0.0799 0.1257 0.6533   0.123235
 H 0.4521 0.9133 0.786   0.105616
 H 0.3476 0.078 0.568   0.12233
 H 0.3406 0.2222 0.7405   0.120424
 H 0.8743 0.9201 0.8467   0.123235
 H 0.2291 0.7709 0.25   0.10602
 H 0.7709 0.2291 0.75   0.10602
 C 0.0658 0.4258 0.3581   0.803782
 C 0.0679 0.4023 0.2757   -0.182683
 C 0.977 0.4238 0.2512   0.001598
 C 0.9828 0.4024 0.1742   -0.0314
 C 0.076 0.36 0.1201   0.01219
 C 0.1664 0.3366 0.1458   -0.136021
 C 0.1619 0.3571 0.2232   0.033664
 C 0.266 0.2854 0.0899   0.675462
 C 0.0494 0.694 0.376   0.807532
 C 0.0714 0.8052 0.3104   -0.163519
 C 0.9893 0.8871 0.3088   -0.002811
 C 0.5742 0.9342 0.1419   0.803782
 C 0.5977 0.9321 0.2243   -0.182683
 C 0.5762 0.023 0.2488   0.001599
 C 0.5976 0.0172 0.3258   -0.031404
 C 0.64 0.924 0.3799   0.012203
 C 0.6634 0.8336 0.3542   -0.136025
 C 0.6429 0.8381 0.2768   0.033662
 C 0.7146 0.734 0.4101   0.675457
 C 0.306 0.9506 0.124   0.807532
 C 0.1948 0.9286 0.1896   -0.16352
 C 0.1129 0.0107 0.1912   -0.002811
 C 0.9342 0.5742 0.6419   0.803782
 C 0.9321 0.5977 0.7243   -0.182683
 C 0.023 0.5762 0.7488   0.001598
 C 0.0172 0.5976 0.8258   -0.0314
 C 0.924 0.64 0.8799   0.01219
 C 0.8336 0.6634 0.8542   -0.136021
 C 0.8381 0.6429 0.7768   0.033664
 C 0.734 0.7146 0.9101   0.675462
 C 0.9506 0.306 0.624   0.807532
 C 0.9286 0.1948 0.6896   -0.16352
 C 0.0107 0.1129 0.6912   -0.002811
 C 0.4258 0.0658 0.8581   0.803782
 C 0.4023 0.0679 0.7757   -0.182683
 C 0.4238 0.977 0.7512   0.001599
 C 0.4024 0.9828 0.6742   -0.031404
 C 0.36 0.076 0.6201   0.012203
 C 0.3366 0.1664 0.6458   -0.136025
 C 0.3571 0.1619 0.7232   0.033662
 C 0.2854 0.266 0.5899   0.675457
 C 0.694 0.0494 0.876   0.807532
 C 0.8052 0.0714 0.8104   -0.16352
 C 0.8871 0.9893 0.8088   -0.002811
 C 0.174 0.826 0.25   0.033557
 C 0.0122 0.9878 0.25   -0.041849
 C 0.826 0.174 0.75   0.033557
 C 0.9878 0.0122 0.75   -0.041849
 N 0.8876 0.4244 0.1477   0.61332
 N 0.5756 0.1124 0.3523   0.61332
 N 0.1124 0.5756 0.8523   0.61332
 N 0.4244 0.8876 0.6477   0.61332
 N 0.9251 0.0749 0.25   0.598955
 N 0.0749 0.9251 0.75   0.598955
 O 0.8016 0.4418 0.205   -0.381176
 O 0.8974 0.4242 0.0714   -0.366603
 O 0.97869 0.46709 0.4025   -0.800878
 O 0.15033 0.40533 0.3759   -0.676834
 O 0.3446 0.2524 0.1202   -0.711117
 O 0.2683 0.2759 0.017   -0.632443
 O 0.95371 0.67831 0.4127   -0.694736
 O 0.12703 0.62803 0.3889   -0.76931
 O 0.8331 0.0531 0.2905   -0.366096
 O 0.5582 0.1984 0.295   -0.381177
 O 0.5758 0.1026 0.4286   -0.366604
 O 0.53291 0.02131 0.0975   -0.800878
 O 0.59467 0.84967 0.1241   -0.676834
 O 0.7476 0.6554 0.3798   -0.711116
 O 0.7241 0.7317 0.483   -0.63244
 O 0.32169 0.04629 0.0873   -0.694736
 O 0.37197 0.87297 0.1111   -0.76931
 O 0.9469 0.1669 0.2095   -0.366098
 O 0.1984 0.5582 0.795   -0.381176
 O 0.1026 0.5758 0.9286   -0.366603
 O 0.02131 0.53291 0.5975   -0.800878
 O 0.84967 0.59467 0.6241   -0.676834
 O 0.6554 0.7476 0.8798   -0.711117
 O 0.7317 0.7241 0.983   -0.632443
 O 0.04629 0.32169 0.5873   -0.694736
 O 0.87297 0.37197 0.6111   -0.76931
 O 0.1669 0.9469 0.7095   -0.366096
 O 0.4418 0.8016 0.705   -0.381177
 O 0.4242 0.8974 0.5714   -0.366604
 O 0.46709 0.97869 0.9025   -0.800878
 O 0.40533 0.15033 0.8759   -0.676834
 O 0.2524 0.3446 0.6202   -0.711116
 O 0.2759 0.2683 0.517   -0.63244
 O 0.67831 0.95371 0.9127   -0.694736
 O 0.62803 0.12703 0.8889   -0.76931
 O 0.0531 0.8331 0.7905   -0.366098
