{'_ref': 'TBD', '_srcid': 'CAKYAQ_clean', 'submitters': [{'name': 'Dalar Nazarian Jeff Camp and David Sholl', 'email': 'dalar@gatech.edu jcamp6@gatech.edu'}], '_method': 'VASP DFT with PBE;DDEC'}
data_ZnH10C16NO4
_symmetry_space_group_name_H-M   'P 1'
_cell_length_a   10.85370000
_cell_length_b   10.85369988
_cell_length_c   18.34000000
_cell_angle_alpha   90.00000000
_cell_angle_beta   90.00000000
_cell_angle_gamma   116.47999848
_symmetry_Int_Tables_number   1
_chemical_formula_structural   ZnH10C16NO4
_chemical_formula_sum   'Zn4 H40 C64 N4 O16'
_cell_volume   1933.84513869
_cell_formula_units_Z   4
loop_
 _symmetry_equiv_pos_site_id
 _symmetry_equiv_pos_as_xyz
  1  'x, y, z'
loop_
 _atom_site_label
 _atom_site_fract_x
 _atom_site_fract_y
 _atom_site_fract_z
 _atom_site_charge
 Zn 0.66877 0.33123 0.75   0.922378
 Zn 0.83123 0.16877 0.75   0.922377
 Zn 0.33123 0.66877 0.25   0.922378
 Zn 0.16877 0.83123 0.25   0.922377
 H 0.383 0.0942 0.9328   0.08889
 H 0.6937 0.9909 0.9507   0.107515
 H 0.4191 0.3237 0.8216   0.087564
 H 0.2813 0.4397 0.8182   0.13416
 H 0.135 0.5082 0.7519   0.109542
 H 0.117 0.4058 0.9328   0.088889
 H 0.8063 0.5091 0.9507   0.107514
 H 0.0809 0.1763 0.8216   0.087563
 H 0.2187 0.0603 0.8182   0.134159
 H 0.365 0.9918 0.7519   0.109542
 H 0.9058 0.617 0.5672   0.08889
 H 0.0091 0.3063 0.5493   0.107514
 H 0.6763 0.5809 0.6784   0.087563
 H 0.5603 0.7187 0.6818   0.13416
 H 0.4918 0.865 0.7481   0.109541
 H 0.5942 0.883 0.5672   0.088889
 H 0.4909 0.1937 0.5493   0.107514
 H 0.8237 0.9191 0.6784   0.087563
 H 0.9397 0.7813 0.6818   0.134159
 H 0.0082 0.635 0.7481   0.109541
 H 0.617 0.9058 0.0672   0.088889
 H 0.3063 0.0091 0.0493   0.107513
 H 0.5809 0.6763 0.1784   0.087563
 H 0.7187 0.5603 0.1818   0.13416
 H 0.865 0.4918 0.2481   0.109542
 H 0.883 0.5942 0.0672   0.088888
 H 0.1937 0.4909 0.0493   0.107513
 H 0.9191 0.8237 0.1784   0.087563
 H 0.7813 0.9397 0.1818   0.134159
 H 0.635 0.0082 0.2481   0.109542
 H 0.0942 0.383 0.4328   0.088889
 H 0.9909 0.6937 0.4507   0.107513
 H 0.3237 0.4191 0.3216   0.087563
 H 0.4397 0.2813 0.3182   0.13416
 H 0.5082 0.135 0.2519   0.109541
 H 0.4058 0.117 0.4328   0.088888
 H 0.5091 0.8063 0.4507   0.107512
 H 0.1763 0.0809 0.3216   0.087563
 H 0.0603 0.2187 0.3182   0.134159
 H 0.9918 0.365 0.2519   0.109541
 C 0.6007 0.1131 0.857   0.670234
 C 0.5466 0.0532 0.9304   -0.107493
 C 0.4325 0.0557 0.9604   -0.067092
 C 0.6141 0.9957 0.9705   -0.064982
 C 0.446 0.403 0.7908   0.155285
 C 0.365 0.474 0.7905   -0.21394
 C 0.1821 0.6069 0.7506   -0.096186
 C 0.8993 0.3869 0.857   0.670234
 C 0.9534 0.4468 0.9304   -0.107493
 C 0.0675 0.4443 0.9604   -0.067091
 C 0.8859 0.5043 0.9705   -0.064981
 C 0.054 0.097 0.7908   0.155285
 C 0.135 0.026 0.7905   -0.21394
 C 0.3179 0.8931 0.7506   -0.096185
 C 0.8869 0.3993 0.643   0.670234
 C 0.9468 0.4534 0.5696   -0.107493
 C 0.9443 0.5675 0.5396   -0.067092
 C 0.0043 0.3859 0.5295   -0.064982
 C 0.597 0.554 0.7092   0.155286
 C 0.526 0.635 0.7095   -0.21394
 C 0.3931 0.8179 0.7494   -0.096174
 C 0.6131 0.1007 0.643   0.670233
 C 0.5532 0.0466 0.5696   -0.107493
 C 0.5557 0.9325 0.5396   -0.067091
 C 0.4957 0.1141 0.5295   -0.064981
 C 0.903 0.946 0.7092   0.155286
 C 0.974 0.865 0.7095   -0.21394
 C 0.1069 0.6821 0.7494   -0.096174
 C 0.3993 0.8869 0.143   0.670234
 C 0.4534 0.9468 0.0696   -0.107496
 C 0.5675 0.9443 0.0396   -0.067085
 C 0.3859 0.0043 0.0295   -0.064974
 C 0.554 0.597 0.2092   0.155285
 C 0.635 0.526 0.2095   -0.21394
 C 0.8179 0.3931 0.2494   -0.096186
 C 0.1007 0.6131 0.143   0.670234
 C 0.0466 0.5532 0.0696   -0.107496
 C 0.9325 0.5557 0.0396   -0.067084
 C 0.1141 0.4957 0.0295   -0.064974
 C 0.946 0.903 0.2092   0.155285
 C 0.865 0.974 0.2095   -0.213939
 C 0.6821 0.1069 0.2494   -0.096185
 C 0.1131 0.6007 0.357   0.670234
 C 0.0532 0.5466 0.4304   -0.107496
 C 0.0557 0.4325 0.4604   -0.067085
 C 0.9957 0.6141 0.4705   -0.064974
 C 0.403 0.446 0.2908   0.155286
 C 0.474 0.365 0.2905   -0.21394
 C 0.6069 0.1821 0.2506   -0.096174
 C 0.3869 0.8993 0.357   0.670234
 C 0.4468 0.9534 0.4304   -0.107496
 C 0.4443 0.0675 0.4604   -0.067084
 C 0.5043 0.8859 0.4705   -0.064974
 C 0.097 0.054 0.2908   0.155286
 C 0.026 0.135 0.2905   -0.21394
 C 0.8931 0.3179 0.2506   -0.096174
 C 0.4061 0.5939 0.75   0.14931
 C 0.326 0.674 0.75   0.009387
 C 0.0939 0.9061 0.75   0.14931
 C 0.174 0.826 0.75   0.009387
 C 0.5939 0.4061 0.25   0.14931
 C 0.674 0.326 0.25   0.009387
 C 0.9061 0.0939 0.25   0.14931
 C 0.826 0.174 0.25   0.009387
 N 0.5588 0.4412 0.75   -0.298499
 N 0.9412 0.0588 0.75   -0.2985
 N 0.4412 0.5588 0.25   -0.298499
 N 0.0588 0.9412 0.25   -0.2985
 O 0.55202 0.18638 0.82691   -0.595277
 O 0.69392 0.08568 0.83086   -0.599517
 O 0.94798 0.31362 0.82691   -0.595278
 O 0.80608 0.41432 0.83086   -0.599517
 O 0.81362 0.44798 0.67309   -0.595277
 O 0.91432 0.30608 0.66914   -0.599516
 O 0.68638 0.05202 0.67309   -0.595278
 O 0.58568 0.19392 0.66914   -0.599517
 O 0.44798 0.81362 0.17309   -0.595278
 O 0.30608 0.91432 0.16914   -0.599517
 O 0.05202 0.68638 0.17309   -0.595278
 O 0.19392 0.58568 0.16914   -0.599517
 O 0.18638 0.55202 0.32691   -0.595278
 O 0.08568 0.69392 0.33086   -0.599517
 O 0.31362 0.94798 0.32691   -0.595278
 O 0.41432 0.80608 0.33086   -0.599517
