{'_ref': 'TBD', '_srcid': 'CAKYAQ_clean', 'submitters': [{'name': 'Dalar Nazarian Jeff Camp and David Sholl', 'email': 'dalar@gatech.edu jcamp6@gatech.edu'}], '_method': 'VASP DFT with PBE;DDEC'}
data_Ce(CO)6
_symmetry_space_group_name_H-M   'P 1'
_cell_length_a   8.30400036
_cell_length_b   8.72799991
_cell_length_c   9.17700000
_cell_angle_alpha   95.58999688
_cell_angle_beta   115.69999852
_cell_angle_gamma   110.26000241
_symmetry_Int_Tables_number   1
_chemical_formula_structural   Ce(CO)6
_chemical_formula_sum   'Ce2 C12 O12'
_cell_volume   537.593868906
_cell_formula_units_Z   2
loop_
 _symmetry_equiv_pos_site_id
 _symmetry_equiv_pos_as_xyz
  1  'x, y, z'
loop_
 _atom_site_label
 _atom_site_fract_x
 _atom_site_fract_y
 _atom_site_fract_z
 _atom_site_charge
 Ce 0.91962 0.99195 0.73179   2.327463
 Ce 0.08038 0.00805 0.26821   2.327471
 C 0.3279 0.9958 0.1075   0.79069
 C 0.4534 0.9999 0.0329   -0.112796
 C 0.149 0.4453 0.8902   0.770938
 C 0.3308 0.5754 0.0399   -0.068323
 C 0.4781 0.6745 0.1657   -0.195505
 C 0.6552 0.79 0.3236   0.893796
 C 0.6721 0.0042 0.8925   0.790664
 C 0.5466 0.000100000000003 0.9671   -0.112621
 C 0.851 0.5547 0.1098   0.770933
 C 0.6692 0.4246 0.9601   -0.068326
 C 0.5219 0.3255 0.8343   -0.195508
 C 0.3448 0.21 0.6764   0.893795
 O 0.1536 0.9752 0.0111   -0.821628
 O 0.3943 0.0122 0.2622   -0.620677
 O 0.0894 0.2972 0.9061   -0.778744
 O 0.071 0.4873 0.7629   -0.597996
 O 0.6367 0.8025 0.451   -0.726072
 O 0.8109 0.8688 0.3227   -0.861219
 O 0.8464 0.0248 0.9889   -0.821629
 O 0.6057 0.9878 0.7378   -0.620676
 O 0.9106 0.7028 0.0939   -0.778744
 O 0.929 0.5127 0.2371   -0.597995
 O 0.3633 0.1975 0.549   -0.726072
 O 0.1891 0.1312 0.6773   -0.861218
