{'_ref': 'TBD', '_srcid': 'CAKYAQ_clean', 'submitters': [{'name': 'Dalar Nazarian Jeff Camp and David Sholl', 'email': 'dalar@gatech.edu jcamp6@gatech.edu'}], '_method': 'VASP DFT with PBE;DDEC'}
data_CdH21C27(NO)5
_symmetry_space_group_name_H-M   'P 1'
_cell_length_a   11.20290000
_cell_length_b   21.07470037
_cell_length_c   21.07470000
_cell_angle_alpha   119.99999943
_cell_angle_beta   90.00000000
_cell_angle_gamma   90.00000000
_symmetry_Int_Tables_number   1
_chemical_formula_structural   CdH21C27(NO)5
_chemical_formula_sum   'Cd6 H126 C162 N30 O30'
_cell_volume   4309.07351435
_cell_formula_units_Z   6
loop_
 _symmetry_equiv_pos_site_id
 _symmetry_equiv_pos_as_xyz
  1  'x, y, z'
loop_
 _atom_site_label
 _atom_site_fract_x
 _atom_site_fract_y
 _atom_site_fract_z
 _atom_site_charge
 Cd 0.93919 0.429 0.97637   0.950812
 Cd 0.60586 0.54737 0.571   0.950817
 Cd 0.27252 0.02363 0.45263   0.95086
 Cd 0.43919 0.571 0.02363   0.950812
 Cd 0.10586 0.45263 0.429   0.950817
 Cd 0.77252 0.97637 0.54737   0.95086
 H 0.841 0.8444 0.0879   0.127416
 H 0.0281 0.7927 0.0637   0.123244
 H 0.0529 0.6746 0.0375   0.101877
 H 0.6214 0.7819 0.984   0.096215
 H 0.4268 0.8206 0.9969   0.162052
 H 0.4212 0.8365 0.1938   0.141818
 H 0.6057 0.7945 0.1751   0.092166
 H 0.6705 0.3923 0.9   0.106811
 H 0.6145 0.2999 0.7762   0.110217
 H 0.9618 0.2975 0.7938   0.089691
 H 0.7499 0.1832 0.6707   0.098278
 H 0.8832 0.2052 0.6695   0.116567
 H 0.6899 0.1588 0.5535   0.099471
 H 0.6504 0.1975 0.4706   0.087904
 H 0.7892 0.3937 0.6106   0.103996
 H 0.8304 0.356 0.6919   0.092685
 H 0.6438 0.2915 0.4387   0.100899
 H 0.6646 0.3729 0.5006   0.102599
 H 0.8482 0.219 0.3657   0.126805
 H 0.0276 0.2665 0.3405   0.105856
 H 0.8537 0.4324 0.495   0.092855
 H 0.50767 0.2435 0.1556   0.127402
 H 0.69477 0.271 0.2073   0.123214
 H 0.71957 0.3629 0.3254   0.101821
 H 0.28807 0.2021 0.2181   0.096224
 H 0.09347 0.1763 0.1794   0.161996
 H 0.08787 0.3573 0.1635   0.141855
 H 0.27237 0.3806 0.2055   0.092114
 H 0.33717 0.5077 0.6077   0.106774
 H 0.28117 0.4763 0.7001   0.110258
 H 0.62847 0.4963 0.7025   0.089727
 H 0.41657 0.4875 0.8168   0.098273
 H 0.54987 0.4643 0.7948   0.116567
 H 0.35657 0.3947 0.8412   0.099465
 H 0.31707 0.2731 0.8025   0.087898
 H 0.45587 0.2169 0.6063   0.104043
 H 0.49707 0.3359 0.644   0.092667
 H 0.31047 0.1472 0.7085   0.100938
 H 0.33127 0.1277 0.6271   0.102621
 H 0.51487 0.1467 0.781   0.126829
 H 0.69427 0.074 0.7335   0.105839
 H 0.52037 0.0626 0.5676   0.092838
 H 0.17433 0.9121 0.7565   0.127399
 H 0.36143 0.9363 0.729   0.12326
 H 0.38623 0.9625 0.6371   0.101805
 H 0.95473 0.016 0.7979   0.096246
 H 0.76013 0.0031 0.8237   0.162034
 H 0.75453 0.8062 0.6427   0.14189
 H 0.93903 0.8249 0.6194   0.092179
 H 0.00383 0.1 0.4923   0.106784
 H 0.94783 0.2238 0.5237   0.110253
 H 0.29513 0.2062 0.5037   0.089689
 H 0.08323 0.3293 0.5125   0.09826
 H 0.21653 0.3305 0.5357   0.116607
 H 0.02323 0.4465 0.6053   0.099442
 H 0.98373 0.5294 0.7269   0.087846
 H 0.12253 0.3894 0.7831   0.1039
 H 0.16373 0.3081 0.6641   0.092681
 H 0.97713 0.5613 0.8528   0.100896
 H 0.99793 0.4994 0.8723   0.102565
 H 0.18153 0.6343 0.8533   0.126757
 H 0.36093 0.6595 0.926   0.105885
 H 0.18703 0.505 0.9374   0.092853
 H 0.341 0.1556 0.9121   0.127407
 H 0.5281 0.2073 0.9363   0.123241
 H 0.5529 0.3254 0.9625   0.101877
 H 0.1214 0.2181 0.016   0.096215
 H 0.9268 0.1794 0.0031   0.162047
 H 0.9212 0.1635 0.8062   0.141819
 H 0.1057 0.2055 0.8249   0.092163
 H 0.1705 0.6077 0.1   0.106811
 H 0.1145 0.7001 0.2238   0.110216
 H 0.4618 0.7025 0.2062   0.089689
 H 0.2499 0.8168 0.3293   0.098278
 H 0.3832 0.7948 0.3305   0.116566
 H 0.1899 0.8412 0.4465   0.099471
 H 0.1504 0.8025 0.5294   0.087904
 H 0.2892 0.6063 0.3894   0.103996
 H 0.3304 0.644 0.3081   0.092685
 H 0.1438 0.7085 0.5613   0.100898
 H 0.1646 0.6271 0.4994   0.102599
 H 0.3482 0.781 0.6343   0.126805
 H 0.5276 0.7335 0.6595   0.105858
 H 0.3537 0.5676 0.505   0.092855
 H 0.00767 0.7565 0.8444   0.127393
 H 0.19477 0.729 0.7927   0.12321
 H 0.21957 0.6371 0.6746   0.101822
 H 0.78807 0.7979 0.7819   0.096224
 H 0.59347 0.8237 0.8206   0.161992
 H 0.58787 0.6427 0.8365   0.141856
 H 0.77237 0.6194 0.7945   0.092111
 H 0.83717 0.4923 0.3923   0.106774
 H 0.78117 0.5237 0.2999   0.110258
 H 0.12847 0.5037 0.2975   0.089725
 H 0.91657 0.5125 0.1832   0.098273
 H 0.04987 0.5357 0.2052   0.116566
 H 0.85657 0.6053 0.1588   0.099465
 H 0.81707 0.7269 0.1975   0.087899
 H 0.95587 0.7831 0.3937   0.104043
 H 0.99707 0.6641 0.356   0.092667
 H 0.81047 0.8528 0.2915   0.100936
 H 0.83127 0.8723 0.3729   0.102621
 H 0.01487 0.8533 0.219   0.126829
 H 0.19427 0.926 0.2665   0.10584
 H 0.02037 0.9374 0.4324   0.092839
 H 0.67433 0.0879 0.2435   0.127391
 H 0.86143 0.0637 0.271   0.123256
 H 0.88623 0.0375 0.3629   0.101805
 H 0.45473 0.984 0.2021   0.096246
 H 0.26013 0.9969 0.1763   0.16203
 H 0.25453 0.1938 0.3573   0.141891
 H 0.43903 0.1751 0.3806   0.092176
 H 0.50383 0.9 0.5077   0.106784
 H 0.44783 0.7762 0.4763   0.110253
 H 0.79513 0.7938 0.4963   0.089688
 H 0.58323 0.6707 0.4875   0.09826
 H 0.71653 0.6695 0.4643   0.116606
 H 0.52323 0.5535 0.3947   0.099442
 H 0.48373 0.4706 0.2731   0.087846
 H 0.62253 0.6106 0.2169   0.1039
 H 0.66373 0.6919 0.3359   0.092681
 H 0.47713 0.4387 0.1472   0.100895
 H 0.49793 0.5006 0.1277   0.102564
 H 0.68153 0.3657 0.1467   0.126758
 H 0.86093 0.3405 0.074   0.105886
 H 0.68703 0.495 0.0626   0.092853
 C 0.895 0.5711 0.0132   0.602503
 C 0.6529 0.6366 0.0385   0.647249
 C 0.8789 0.65 0.0349   -0.094761
 C 0.7634 0.6796 0.0465   -0.103926
 C 0.7524 0.7533 0.0663   0.081868
 C 0.8502 0.7952 0.0739   -0.147305
 C 0.9619 0.7648 0.0608   -0.07184
 C 0.9763 0.6939 0.0436   -0.062552
 C 0.5796 0.7922 0.0263   0.046105
 C 0.4617 0.8155 0.0342   -0.311811
 C 0.3932 0.8316 0.0964   0.466221
 C 0.4581 0.8242 0.1495   -0.304022
 C 0.5693 0.8005 0.1388   0.03303
 C 0.7231 0.3619 0.8631   0.057492
 C 0.6916 0.3111 0.7949   -0.160765
 C 0.8821 0.3105 0.8053   0.140354
 C 0.8021 0.2238 0.6805   -0.057185
 C 0.7691 0.2524 0.6313   0.027716
 C 0.7117 0.2058 0.5646   -0.095114
 C 0.6872 0.2293 0.5149   -0.102361
 C 0.7169 0.2993 0.5305   0.014128
 C 0.7704 0.346 0.5986   -0.119621
 C 0.7953 0.3235 0.6473   -0.126345
 C 0.6993 0.3242 0.4761   -0.055135
 C 0.8714 0.2679 0.3887   -0.158329
 C 0.9704 0.2943 0.3754   0.055128
 C 0.8757 0.3852 0.4598   0.150826
 C 0.56167 0.4421 0.4289   0.60239
 C 0.31957 0.4019 0.3634   0.647233
 C 0.54557 0.3849 0.35   -0.094774
 C 0.43007 0.3669 0.3204   -0.103923
 C 0.41907 0.313 0.2467   0.081836
 C 0.51687 0.2787 0.2048   -0.147246
 C 0.62857 0.296 0.2352   -0.071844
 C 0.64297 0.3497 0.3061   -0.062466
 C 0.24627 0.2341 0.2078   0.04617
 C 0.12837 0.2187 0.1845   -0.311813
 C 0.05987 0.2648 0.1684   0.466332
 C 0.12477 0.3253 0.1758   -0.304254
 C 0.23597 0.3383 0.1995   0.033273
 C 0.38977 0.5012 0.6381   0.057628
 C 0.35827 0.4838 0.6889   -0.160844
 C 0.54877 0.4948 0.6895   0.140302
 C 0.46877 0.4567 0.7762   -0.057183
 C 0.43577 0.3789 0.7476   0.027663
 C 0.37837 0.3588 0.7942   -0.09506
 C 0.35387 0.2856 0.7707   -0.102348
 C 0.38357 0.2312 0.7007   0.014112
 C 0.43707 0.2526 0.654   -0.119688
 C 0.46197 0.3238 0.6765   -0.126282
 C 0.36597 0.1519 0.6758   -0.055248
 C 0.53807 0.1208 0.7321   -0.158383
 C 0.63707 0.0811 0.7057   0.055238
 C 0.54237 0.0746 0.6148   0.150877
 C 0.22833 0.9868 0.5579   0.602445
 C 0.98623 0.9615 0.5981   0.647496
 C 0.21223 0.9651 0.6151   -0.094693
 C 0.09673 0.9535 0.6331   -0.104084
 C 0.08573 0.9337 0.687   0.081924
 C 0.18353 0.9261 0.7213   -0.147256
 C 0.29523 0.9392 0.704   -0.071923
 C 0.30963 0.9564 0.6503   -0.06244
 C 0.91293 0.9737 0.7659   0.046077
 C 0.79503 0.9658 0.7813   -0.311842
 C 0.72653 0.9036 0.7352   0.466342
 C 0.79143 0.8505 0.6747   -0.304148
 C 0.90263 0.8612 0.6617   0.033003
 C 0.05643 0.1369 0.4988   0.05756
 C 0.02493 0.2051 0.5162   -0.160763
 C 0.21543 0.1947 0.5052   0.140454
 C 0.13543 0.3195 0.5433   -0.057173
 C 0.10243 0.3687 0.6211   0.027724
 C 0.04503 0.4354 0.6412   -0.095096
 C 0.02053 0.4851 0.7144   -0.102302
 C 0.05023 0.4695 0.7688   0.014119
 C 0.10373 0.4014 0.7474   -0.119497
 C 0.12863 0.3527 0.6762   -0.126373
 C 0.03263 0.5239 0.8481   -0.05516
 C 0.20473 0.6113 0.8792   -0.158269
 C 0.30373 0.6246 0.9189   0.05512
 C 0.20903 0.5402 0.9254   0.150822
 C 0.395 0.4289 0.9868   0.602503
 C 0.1529 0.3634 0.9615   0.647249
 C 0.3789 0.35 0.9651   -0.094761
 C 0.2634 0.3204 0.9535   -0.103925
 C 0.2524 0.2467 0.9337   0.081867
 C 0.3502 0.2048 0.9261   -0.147302
 C 0.4619 0.2352 0.9392   -0.07184
 C 0.4763 0.3061 0.9564   -0.062551
 C 0.0796 0.2078 0.9737   0.046105
 C 0.9617 0.1845 0.9658   -0.31181
 C 0.8932 0.1684 0.9036   0.466221
 C 0.9581 0.1758 0.8505   -0.304022
 C 0.0693 0.1995 0.8612   0.033032
 C 0.2231 0.6381 0.1369   0.057492
 C 0.1916 0.6889 0.2051   -0.160764
 C 0.3821 0.6895 0.1947   0.140354
 C 0.3021 0.7762 0.3195   -0.057185
 C 0.2691 0.7476 0.3687   0.027715
 C 0.2117 0.7942 0.4354   -0.095114
 C 0.1872 0.7707 0.4851   -0.10236
 C 0.2169 0.7007 0.4695   0.014128
 C 0.2704 0.654 0.4014   -0.119621
 C 0.2953 0.6765 0.3527   -0.126345
 C 0.1993 0.6758 0.5239   -0.055134
 C 0.3714 0.7321 0.6113   -0.158329
 C 0.4704 0.7057 0.6246   0.055127
 C 0.3757 0.6148 0.5402   0.150826
 C 0.06167 0.5579 0.5711   0.60239
 C 0.81957 0.5981 0.6366   0.647233
 C 0.04557 0.6151 0.65   -0.094774
 C 0.93007 0.6331 0.6796   -0.103922
 C 0.91907 0.687 0.7533   0.081835
 C 0.01687 0.7213 0.7952   -0.147243
 C 0.12857 0.704 0.7648   -0.071844
 C 0.14297 0.6503 0.6939   -0.062465
 C 0.74627 0.7659 0.7922   0.04617
 C 0.62837 0.7813 0.8155   -0.311812
 C 0.55987 0.7352 0.8316   0.466332
 C 0.62477 0.6747 0.8242   -0.304254
 C 0.73597 0.6617 0.8005   0.033275
 C 0.88977 0.4988 0.3619   0.057628
 C 0.85827 0.5162 0.3111   -0.160843
 C 0.04877 0.5052 0.3105   0.140303
 C 0.96877 0.5433 0.2238   -0.057183
 C 0.93577 0.6211 0.2524   0.027663
 C 0.87837 0.6412 0.2058   -0.09506
 C 0.85387 0.7144 0.2293   -0.102348
 C 0.88357 0.7688 0.2993   0.014112
 C 0.93707 0.7474 0.346   -0.119688
 C 0.96197 0.6762 0.3235   -0.126282
 C 0.86597 0.8481 0.3242   -0.055247
 C 0.03807 0.8792 0.2679   -0.158383
 C 0.13707 0.9189 0.2943   0.055237
 C 0.04237 0.9254 0.3852   0.150877
 C 0.72833 0.0132 0.4421   0.602445
 C 0.48623 0.0385 0.4019   0.647496
 C 0.71223 0.0349 0.3849   -0.094693
 C 0.59673 0.0465 0.3669   -0.104084
 C 0.58573 0.0663 0.313   0.081923
 C 0.68353 0.0739 0.2787   -0.147253
 C 0.79523 0.0608 0.296   -0.071923
 C 0.80963 0.0436 0.3497   -0.06244
 C 0.41293 0.0263 0.2341   0.046076
 C 0.29503 0.0342 0.2187   -0.311841
 C 0.22653 0.0964 0.2648   0.466342
 C 0.29143 0.1495 0.3253   -0.304148
 C 0.40263 0.1388 0.3383   0.033004
 C 0.55643 0.8631 0.5012   0.05756
 C 0.52493 0.7949 0.4838   -0.160762
 C 0.71543 0.8053 0.4948   0.140454
 C 0.63543 0.6805 0.4567   -0.057172
 C 0.60243 0.6313 0.3789   0.027724
 C 0.54503 0.5646 0.3588   -0.095096
 C 0.52053 0.5149 0.2856   -0.102301
 C 0.55023 0.5305 0.2312   0.014119
 C 0.60373 0.5986 0.2526   -0.119497
 C 0.62863 0.6473 0.3238   -0.126373
 C 0.53263 0.4761 0.1519   -0.05516
 C 0.70473 0.3887 0.1208   -0.158269
 C 0.80373 0.3754 0.0811   0.05512
 C 0.70903 0.4598 0.0746   0.150822
 N 0.846 0.362 0.87   -0.405476
 N 0.7942 0.2791 0.7584   0.058191
 N 0.8111 0.3257 0.4418   0.054507
 N 0.9751 0.3688 0.4212   -0.407569
 N 0.6337 0.7843 0.0781   0.03498
 N 0.51267 0.508 0.638   -0.405567
 N 0.46087 0.4793 0.7209   0.058238
 N 0.47777 0.1161 0.6743   0.054566
 N 0.64177 0.0524 0.6312   -0.407705
 N 0.30037 0.2938 0.2157   0.034913
 N 0.17933 0.13 0.492   -0.405571
 N 0.12753 0.2416 0.5207   0.058048
 N 0.14443 0.5582 0.8839   0.054587
 N 0.30843 0.5788 0.9476   -0.407633
 N 0.96703 0.9219 0.7062   0.035
 N 0.346 0.638 0.13   -0.405477
 N 0.2942 0.7209 0.2416   0.058191
 N 0.3111 0.6743 0.5582   0.054507
 N 0.4751 0.6312 0.5788   -0.407569
 N 0.1337 0.2157 0.9219   0.034979
 N 0.01267 0.492 0.362   -0.405567
 N 0.96087 0.5207 0.2791   0.058237
 N 0.97777 0.8839 0.3257   0.054566
 N 0.14177 0.9476 0.3688   -0.407705
 N 0.80037 0.7062 0.7843   0.034913
 N 0.67933 0.87 0.508   -0.405572
 N 0.62753 0.7584 0.4793   0.058048
 N 0.64443 0.4418 0.1161   0.054587
 N 0.80843 0.4212 0.0524   -0.407633
 N 0.46703 0.0781 0.2938   0.035
 O 0.9943 0.5492 0.023   -0.592408
 O 0.8104 0.5278 0.9831   -0.560543
 O 0.6246 0.6259 0.0898   -0.599671
 O 0.5905 0.6167 0.9823   -0.586693
 O 0.2856 0.8507 0.1012   -0.577086
 O 0.66097 0.4738 0.4508   -0.592345
 O 0.47707 0.4553 0.4722   -0.560482
 O 0.29127 0.4639 0.3741   -0.599705
 O 0.25717 0.3656 0.3833   -0.586651
 O 0.95227 0.2505 0.1493   -0.577143
 O 0.32763 0.977 0.5262   -0.592359
 O 0.14373 0.0169 0.5447   -0.560516
 O 0.95793 0.9102 0.5361   -0.59981
 O 0.92383 0.0177 0.6344   -0.586763
 O 0.61893 0.8988 0.7495   -0.57713
 O 0.4943 0.4508 0.977   -0.592408
 O 0.3104 0.4722 0.0169   -0.560543
 O 0.1246 0.3741 0.9102   -0.599671
 O 0.0905 0.3833 0.0177   -0.586693
 O 0.7856 0.1493 0.8988   -0.577086
 O 0.16097 0.5262 0.5492   -0.592345
 O 0.97707 0.5447 0.5278   -0.560482
 O 0.79127 0.5361 0.6259   -0.599705
 O 0.75717 0.6344 0.6167   -0.586651
 O 0.45227 0.7495 0.8507   -0.577142
 O 0.82763 0.023 0.4738   -0.592359
 O 0.64373 0.9831 0.4553   -0.560516
 O 0.45793 0.0898 0.4639   -0.59981
 O 0.42383 0.9823 0.3656   -0.586763
 O 0.11893 0.1012 0.2505   -0.57713
