{'_ref': 'TBD', '_srcid': 'CAKYAQ_clean', 'submitters': [{'name': 'Dalar Nazarian Jeff Camp and David Sholl', 'email': 'dalar@gatech.edu jcamp6@gatech.edu'}], '_method': 'VASP DFT with PBE;DDEC'}
data_Co3H26C40(N5O4)2
_symmetry_space_group_name_H-M   'P 1'
_cell_length_a   11.49319968
_cell_length_b   11.61319974
_cell_length_c   11.81820000
_cell_angle_alpha   65.27499966
_cell_angle_beta   81.17399817
_cell_angle_gamma   72.75199935
_symmetry_Int_Tables_number   1
_chemical_formula_structural   Co3H26C40(N5O4)2
_chemical_formula_sum   'Co3 H26 C40 N10 O8'
_cell_volume   1367.5812247
_cell_formula_units_Z   1
loop_
 _symmetry_equiv_pos_site_id
 _symmetry_equiv_pos_as_xyz
  1  'x, y, z'
loop_
 _atom_site_label
 _atom_site_fract_x
 _atom_site_fract_y
 _atom_site_fract_z
 _atom_site_charge
 Co 0.0 0.0 0.5   0.989451
 Co 0.0 0.5 0.5   0.545593
 Co 0.0 0.0 0.0   0.554335
 H 0.044 0.6623 0.1795   0.085945
 H 0.8351 0.2756 0.3682   0.094514
 H 0.6373 0.4013 0.3708   0.112973
 H 0.5788 0.1182 0.7025   0.115929
 H 0.7799 0.0013 0.6915   0.08354
 H 0.2046 0.3688 0.7046   0.074782
 H 0.4128 0.2746 0.7186   0.109527
 H 0.4437 0.4447 0.3443   0.12576
 H 0.2347 0.5319 0.3412   0.071448
 H 0.8417 0.8178 0.0199   0.086018
 H 0.6436 0.8093 0.0249   0.125996
 H 0.5365 0.1945 0.9601   0.122346
 H 0.7403 0.1907 0.9543   0.088317
 H 0.956 0.3377 0.8205   0.085965
 H 0.1649 0.7244 0.6318   0.094517
 H 0.3627 0.5987 0.6292   0.11298
 H 0.4212 0.8818 0.2975   0.115929
 H 0.2201 0.9987 0.3085   0.08354
 H 0.7954 0.6312 0.2954   0.074781
 H 0.5872 0.7254 0.2814   0.109526
 H 0.5563 0.5553 0.6557   0.125796
 H 0.7653 0.4681 0.6588   0.071454
 H 0.1583 0.1822 0.9801   0.086019
 H 0.3564 0.1907 0.9751   0.126048
 H 0.4635 0.8055 0.0399   0.122418
 H 0.2597 0.8093 0.0457   0.088345
 C 0.0236 0.7166 0.2252   0.199342
 C 0.9815 0.8874 0.2685   -0.049146
 C 0.9784 0.778 0.3781   -0.045674
 C 0.9487 0.7555 0.5109   0.633906
 C 0.9619 0.0292 0.2352   0.640126
 C 0.7819 0.2426 0.4367   0.178039
 C 0.6636 0.3185 0.4374   -0.207457
 C 0.5842 0.2729 0.5356   0.082333
 C 0.6297 0.1524 0.6322   -0.215072
 C 0.7501 0.0827 0.6246   0.177304
 C 0.2534 0.3822 0.6299   0.151255
 C 0.3783 0.3254 0.639   -0.212017
 C 0.4523 0.3428 0.5326   0.099647
 C 0.3964 0.4247 0.4201   -0.205127
 C 0.2712 0.4768 0.4193   0.161372
 C 0.7785 0.8958 0.0082   0.152863
 C 0.6602 0.8894 0.0121   -0.204579
 C 0.5647 0.0015 0.997   0.074301
 C 0.5975 0.1146 0.9738   -0.209637
 C 0.72 0.1116 0.9706   0.142549
 C 0.9764 0.2834 0.7748   0.199336
 C 0.0185 0.1126 0.7315   -0.04915
 C 0.0216 0.222 0.6219   -0.04568
 C 0.0513 0.2445 0.4891   0.6339
 C 0.0381 0.9708 0.7648   0.640126
 C 0.2181 0.7574 0.5633   0.178036
 C 0.3364 0.6815 0.5626   -0.207462
 C 0.4158 0.7271 0.4644   0.08233
 C 0.3703 0.8476 0.3678   -0.21507
 C 0.2499 0.9173 0.3754   0.177301
 C 0.7466 0.6178 0.3701   0.151247
 C 0.6217 0.6746 0.361   -0.212021
 C 0.5477 0.6572 0.4674   0.099647
 C 0.6036 0.5753 0.5799   -0.205141
 C 0.7288 0.5232 0.5807   0.161369
 C 0.2215 0.1042 0.9918   0.152854
 C 0.3398 0.1106 0.9879   -0.204551
 C 0.4353 0.9985 0.003   0.07397
 C 0.4025 0.8854 0.0262   -0.209612
 C 0.28 0.8884 0.0294   0.142536
 N 0.0057 0.6698 0.348   -0.300849
 N 0.0104 0.8457 0.1712   -0.310591
 N 0.8258 0.125 0.5276   -0.349458
 N 0.199 0.4543 0.5215   -0.259433
 N 0.8102 0.0025 0.9894   -0.243007
 N 0.9943 0.3302 0.652   -0.300847
 N 0.9896 0.1543 0.8288   -0.310589
 N 0.1742 0.875 0.4724   -0.349458
 N 0.801 0.5457 0.4785   -0.259432
 N 0.1898 0.9975 0.0106   -0.243001
 O 0.9582 0.0753 0.3138   -0.568967
 O 0.9517 0.1017 0.119   -0.539192
 O 0.9186 0.849 0.5458   -0.58624
 O 0.9545 0.6377 0.5847   -0.528304
 O 0.0418 0.9247 0.6862   -0.568974
 O 0.0483 0.8983 0.881   -0.539192
 O 0.0814 0.151 0.4542   -0.586246
 O 0.0455 0.3623 0.4153   -0.528303
