{'_ref': 'TBD', '_srcid': 'CAKYAQ_clean', 'submitters': [{'name': 'Dalar Nazarian Jeff Camp and David Sholl', 'email': 'dalar@gatech.edu jcamp6@gatech.edu'}], '_method': 'VASP DFT with PBE;DDEC'}
data_MgH2(CO2)2
_symmetry_space_group_name_H-M   'P 1'
_cell_length_a   9.87150000
_cell_length_b   18.16130000
_cell_length_c   18.26780000
_cell_angle_alpha   90.00000000
_cell_angle_beta   90.00000000
_cell_angle_gamma   90.00000000
_symmetry_Int_Tables_number   1
_chemical_formula_structural   MgH2(CO2)2
_chemical_formula_sum   'Mg24 H48 C48 O96'
_cell_volume   3275.0379024
_cell_formula_units_Z   24
loop_
 _symmetry_equiv_pos_site_id
 _symmetry_equiv_pos_as_xyz
  1  'x, y, z'
loop_
 _atom_site_label
 _atom_site_fract_x
 _atom_site_fract_y
 _atom_site_fract_z
 _atom_site_charge
 Mg 0.07905 0.06053 0.68008   1.514378
 Mg 0.8887 0.96455 0.78313   1.497144
 Mg 0.42095 0.56053 0.81992   1.514378
 Mg 0.6113 0.46455 0.71687   1.497144
 Mg 0.92095 0.43947 0.68008   1.514378
 Mg 0.1113 0.53545 0.78313   1.497144
 Mg 0.57905 0.93947 0.81992   1.514378
 Mg 0.3887 0.03545 0.71687   1.497144
 Mg 0.92095 0.93947 0.31992   1.514378
 Mg 0.1113 0.03545 0.21687   1.497144
 Mg 0.57905 0.43947 0.18008   1.514378
 Mg 0.3887 0.53545 0.28313   1.497144
 Mg 0.07905 0.56053 0.31992   1.514378
 Mg 0.8887 0.46455 0.21687   1.497144
 Mg 0.42095 0.06053 0.18008   1.514378
 Mg 0.6113 0.96455 0.28313   1.497144
 Mg 0.0 0.25 0.68777   1.50729
 Mg 0.5 0.75 0.81223   1.50729
 Mg 0.0 0.75 0.31223   1.50729
 Mg 0.5 0.25 0.18777   1.50729
 Mg 0.0 0.0 0.5   1.490975
 Mg 0.5 0.5 0.0   1.490975
 Mg 0.0 0.5 0.5   1.490975
 Mg 0.5 0.0 0.0   1.490975
 H 0.287 0.238 0.6874   -0.008961
 H 0.384 0.0063 0.5504   0.004085
 H 0.233 0.9951 0.8648   -0.021379
 H 0.964 0.8556 0.6537   0.004543
 H 0.792 0.1201 0.8221   -0.001002
 H 0.842 0.1317 0.529   -0.001525
 H 0.213 0.738 0.8126   -0.008961
 H 0.116 0.5063 0.9496   0.004085
 H 0.267 0.4951 0.6352   -0.021379
 H 0.536 0.3556 0.8463   0.004543
 H 0.708 0.6201 0.6779   -0.001002
 H 0.658 0.6317 0.971   -0.001525
 H 0.713 0.262 0.6874   -0.008961
 H 0.616 0.4937 0.5504   0.004085
 H 0.767 0.5049 0.8648   -0.021379
 H 0.036 0.6444 0.6537   0.004544
 H 0.208 0.3799 0.8221   -0.001002
 H 0.158 0.3683 0.529   -0.001525
 H 0.787 0.762 0.8126   -0.008961
 H 0.884 0.9937 0.9496   0.004085
 H 0.733 0.0049 0.6352   -0.021379
 H 0.464 0.1444 0.8463   0.004544
 H 0.292 0.8799 0.6779   -0.001002
 H 0.342 0.8683 0.971   -0.001525
 H 0.713 0.762 0.3126   -0.008961
 H 0.616 0.9937 0.4496   0.004085
 H 0.767 0.0049 0.1352   -0.021379
 H 0.036 0.1444 0.3463   0.004543
 H 0.208 0.8799 0.1779   -0.001002
 H 0.158 0.8683 0.471   -0.001525
 H 0.787 0.262 0.1874   -0.008961
 H 0.884 0.4937 0.0504   0.004085
 H 0.733 0.5049 0.3648   -0.021379
 H 0.464 0.6444 0.1537   0.004543
 H 0.292 0.3799 0.3221   -0.001002
 H 0.342 0.3683 0.029   -0.001525
 H 0.287 0.738 0.3126   -0.008961
 H 0.384 0.5063 0.4496   0.004085
 H 0.233 0.4951 0.1352   -0.021379
 H 0.964 0.3556 0.3463   0.004544
 H 0.792 0.6201 0.1779   -0.001002
 H 0.842 0.6317 0.471   -0.001525
 H 0.213 0.238 0.1874   -0.008961
 H 0.116 0.0063 0.0504   0.004085
 H 0.267 0.9951 0.3648   -0.021379
 H 0.536 0.8556 0.1537   0.004545
 H 0.708 0.1201 0.3221   -0.001002
 H 0.658 0.1317 0.029   -0.001525
 C 0.2763 0.18731 0.69386   0.768706
 C 0.2865 0.01253 0.56191   0.731294
 C 0.1691 0.000210000000003 0.82962   0.778313
 C 0.9831 0.90488 0.63839   0.743956
 C 0.8662 0.13216 0.78158   0.713846
 C 0.9001 0.13569 0.57298   0.749725
 C 0.2237 0.68731 0.80614   0.768706
 C 0.2135 0.51253 0.93809   0.731294
 C 0.3309 0.50021 0.67038   0.778313
 C 0.5169 0.40488 0.86161   0.743956
 C 0.6338 0.63216 0.71842   0.713846
 C 0.5999 0.63569 0.92702   0.749725
 C 0.7237 0.31269 0.69386   0.768706
 C 0.7135 0.48747 0.56191   0.731294
 C 0.8309 0.49979 0.82962   0.778313
 C 0.0169 0.59512 0.63839   0.743955
 C 0.1338 0.36784 0.78158   0.713846
 C 0.0999 0.36431 0.57298   0.749725
 C 0.7763 0.81269 0.80614   0.768706
 C 0.7865 0.98747 0.93809   0.731294
 C 0.6691 0.99979 0.67038   0.778313
 C 0.4831 0.09512 0.86161   0.743955
 C 0.3662 0.86784 0.71842   0.713846
 C 0.4001 0.86431 0.92702   0.749725
 C 0.7237 0.81269 0.30614   0.768706
 C 0.7135 0.98747 0.43809   0.731294
 C 0.8309 0.99979 0.17038   0.778313
 C 0.0169 0.09512 0.36161   0.743956
 C 0.1338 0.86784 0.21842   0.713846
 C 0.0999 0.86431 0.42702   0.749725
 C 0.7763 0.31269 0.19386   0.768706
 C 0.7865 0.48747 0.06191   0.731294
 C 0.6691 0.49979 0.32962   0.778313
 C 0.4831 0.59512 0.13839   0.743956
 C 0.3662 0.36784 0.28158   0.713846
 C 0.4001 0.36431 0.07298   0.749725
 C 0.2763 0.68731 0.30614   0.768706
 C 0.2865 0.51253 0.43809   0.731294
 C 0.1691 0.50021 0.17038   0.778313
 C 0.9831 0.40488 0.36161   0.743955
 C 0.8662 0.63216 0.21842   0.713846
 C 0.9001 0.63569 0.42702   0.749725
 C 0.2237 0.18731 0.19386   0.768706
 C 0.2135 0.01253 0.06191   0.731294
 C 0.3309 0.000210000000003 0.32962   0.778313
 C 0.5169 0.90488 0.13839   0.743955
 C 0.6338 0.13216 0.28158   0.713846
 C 0.5999 0.13569 0.07298   0.749725
 O 0.15281 0.16782 0.68697   -0.828749
 O 0.3735 0.14608 0.70531   -0.688057
 O 0.25585 0.0224 0.629   -0.819116
 O 0.2063 0.00802 0.51031   -0.659079
 O 0.20014 0.03133 0.76977   -0.819048
 O 0.0575 0.97392 0.84611   -0.688307
 O 0.997 0.9132 0.57185   -0.674823
 O 0.9946 0.95494 0.68654   -0.825667
 O 0.91834 0.07548 0.7526   -0.808306
 O 0.8926 0.19687 0.76755   -0.655677
 O 0.9739 0.07917 0.58429   -0.829158
 O 0.8963 0.19186 0.6103   -0.676268
 O 0.34719 0.66782 0.81303   -0.828749
 O 0.1265 0.64608 0.79469   -0.688057
 O 0.24415 0.5224 0.871   -0.819116
 O 0.2937 0.50802 0.98969   -0.659079
 O 0.29986 0.53133 0.73023   -0.819048
 O 0.4425 0.47392 0.65389   -0.688307
 O 0.503 0.4132 0.92815   -0.674823
 O 0.5054 0.45494 0.81346   -0.825667
 O 0.58166 0.57548 0.7474   -0.808306
 O 0.6074 0.69687 0.73245   -0.655677
 O 0.5261 0.57917 0.91571   -0.829158
 O 0.6037 0.69186 0.8897   -0.676268
 O 0.84719 0.33218 0.68697   -0.828749
 O 0.6265 0.35392 0.70531   -0.688057
 O 0.74415 0.4776 0.629   -0.819116
 O 0.7937 0.49198 0.51031   -0.659079
 O 0.79986 0.46867 0.76977   -0.819048
 O 0.9425 0.52608 0.84611   -0.688307
 O 0.003 0.5868 0.57185   -0.674823
 O 0.0054 0.54506 0.68654   -0.825667
 O 0.08166 0.42452 0.7526   -0.808306
 O 0.1074 0.30313 0.76755   -0.655677
 O 0.0261 0.42083 0.58429   -0.829158
 O 0.1037 0.30814 0.6103   -0.676268
 O 0.65281 0.83218 0.81303   -0.828749
 O 0.8735 0.85392 0.79469   -0.688057
 O 0.75585 0.9776 0.871   -0.819116
 O 0.7063 0.99198 0.98969   -0.659079
 O 0.70014 0.96867 0.73023   -0.819048
 O 0.5575 0.02608 0.65389   -0.688307
 O 0.497 0.0868 0.92815   -0.674823
 O 0.4946 0.04506 0.81346   -0.825667
 O 0.41834 0.92452 0.7474   -0.808306
 O 0.3926 0.80313 0.73245   -0.655677
 O 0.4739 0.92083 0.91571   -0.829158
 O 0.3963 0.80814 0.8897   -0.676268
 O 0.84719 0.83218 0.31303   -0.828749
 O 0.6265 0.85392 0.29469   -0.688057
 O 0.74415 0.9776 0.371   -0.819116
 O 0.7937 0.99198 0.48969   -0.659079
 O 0.79986 0.96867 0.23023   -0.819048
 O 0.9425 0.02608 0.15389   -0.688307
 O 0.003 0.0868 0.42815   -0.674823
 O 0.0054 0.04506 0.31346   -0.825667
 O 0.08166 0.92452 0.2474   -0.808306
 O 0.1074 0.80313 0.23245   -0.655677
 O 0.0261 0.92083 0.41571   -0.829158
 O 0.1037 0.80814 0.3897   -0.676268
 O 0.65281 0.33218 0.18697   -0.828749
 O 0.8735 0.35392 0.20531   -0.688057
 O 0.75585 0.4776 0.129   -0.819116
 O 0.7063 0.49198 0.01031   -0.659079
 O 0.70014 0.46867 0.26977   -0.819048
 O 0.5575 0.52608 0.34611   -0.688307
 O 0.497 0.5868 0.07185   -0.674823
 O 0.4946 0.54506 0.18654   -0.825667
 O 0.41834 0.42452 0.2526   -0.808306
 O 0.3926 0.30313 0.26755   -0.655677
 O 0.4739 0.42083 0.08429   -0.829158
 O 0.3963 0.30814 0.1103   -0.676268
 O 0.15281 0.66782 0.31303   -0.828749
 O 0.3735 0.64608 0.29469   -0.688057
 O 0.25585 0.5224 0.371   -0.819116
 O 0.2063 0.50802 0.48969   -0.659079
 O 0.20014 0.53133 0.23023   -0.819048
 O 0.0575 0.47392 0.15389   -0.688307
 O 0.997 0.4132 0.42815   -0.674823
 O 0.9946 0.45494 0.31346   -0.825667
 O 0.91834 0.57548 0.2474   -0.808306
 O 0.8926 0.69687 0.23245   -0.655677
 O 0.9739 0.57917 0.41571   -0.829158
 O 0.8963 0.69186 0.3897   -0.676268
 O 0.34719 0.16782 0.18697   -0.828749
 O 0.1265 0.14608 0.20531   -0.688057
 O 0.24415 0.0224 0.129   -0.819116
 O 0.2937 0.00802 0.01031   -0.659079
 O 0.29986 0.03133 0.26977   -0.819048
 O 0.4425 0.97392 0.34611   -0.688307
 O 0.503 0.9132 0.07185   -0.674823
 O 0.5054 0.95494 0.18654   -0.825667
 O 0.58166 0.07548 0.2526   -0.808306
 O 0.6074 0.19687 0.26755   -0.655677
 O 0.5261 0.07917 0.08429   -0.829158
 O 0.6037 0.19186 0.1103   -0.676268
