{'_ref': 'TBD', '_srcid': 'CAKYAQ_clean', 'submitters': [{'name': 'Dalar Nazarian Jeff Camp and David Sholl', 'email': 'dalar@gatech.edu jcamp6@gatech.edu'}], '_method': 'VASP DFT with PBE;DDEC'}
data_CuPH3(CO)3
_symmetry_space_group_name_H-M   'P 1'
_cell_length_a   4.82180000
_cell_length_b   18.29500033
_cell_length_c   19.89110000
_cell_angle_alpha   90.00000000
_cell_angle_beta   90.00000000
_cell_angle_gamma   95.07699984
_symmetry_Int_Tables_number   1
_chemical_formula_structural   CuPH3(CO)3
_chemical_formula_sum   'Cu12 P12 H36 C36 O36'
_cell_volume   1747.80582781
_cell_formula_units_Z   12
loop_
 _symmetry_equiv_pos_site_id
 _symmetry_equiv_pos_as_xyz
  1  'x, y, z'
loop_
 _atom_site_label
 _atom_site_fract_x
 _atom_site_fract_y
 _atom_site_fract_z
 _atom_site_charge
 Cu 0.97798 0.7976 0.29644   0.859712
 Cu 0.42034 0.74874 0.15741   1.183653
 Cu 0.8927 0.7035 0.03   1.14244
 Cu 0.52202 0.7024 0.79644   0.859712
 Cu 0.07966 0.75126 0.65741   1.183653
 Cu 0.6073 0.7965 0.53   1.14244
 Cu 0.02202 0.2024 0.70356   0.859712
 Cu 0.57966 0.25126 0.84259   1.183653
 Cu 0.1073 0.2965 0.97   1.142438
 Cu 0.47798 0.2976 0.20356   0.859712
 Cu 0.92034 0.24874 0.34259   1.183653
 Cu 0.3927 0.2035 0.47   1.142439
 P 0.9229 0.65153 0.1746   1.549025
 P 0.0724 0.7316 0.44278   1.590961
 P 0.4239 0.34679 0.35278   1.57126
 P 0.5771 0.84847 0.6746   1.549025
 P 0.4276 0.7684 0.94278   1.590961
 P 0.0761 0.15321 0.85278   1.57126
 P 0.0771 0.34847 0.8254   1.549025
 P 0.9276 0.2684 0.55722   1.590961
 P 0.5761 0.65321 0.64722   1.57126
 P 0.4229 0.15153 0.3254   1.549025
 P 0.5724 0.2316 0.05722   1.590961
 P 0.9239 0.84679 0.14722   1.57126
 H 0.1963 0.625 0.3179   0.14965
 H 0.7034 0.5297 0.4596   0.107829
 H 0.5585 0.481 0.2671   0.121939
 H 0.8653 0.526 0.1819   0.183676
 H 0.1693 0.5543 0.2026   0.200448
 H 0.3213 0.63 0.4456   0.191428
 H 0.0645 0.6186 0.4938   0.18701
 H 0.197 0.4499 0.3721   0.186967
 H 0.3699 0.4316 0.4357   0.17788
 H 0.3037 0.875 0.8179   0.14965
 H 0.7966 0.9703 0.9596   0.107829
 H 0.9415 0.019 0.7671   0.121939
 H 0.6347 0.974 0.6819   0.183676
 H 0.3307 0.9457 0.7026   0.200448
 H 0.1787 0.87 0.9456   0.191428
 H 0.4355 0.8814 0.9938   0.18701
 H 0.303 0.0501 0.8721   0.186967
 H 0.1301 0.0684 0.9357   0.17788
 H 0.8037 0.375 0.6821   0.14965
 H 0.2966 0.4703 0.5404   0.107828
 H 0.4415 0.519 0.7329   0.121939
 H 0.1347 0.474 0.8181   0.183676
 H 0.8307 0.4457 0.7974   0.200448
 H 0.6787 0.37 0.5544   0.191427
 H 0.9355 0.3814 0.5062   0.187009
 H 0.803 0.5501 0.6279   0.186966
 H 0.6301 0.5684 0.5643   0.177879
 H 0.6963 0.125 0.1821   0.14965
 H 0.2034 0.0297 0.0404   0.107828
 H 0.0585 0.981 0.2329   0.121939
 H 0.3653 0.026 0.3181   0.183676
 H 0.6693 0.0543 0.2974   0.200448
 H 0.8213 0.13 0.0544   0.191427
 H 0.5645 0.1186 0.0062   0.187009
 H 0.697 0.9499 0.1279   0.186966
 H 0.8699 0.9316 0.0643   0.177879
 C 0.8966 0.5538 0.2812   0.202929
 C 0.0432 0.5933 0.3302   -0.2496
 C 0.9701 0.5875 0.3974   0.216971
 C 0.7507 0.536 0.4145   -0.249014
 C 0.6017 0.4942 0.3671   0.211362
 C 0.6673 0.5056 0.3001   -0.233823
 C 0.9749 0.563 0.2079   -0.570344
 C 0.1238 0.6356 0.4495   -0.609484
 C 0.3755 0.4352 0.387   -0.585982
 C 0.6034 0.9462 0.7812   0.202929
 C 0.4568 0.9067 0.8302   -0.2496
 C 0.5299 0.9125 0.8974   0.216971
 C 0.7493 0.964 0.9145   -0.249014
 C 0.8983 0.0058 0.8671   0.211362
 C 0.8327 0.9944 0.8001   -0.233823
 C 0.5251 0.937 0.7079   -0.570344
 C 0.3762 0.8644 0.9495   -0.609484
 C 0.1245 0.0648 0.887   -0.585982
 C 0.1034 0.4462 0.7188   0.202929
 C 0.9568 0.4067 0.6698   -0.2496
 C 0.0299 0.4125 0.6026   0.216971
 C 0.2493 0.464 0.5855   -0.249014
 C 0.3983 0.5058 0.6329   0.211362
 C 0.3327 0.4944 0.6999   -0.233823
 C 0.0251 0.437 0.7921   -0.570344
 C 0.8762 0.3644 0.5505   -0.609484
 C 0.6245 0.5648 0.613   -0.585981
 C 0.3966 0.0538 0.2188   0.202929
 C 0.5432 0.0933 0.1698   -0.2496
 C 0.4701 0.0875 0.1026   0.216971
 C 0.2507 0.036 0.0855   -0.249014
 C 0.1017 0.9942 0.1329   0.211362
 C 0.1673 0.0056 0.1999   -0.233823
 C 0.4749 0.063 0.2921   -0.570344
 C 0.6238 0.1356 0.0505   -0.609484
 C 0.8755 0.9352 0.113   -0.585981
 O 0.1099 0.7092 0.21328   -0.82534
 O 0.6161 0.6633 0.18326   -0.809779
 O 0.0127 0.6524 0.1013   -0.871528
 O 0.1644 0.757 0.37253   -0.816784
 O 0.7662 0.7433 0.45412   -0.834196
 O 0.2468 0.7724 0.4971   -0.848097
 O 0.3125 0.34366 0.28094   -0.873278
 O 0.2393 0.28933 0.39503   -0.853798
 O 0.7309 0.33485 0.35978   -0.80409
 O 0.3901 0.7908 0.71328   -0.82534
 O 0.8839 0.8367 0.68326   -0.809779
 O 0.4873 0.8476 0.6013   -0.871528
 O 0.3356 0.743 0.87253   -0.816784
 O 0.7338 0.7567 0.95412   -0.834196
 O 0.2532 0.7276 0.9971   -0.848097
 O 0.1875 0.15634 0.78094   -0.873278
 O 0.2607 0.21067 0.89503   -0.853798
 O 0.7691 0.16515 0.85978   -0.80409
 O 0.8901 0.2908 0.78672   -0.82534
 O 0.3839 0.3367 0.81674   -0.809779
 O 0.9873 0.3476 0.8987   -0.871528
 O 0.8356 0.243 0.62747   -0.816784
 O 0.2338 0.2567 0.54588   -0.834196
 O 0.7532 0.2276 0.5029   -0.848097
 O 0.6875 0.65634 0.71906   -0.873278
 O 0.7607 0.71067 0.60497   -0.853798
 O 0.2691 0.66515 0.64022   -0.80409
 O 0.6099 0.2092 0.28672   -0.82534
 O 0.1161 0.1633 0.31674   -0.809779
 O 0.5127 0.1524 0.3987   -0.871528
 O 0.6644 0.257 0.12747   -0.816784
 O 0.2662 0.2433 0.04588   -0.834196
 O 0.7468 0.2724 0.0029   -0.848097
 O 0.8125 0.84366 0.21906   -0.873278
 O 0.7393 0.78933 0.10497   -0.853798
 O 0.2309 0.83485 0.14022   -0.80409
