{'_ref': 'TBD', '_srcid': 'CAKYAQ_clean', 'submitters': [{'name': 'Dalar Nazarian Jeff Camp and David Sholl', 'email': 'dalar@gatech.edu jcamp6@gatech.edu'}], '_method': 'VASP DFT with PBE;DDEC'}
data_Zn2H25C39NO7
_symmetry_space_group_name_H-M   'P 1'
_cell_length_a   11.98000000
_cell_length_b   17.98200000
_cell_length_c   18.62500000
_cell_angle_alpha   90.00000000
_cell_angle_beta   90.00000000
_cell_angle_gamma   90.00000000
_symmetry_Int_Tables_number   1
_chemical_formula_structural   Zn2H25C39NO7
_chemical_formula_sum   'Zn8 H100 C156 N4 O28'
_cell_volume   4012.278705
_cell_formula_units_Z   4
loop_
 _symmetry_equiv_pos_site_id
 _symmetry_equiv_pos_as_xyz
  1  'x, y, z'
loop_
 _atom_site_label
 _atom_site_fract_x
 _atom_site_fract_y
 _atom_site_fract_z
 _atom_site_charge
 Zn 0.3899 0.80265 0.50913   1.047012
 Zn 0.1101 0.80265 0.49087   1.047012
 Zn 0.6101 0.69735 0.50913   1.047012
 Zn 0.8899 0.69735 0.49087   1.047012
 Zn 0.6101 0.19735 0.49087   1.047012
 Zn 0.8899 0.19735 0.50913   1.047012
 Zn 0.3899 0.30265 0.49087   1.047012
 Zn 0.1101 0.30265 0.50913   1.047012
 H 0.3745 0.7437 0.2928   0.117073
 H 0.3843 0.8299 0.7358   0.084327
 H 0.3969 0.0658 0.3262   0.106164
 H 0.3869 0.8315 0.8588   0.106364
 H 0.3574 0.8069 0.9682   0.095221
 H 0.2909 0.8374 0.3573   0.090461
 H 0.3553 0.8051 0.091   0.110462
 H 0.1512 0.9197 0.3628   0.101046
 H 0.5109 0.8943 0.1622   0.121938
 H 0.4283 0.9885 0.2277   0.101676
 H 0.0513 0.0103 0.4226   0.099585
 H 0.2972 0.1558 0.3862   0.089612
 H 0.1255 0.7437 0.7072   0.117073
 H 0.1157 0.8299 0.2642   0.084327
 H 0.1031 0.0658 0.6738   0.106164
 H 0.1131 0.8315 0.1412   0.106364
 H 0.1426 0.8069 0.0318   0.09522
 H 0.2091 0.8374 0.6427   0.090461
 H 0.1447 0.8051 0.909   0.110461
 H 0.3488 0.9197 0.6372   0.101046
 H 0.9891 0.8943 0.8378   0.121938
 H 0.0717 0.9885 0.7723   0.101676
 H 0.4487 0.0103 0.5774   0.099585
 H 0.2028 0.1558 0.6138   0.089612
 H 0.6255 0.7563 0.2928   0.117073
 H 0.6157 0.6701 0.7358   0.084327
 H 0.6031 0.4342 0.3262   0.106164
 H 0.6131 0.6685 0.8588   0.106364
 H 0.6426 0.6931 0.9682   0.095221
 H 0.7091 0.6626 0.3573   0.090461
 H 0.6447 0.6949 0.091   0.110462
 H 0.8488 0.5803 0.3628   0.101046
 H 0.4891 0.6057 0.1622   0.121938
 H 0.5717 0.5115 0.2277   0.101676
 H 0.9487 0.4897 0.4226   0.099585
 H 0.7028 0.3442 0.3862   0.089612
 H 0.8745 0.7563 0.7072   0.117073
 H 0.8843 0.6701 0.2642   0.084327
 H 0.8969 0.4342 0.6738   0.106164
 H 0.8869 0.6685 0.1412   0.106364
 H 0.8574 0.6931 0.0318   0.09522
 H 0.7909 0.6626 0.6427   0.090461
 H 0.8553 0.6949 0.909   0.110461
 H 0.6512 0.5803 0.6372   0.101046
 H 0.0109 0.6057 0.8378   0.121938
 H 0.9283 0.5115 0.7723   0.101676
 H 0.5513 0.4897 0.5774   0.099585
 H 0.7972 0.3442 0.6138   0.089612
 H 0.6255 0.2563 0.7072   0.117073
 H 0.6157 0.1701 0.2642   0.084327
 H 0.6031 0.9342 0.6738   0.106164
 H 0.6131 0.1685 0.1412   0.106364
 H 0.6426 0.1931 0.0318   0.095221
 H 0.7091 0.1626 0.6427   0.090461
 H 0.6447 0.1949 0.909   0.110462
 H 0.8488 0.0803 0.6372   0.101045
 H 0.4891 0.1057 0.8378   0.121937
 H 0.5717 0.0115 0.7723   0.101676
 H 0.9487 0.9897 0.5774   0.099585
 H 0.7028 0.8442 0.6138   0.089612
 H 0.8745 0.2563 0.2928   0.117073
 H 0.8843 0.1701 0.7358   0.084327
 H 0.8969 0.9342 0.3262   0.106164
 H 0.8869 0.1685 0.8588   0.106364
 H 0.8574 0.1931 0.9682   0.09522
 H 0.7909 0.1626 0.3573   0.090461
 H 0.8553 0.1949 0.091   0.110461
 H 0.6512 0.0803 0.3628   0.101046
 H 0.0109 0.1057 0.1622   0.121937
 H 0.9283 0.0115 0.2277   0.101676
 H 0.5513 0.9897 0.4226   0.099585
 H 0.7972 0.8442 0.3862   0.089612
 H 0.3745 0.2437 0.7072   0.117073
 H 0.3843 0.3299 0.2642   0.084327
 H 0.3969 0.5658 0.6738   0.106164
 H 0.3869 0.3315 0.1412   0.106364
 H 0.3574 0.3069 0.0318   0.095221
 H 0.2909 0.3374 0.6427   0.090461
 H 0.3553 0.3051 0.909   0.110462
 H 0.1512 0.4197 0.6372   0.101045
 H 0.5109 0.3943 0.8378   0.121937
 H 0.4283 0.4885 0.7723   0.101676
 H 0.0513 0.5103 0.5774   0.099585
 H 0.2972 0.6558 0.6138   0.089612
 H 0.1255 0.2437 0.2928   0.117073
 H 0.1157 0.3299 0.7358   0.084327
 H 0.1031 0.5658 0.3262   0.106164
 H 0.1131 0.3315 0.8588   0.106364
 H 0.1426 0.3069 0.9682   0.09522
 H 0.2091 0.3374 0.3573   0.090461
 H 0.1447 0.3051 0.091   0.110461
 H 0.3488 0.4197 0.3628   0.101046
 H 0.9891 0.3943 0.1622   0.121937
 H 0.0717 0.4885 0.2277   0.101676
 H 0.4487 0.5103 0.4226   0.099585
 H 0.2028 0.6558 0.3862   0.089612
 H 0.25 0.4043 0.5   0.419724
 H 0.75 0.0957 0.5   0.419724
 H 0.75 0.5957 0.5   0.419724
 H 0.25 0.9043 0.5   0.419724
 C 0.3845 0.79292 0.2788   -0.168026
 C 0.4316 0.79769 0.76041   -0.013152
 C 0.4491 0.80884 0.21982   0.155385
 C 0.3274 0.05418 0.3454   -0.149736
 C 0.4325 0.79817 0.83443   -0.1491
 C 0.2854 0.98228 0.33776   0.072577
 C 0.3469 0.92307 0.29836   0.002029
 C 0.4153 0.7834 0.99253   -0.073683
 C 0.3342 0.84932 0.31753   -0.061944
 C 0.4143 0.783 0.0666   -0.193993
 C 0.1811 0.96718 0.36722   -0.157978
 C 0.4658 0.88256 0.20126   -0.17822
 C 0.4156 0.93921 0.2405   -0.091886
 C 0.1631 0.09275 0.40982   -0.180115
 C 0.1207 0.02173 0.40304   -0.01145
 C 0.2674 0.10836 0.3812   -0.007112
 C 0.098 0.15069 0.4477   0.709983
 C 0.1155 0.79292 0.7212   -0.168026
 C 0.0684 0.79769 0.23959   -0.013152
 C 0.0509 0.80884 0.78018   0.155385
 C 0.1726 0.05418 0.6546   -0.149736
 C 0.0675 0.79817 0.16557   -0.1491
 C 0.2146 0.98228 0.66224   0.072577
 C 0.1531 0.92307 0.70164   0.002029
 C 0.0847 0.7834 0.00747   -0.073683
 C 0.1658 0.84932 0.68247   -0.061944
 C 0.0857 0.783 0.9334   -0.193993
 C 0.3189 0.96718 0.63278   -0.157978
 C 0.0342 0.88256 0.79874   -0.17822
 C 0.0844 0.93921 0.7595   -0.091886
 C 0.3369 0.09275 0.59018   -0.180115
 C 0.3793 0.02173 0.59696   -0.011451
 C 0.2326 0.10836 0.6188   -0.007112
 C 0.402 0.15069 0.5523   0.709983
 C 0.6155 0.70708 0.2788   -0.168026
 C 0.5684 0.70231 0.76041   -0.013152
 C 0.5509 0.69116 0.21982   0.155385
 C 0.6726 0.44582 0.3454   -0.149736
 C 0.5675 0.70183 0.83443   -0.1491
 C 0.7146 0.51772 0.33776   0.072577
 C 0.6531 0.57693 0.29836   0.002029
 C 0.5847 0.7166 0.99253   -0.073683
 C 0.6658 0.65068 0.31753   -0.061944
 C 0.5857 0.717 0.0666   -0.193993
 C 0.8189 0.53282 0.36722   -0.157978
 C 0.5342 0.61744 0.20126   -0.17822
 C 0.5844 0.56079 0.2405   -0.091886
 C 0.8369 0.40725 0.40982   -0.180115
 C 0.8793 0.47827 0.40304   -0.01145
 C 0.7326 0.39164 0.3812   -0.007112
 C 0.902 0.34931 0.4477   0.709983
 C 0.8845 0.70708 0.7212   -0.168026
 C 0.9316 0.70231 0.23959   -0.013152
 C 0.9491 0.69116 0.78018   0.155385
 C 0.8274 0.44582 0.6546   -0.149736
 C 0.9325 0.70183 0.16557   -0.1491
 C 0.7854 0.51772 0.66224   0.072577
 C 0.8469 0.57693 0.70164   0.002029
 C 0.9153 0.7166 0.00747   -0.073683
 C 0.8342 0.65068 0.68247   -0.061944
 C 0.9143 0.717 0.9334   -0.193993
 C 0.6811 0.53282 0.63278   -0.157978
 C 0.9658 0.61744 0.79874   -0.17822
 C 0.9156 0.56079 0.7595   -0.091886
 C 0.6631 0.40725 0.59018   -0.180115
 C 0.6207 0.47827 0.59696   -0.011451
 C 0.7674 0.39164 0.6188   -0.007112
 C 0.598 0.34931 0.5523   0.709983
 C 0.6155 0.20708 0.7212   -0.168026
 C 0.5684 0.20231 0.23959   -0.013152
 C 0.5509 0.19116 0.78018   0.155385
 C 0.6726 0.94582 0.6546   -0.149735
 C 0.5675 0.20183 0.16557   -0.1491
 C 0.7146 0.01772 0.66224   0.072577
 C 0.6531 0.07693 0.70164   0.002029
 C 0.5847 0.2166 0.00747   -0.073683
 C 0.6658 0.15068 0.68247   -0.061944
 C 0.5857 0.217 0.9334   -0.193993
 C 0.8189 0.03282 0.63278   -0.157978
 C 0.5342 0.11744 0.79874   -0.17822
 C 0.5844 0.06079 0.7595   -0.091886
 C 0.8369 0.90725 0.59018   -0.180115
 C 0.8793 0.97827 0.59696   -0.01145
 C 0.7326 0.89164 0.6188   -0.007112
 C 0.902 0.84931 0.5523   0.709983
 C 0.8845 0.20708 0.2788   -0.168026
 C 0.9316 0.20231 0.76041   -0.013152
 C 0.9491 0.19116 0.21982   0.155385
 C 0.8274 0.94582 0.3454   -0.149735
 C 0.9325 0.20183 0.83443   -0.1491
 C 0.7854 0.01772 0.33776   0.072577
 C 0.8469 0.07693 0.29836   0.002029
 C 0.9153 0.2166 0.99253   -0.073683
 C 0.8342 0.15068 0.31753   -0.061944
 C 0.9143 0.217 0.0666   -0.193993
 C 0.6811 0.03282 0.36722   -0.157978
 C 0.9658 0.11744 0.20126   -0.17822
 C 0.9156 0.06079 0.2405   -0.091886
 C 0.6631 0.90725 0.40982   -0.180115
 C 0.6207 0.97827 0.40304   -0.01145
 C 0.7674 0.89164 0.3812   -0.007112
 C 0.598 0.84931 0.4477   0.709983
 C 0.3845 0.29292 0.7212   -0.168026
 C 0.4316 0.29769 0.23959   -0.013152
 C 0.4491 0.30884 0.78018   0.155385
 C 0.3274 0.55418 0.6546   -0.149735
 C 0.4325 0.29817 0.16557   -0.1491
 C 0.2854 0.48228 0.66224   0.072577
 C 0.3469 0.42307 0.70164   0.002029
 C 0.4153 0.2834 0.00747   -0.073683
 C 0.3342 0.34932 0.68247   -0.061944
 C 0.4143 0.283 0.9334   -0.193993
 C 0.1811 0.46718 0.63278   -0.157978
 C 0.4658 0.38256 0.79874   -0.17822
 C 0.4156 0.43921 0.7595   -0.091886
 C 0.1631 0.59275 0.59018   -0.180115
 C 0.1207 0.52173 0.59696   -0.01145
 C 0.2674 0.60836 0.6188   -0.007112
 C 0.098 0.65069 0.5523   0.709983
 C 0.1155 0.29292 0.2788   -0.168026
 C 0.0684 0.29769 0.76041   -0.013152
 C 0.0509 0.30884 0.21982   0.155385
 C 0.1726 0.55418 0.3454   -0.149735
 C 0.0675 0.29817 0.83443   -0.1491
 C 0.2146 0.48228 0.33776   0.072577
 C 0.1531 0.42307 0.29836   0.002029
 C 0.0847 0.2834 0.99253   -0.073683
 C 0.1658 0.34932 0.31753   -0.061944
 C 0.0857 0.283 0.0666   -0.193993
 C 0.3189 0.46718 0.36722   -0.157978
 C 0.0342 0.38256 0.20126   -0.17822
 C 0.0844 0.43921 0.2405   -0.091886
 C 0.3369 0.59275 0.40982   -0.180115
 C 0.3793 0.52173 0.40304   -0.01145
 C 0.2326 0.60836 0.3812   -0.007112
 C 0.402 0.65069 0.4477   0.709983
 C 0.5 0.75 0.105   0.17415
 C 0.5 0.75 0.8735   0.06763
 C 0.5 0.75 0.64155   0.709257
 C 0.5 0.75 0.72215   -0.179468
 C 0.5 0.75 0.9531   -0.021629
 C 0.0 0.75 0.895   0.17415
 C 0.0 0.75 0.1265   0.06763
 C 0.0 0.75 0.35845   0.709257
 C 0.0 0.75 0.27785   -0.179468
 C 0.0 0.75 0.0469   -0.021629
 C 0.5 0.25 0.895   0.17415
 C 0.5 0.25 0.1265   0.06763
 C 0.5 0.25 0.35845   0.709257
 C 0.5 0.25 0.27785   -0.179468
 C 0.5 0.25 0.0469   -0.021629
 C 0.0 0.25 0.105   0.17415
 C 0.0 0.25 0.8735   0.06763
 C 0.0 0.25 0.64155   0.709257
 C 0.0 0.25 0.72215   -0.179468
 C 0.0 0.25 0.9531   -0.021629
 N 0.5 0.75 0.18067   -0.132783
 N 0.0 0.75 0.81933   -0.132783
 N 0.5 0.25 0.81933   -0.132783
 N 0.0 0.25 0.18067   -0.132783
 O 0.42306 0.78439 0.61068   -0.606458
 O 0.1396 0.21489 0.4515   -0.617456
 O 0.00559 0.13234 0.47355   -0.61414
 O 0.07694 0.78439 0.38932   -0.606458
 O 0.3604 0.21489 0.5485   -0.617456
 O 0.49441 0.13234 0.52645   -0.61414
 O 0.57694 0.71561 0.61068   -0.606458
 O 0.8604 0.28511 0.4515   -0.617456
 O 0.99441 0.36766 0.47355   -0.61414
 O 0.92306 0.71561 0.38932   -0.606458
 O 0.6396 0.28511 0.5485   -0.617456
 O 0.50559 0.36766 0.52645   -0.61414
 O 0.57694 0.21561 0.38932   -0.606458
 O 0.8604 0.78511 0.5485   -0.617456
 O 0.99441 0.86766 0.52645   -0.61414
 O 0.92306 0.21561 0.61068   -0.606458
 O 0.6396 0.78511 0.4515   -0.617456
 O 0.50559 0.86766 0.47355   -0.61414
 O 0.42306 0.28439 0.38932   -0.606458
 O 0.1396 0.71489 0.5485   -0.617456
 O 0.00559 0.63234 0.52645   -0.61414
 O 0.07694 0.28439 0.61068   -0.606458
 O 0.3604 0.71489 0.4515   -0.617456
 O 0.49441 0.63234 0.47355   -0.61414
 O 0.25 0.35254 0.5   -0.909809
 O 0.75 0.14746 0.5   -0.909809
 O 0.75 0.64746 0.5   -0.909809
 O 0.25 0.85254 0.5   -0.909809
