{'_ref': 'TBD', '_srcid': 'CAKYAQ_clean', 'submitters': [{'name': 'Dalar Nazarian Jeff Camp and David Sholl', 'email': 'dalar@gatech.edu jcamp6@gatech.edu'}], '_method': 'VASP DFT with PBE;DDEC'}
data_ZnH3C9O4
_symmetry_space_group_name_H-M   'P 1'
_cell_length_a   15.41279964
_cell_length_b   15.41279996
_cell_length_c   15.41280000
_cell_angle_alpha   76.34120144
_cell_angle_beta   76.34120115
_cell_angle_gamma   76.34119925
_symmetry_Int_Tables_number   1
_chemical_formula_structural   ZnH3C9O4
_chemical_formula_sum   'Zn6 H18 C54 O24'
_cell_volume   3393.54600234
_cell_formula_units_Z   6
loop_
 _symmetry_equiv_pos_site_id
 _symmetry_equiv_pos_as_xyz
  1  'x, y, z'
loop_
 _atom_site_label
 _atom_site_fract_x
 _atom_site_fract_y
 _atom_site_fract_z
 _atom_site_charge
 Zn 0.08821 0.51326 0.51326   1.164466
 Zn 0.51326 0.08821 0.51326   1.164467
 Zn 0.51326 0.51326 0.08821   1.164467
 Zn 0.48674 0.91179 0.48674   1.164467
 Zn 0.91179 0.48674 0.48674   1.164467
 Zn 0.48674 0.48674 0.91179   1.164468
 H 0.9868 0.1969 0.5064   0.114554
 H 0.5064 0.9868 0.1969   0.114554
 H 0.1969 0.5064 0.9868   0.114554
 H 0.8031 0.0132 0.4936   0.114552
 H 0.0132 0.4936 0.8031   0.114552
 H 0.4936 0.8031 0.0132   0.114552
 H 0.0132 0.8031 0.4936   0.114553
 H 0.4936 0.0132 0.8031   0.114553
 H 0.8031 0.4936 0.0132   0.114553
 H 0.1969 0.9868 0.5064   0.114554
 H 0.9868 0.5064 0.1969   0.114554
 H 0.5064 0.1969 0.9868   0.114554
 H 0.2325 0.2325 0.523   0.108532
 H 0.523 0.2325 0.2325   0.108532
 H 0.2325 0.523 0.2325   0.108532
 H 0.7675 0.7675 0.477   0.108532
 H 0.7675 0.477 0.7675   0.108532
 H 0.477 0.7675 0.7675   0.108532
 C 0.0655 0.32924 0.51427   0.743636
 C 0.10383 0.23005 0.51534   -0.162157
 C 0.04762 0.17342 0.50962   -0.04951
 C 0.51427 0.0655 0.32924   0.743636
 C 0.51534 0.10383 0.23005   -0.162157
 C 0.50962 0.04762 0.17342   -0.04951
 C 0.32924 0.51427 0.0655   0.743636
 C 0.23005 0.51534 0.10383   -0.162157
 C 0.17342 0.50962 0.04762   -0.04951
 C 0.67076 0.9345 0.48573   0.743636
 C 0.76995 0.89617 0.48466   -0.162156
 C 0.82658 0.95238 0.49038   -0.049507
 C 0.9345 0.48573 0.67076   0.743636
 C 0.89617 0.48466 0.76995   -0.162156
 C 0.95238 0.49038 0.82658   -0.049507
 C 0.48573 0.67076 0.9345   0.743636
 C 0.48466 0.76995 0.89617   -0.162156
 C 0.49038 0.82658 0.95238   -0.049507
 C 0.9345 0.67076 0.48573   0.743635
 C 0.89617 0.76995 0.48466   -0.162156
 C 0.95238 0.82658 0.49038   -0.049509
 C 0.48573 0.9345 0.67076   0.743635
 C 0.48466 0.89617 0.76995   -0.162156
 C 0.49038 0.95238 0.82658   -0.049509
 C 0.67076 0.48573 0.9345   0.743636
 C 0.76995 0.48466 0.89617   -0.162156
 C 0.82658 0.49038 0.95238   -0.049509
 C 0.32924 0.0655 0.51427   0.743636
 C 0.23005 0.10383 0.51534   -0.162157
 C 0.17342 0.04762 0.50962   -0.049511
 C 0.0655 0.51427 0.32924   0.743636
 C 0.10383 0.51534 0.23005   -0.162156
 C 0.04762 0.50962 0.17342   -0.049511
 C 0.51427 0.32924 0.0655   0.743636
 C 0.51534 0.23005 0.10383   -0.162156
 C 0.50962 0.17342 0.04762   -0.049511
 C 0.08242 0.08242 0.50867   0.078156
 C 0.02317 0.02317 0.50237   -0.095122
 C 0.19501 0.19501 0.51866   0.015252
 C 0.50867 0.08242 0.08242   0.078156
 C 0.50237 0.02317 0.02317   -0.095122
 C 0.51866 0.19501 0.19501   0.015252
 C 0.08242 0.50867 0.08242   0.078156
 C 0.02317 0.50237 0.02317   -0.095122
 C 0.19501 0.51866 0.19501   0.015252
 C 0.91758 0.91758 0.49133   0.078133
 C 0.97683 0.97683 0.49763   -0.094992
 C 0.80499 0.80499 0.48134   0.015252
 C 0.91758 0.49133 0.91758   0.078133
 C 0.97683 0.49763 0.97683   -0.094992
 C 0.80499 0.48134 0.80499   0.015252
 C 0.49133 0.91758 0.91758   0.078133
 C 0.49763 0.97683 0.97683   -0.094992
 C 0.48134 0.80499 0.80499   0.015252
 O 0.98579 0.35733 0.50559   -0.642491
 O 0.11925 0.37579 0.52149   -0.639701
 O 0.50559 0.98579 0.35733   -0.642491
 O 0.52149 0.11925 0.37579   -0.639701
 O 0.35733 0.50559 0.98579   -0.642491
 O 0.37579 0.52149 0.11925   -0.639701
 O 0.64267 0.01421 0.49441   -0.642491
 O 0.62421 0.88075 0.47851   -0.639701
 O 0.01421 0.49441 0.64267   -0.642491
 O 0.88075 0.47851 0.62421   -0.639701
 O 0.49441 0.64267 0.01421   -0.642491
 O 0.47851 0.62421 0.88075   -0.639701
 O 0.01421 0.64267 0.49441   -0.642491
 O 0.88075 0.62421 0.47851   -0.639701
 O 0.49441 0.01421 0.64267   -0.642491
 O 0.47851 0.88075 0.62421   -0.639701
 O 0.64267 0.49441 0.01421   -0.642491
 O 0.62421 0.47851 0.88075   -0.639701
 O 0.35733 0.98579 0.50559   -0.642491
 O 0.37579 0.11925 0.52149   -0.639701
 O 0.98579 0.50559 0.35733   -0.642491
 O 0.11925 0.52149 0.37579   -0.639701
 O 0.50559 0.35733 0.98579   -0.642491
 O 0.52149 0.37579 0.11925   -0.639701
