{'_ref': 'TBD', '_srcid': 'CAKYAQ_clean', 'submitters': [{'name': 'Dalar Nazarian Jeff Camp and David Sholl', 'email': 'dalar@gatech.edu jcamp6@gatech.edu'}], '_method': 'VASP DFT with PBE;DDEC'}
data_Cd3H40C36(N4Cl)6
_symmetry_space_group_name_H-M   'P 1'
_cell_length_a   8.78090000
_cell_length_b   11.38330000
_cell_length_c   28.23330000
_cell_angle_alpha   90.00000000
_cell_angle_beta   90.00000000
_cell_angle_gamma   90.00000000
_symmetry_Int_Tables_number   1
_chemical_formula_structural   Cd3H40C36(N4Cl)6
_chemical_formula_sum   'Cd6 H80 C72 N48 Cl12'
_cell_volume   2822.07697707
_cell_formula_units_Z   2
loop_
 _symmetry_equiv_pos_site_id
 _symmetry_equiv_pos_as_xyz
  1  'x, y, z'
loop_
 _atom_site_label
 _atom_site_fract_x
 _atom_site_fract_y
 _atom_site_fract_z
 _atom_site_charge
 Cd 0.68336 0.50028 0.38328   0.877206
 Cd 0.31656 0.49958 0.61673   0.877735
 Cd 0.18345 0.99937 0.11675   0.877345
 Cd 0.81664 0.99937 0.88328   0.87752
 Cd 0.50004 0.49995 0.5   0.655939
 Cd 0.000390000000003 0.99933 3.99999999985e-05   0.656929
 H 0.51861 0.2539 0.34438   0.126874
 H 0.29021 0.25794 0.47513   0.131675
 H 0.83393 0.18431 0.43974   0.127222
 H 0.18122 0.19224 0.32545   0.147065
 H 0.35273 0.11193 0.31408   0.113783
 H 0.14994 0.10761 0.45568   0.114886
 H 0.06747 0.1912 0.40866   0.142376
 H 0.93226 0.07952 0.34246   0.12042
 H 0.48213 0.25392 0.65559   0.126706
 H 0.71178 0.25878 0.52505   0.131851
 H 0.1664 0.18347 0.56024   0.127469
 H 0.81974 0.19189 0.67464   0.147361
 H 0.64782 0.11205 0.68594   0.113683
 H 0.8505 0.10735 0.54435   0.114756
 H 0.93345 0.19067 0.59137   0.142283
 H 0.06801 0.07856 0.65755   0.120269
 H 0.01875 0.24578 0.1555   0.126563
 H 0.78963 0.24117 0.02487   0.131818
 H 0.33371 0.31571 0.06014   0.127136
 H 0.68101 0.30714 0.17448   0.147259
 H 0.85264 0.38727 0.18588   0.113859
 H 0.64991 0.39212 0.04428   0.114831
 H 0.56726 0.30847 0.09123   0.142673
 H 0.43226 0.42008 0.15753   0.120664
 H 0.98097 0.24588 0.84457   0.126873
 H 0.21073 0.24095 0.97509   0.132056
 H 0.66623 0.31572 0.93988   0.127112
 H 0.31889 0.30697 0.82558   0.14705
 H 0.1473 0.38712 0.81414   0.11365
 H 0.34996 0.39221 0.95575   0.114643
 H 0.43263 0.30845 0.90882   0.142176
 H 0.5677 0.41992 0.8425   0.120712
 H 0.48131 0.74608 0.65559   0.126833
 H 0.70972 0.742 0.52484   0.131688
 H 0.16612 0.81568 0.56027   0.127371
 H 0.81867 0.80757 0.67448   0.147224
 H 0.64719 0.8879 0.68588   0.113752
 H 0.85003 0.8924 0.54429   0.114614
 H 0.93247 0.80874 0.59129   0.142104
 H 0.06771 0.92032 0.65752   0.120593
 H 0.51787 0.74605 0.34443   0.126856
 H 0.28829 0.74119 0.47498   0.13152
 H 0.83353 0.81652 0.43976   0.127568
 H 0.18028 0.80791 0.32542   0.14723
 H 0.35215 0.88779 0.31409   0.113677
 H 0.14952 0.89267 0.45568   0.114654
 H 0.06657 0.80927 0.40868   0.14242
 H 0.93192 0.92129 0.34248   0.120576
 H 0.98243 0.75385 0.84422   0.126603
 H 0.21093 0.75778 0.97496   0.131164
 H 0.666 0.6835 0.93964   0.127348
 H 0.31934 0.69129 0.82527   0.147482
 H 0.14753 0.61125 0.81401   0.114046
 H 0.35035 0.6071 0.95558   0.115089
 H 0.4331 0.69036 0.9085   0.142778
 H 0.56785 0.57816 0.84241   0.120286
 H 0.01743 0.75386 0.15577   0.126739
 H 0.78948 0.75761 0.02494   0.131169
 H 0.33388 0.6835 0.06036   0.127604
 H 0.68069 0.69146 0.17466   0.147359
 H 0.85245 0.6114 0.18595   0.113958
 H 0.64959 0.60709 0.04439   0.115004
 H 0.56689 0.69041 0.09146   0.143098
 H 0.4321 0.57832 0.15757   0.120235
 H 0.32637 0.99977 0.23215   0.13269
 H 0.8637 0.99999 0.26905   0.125536
 H 0.48413 0.99954 0.38183   0.121624
 H 0.40079 0.99965 0.43991   0.163545
 H 0.6735 0.99935 0.76785   0.132412
 H 0.13618 0.99967 0.73096   0.125703
 H 0.51584 0.000450000000001 0.61815   0.121564
 H 0.59919 0.000410000000002 0.56009   0.163322
 H 0.82657 0.49952 0.26785   0.132505
 H 0.36387 0.49976 0.23097   0.125778
 H 0.98418 0.49968 0.11816   0.121482
 H 0.90085 0.49978 0.06009   0.163402
 H 0.17345 0.49901 0.73213   0.132388
 H 0.63612 0.4992 0.76904   0.125883
 H 0.01575 0.49969 0.88182   0.121536
 H 0.09907 0.49987 0.9399   0.163427
 C 0.48078 0.27543 0.37978   0.061667
 C 0.36449 0.27773 0.44579   0.088086
 C 0.80449 0.09325 0.44496   0.061629
 C 0.24551 0.11144 0.335   -0.373371
 C 0.28279 0.11208 0.38948   0.333861
 C 0.13001 0.10947 0.41696   -0.374167
 C 0.52047 0.27578 0.62028   0.062377
 C 0.63738 0.27851 0.55438   0.088119
 C 0.19566 0.09236 0.55503   0.061293
 C 0.75507 0.11131 0.66504   -0.373059
 C 0.7179 0.11223 0.61057   0.333387
 C 0.87053 0.10913 0.58307   -0.374386
 C 0.98071 0.22408 0.12013   0.062217
 C 0.86408 0.22149 0.05419   0.087677
 C 0.3044 0.40682 0.05499   0.062237
 C 0.74541 0.38791 0.16496   -0.373438
 C 0.78267 0.38734 0.11048   0.3335
 C 0.62992 0.39017 0.08299   -0.374926
 C 0.01919 0.22411 0.87991   0.061434
 C 0.13616 0.22134 0.94579   0.086962
 C 0.69554 0.40683 0.94502   0.062083
 C 0.25453 0.38778 0.83506   -0.372504
 C 0.21726 0.38733 0.88953   0.333128
 C 0.36999 0.39018 0.91704   -0.374063
 C 0.51914 0.72454 0.62019   0.061932
 C 0.63542 0.72222 0.55418   0.087626
 C 0.19553 0.90675 0.55505   0.061308
 C 0.75441 0.88841 0.66496   -0.374031
 C 0.71715 0.88787 0.61049   0.333913
 C 0.86994 0.89049 0.58301   -0.373372
 C 0.47954 0.72418 0.37974   0.062282
 C 0.36267 0.72145 0.44565   0.08846
 C 0.80429 0.90763 0.44497   0.06088
 C 0.2449 0.88853 0.33499   -0.372758
 C 0.28211 0.88772 0.38946   0.333686
 C 0.12947 0.89083 0.41696   -0.37424
 C 0.02046 0.77546 0.8796   0.062449
 C 0.13684 0.77774 0.94559   0.088539
 C 0.69541 0.59244 0.94491   0.062327
 C 0.2548 0.61068 0.83491   -0.374559
 C 0.21764 0.61168 0.88937   0.333465
 C 0.37031 0.60879 0.91686   -0.375371
 C 0.97963 0.77538 0.12037   0.062641
 C 0.86356 0.77755 0.05432   0.088839
 C 0.3045 0.59243 0.05509   0.061827
 C 0.74519 0.61081 0.16505   -0.374146
 C 0.78235 0.61169 0.11058   0.334053
 C 0.62966 0.60882 0.08311   -0.375755
 C 0.20322 0.99996 0.23087   0.054488
 C 0.97007 1.99999999992e-05 0.24982   0.082315
 C 0.15047 0.000109999999999 0.32124   0.328581
 C 0.03432 0.00027 0.40442   0.338139
 C 0.00121 0.000320000000002 0.35113   -0.380453
 C 0.37431 0.99972 0.40155   -0.410828
 C 0.79665 0.99952 0.76914   0.054792
 C 0.0298 0.99963 0.75019   0.080928
 C 0.84946 0.99968 0.67876   0.328574
 C 0.96566 0.99966 0.59558   0.338381
 C 0.99874 0.99952 0.64888   -0.380465
 C 0.62566 0.00027 0.59844   -0.410243
 C 0.70342 0.49945 0.26914   0.055078
 C 0.47025 0.49961 0.2502   0.080853
 C 0.65059 0.4993 0.17876   0.328604
 C 0.53437 0.49942 0.09559   0.339419
 C 0.5013 0.49926 0.14889   -0.380866
 C 0.87437 0.49963 0.09844   -0.409766
 C 0.2966 0.49922 0.73085   0.055513
 C 0.52975 0.49923 0.74981   0.080645
 C 0.34938 0.49911 0.82123   0.328575
 C 0.46557 0.49938 0.9044   0.339468
 C 0.49866 0.49911 0.85111   -0.380672
 C 0.12556 0.49966 0.90154   -0.410005
 N 0.53425 0.367 0.40502   -0.156026
 N 0.46199 0.36878 0.44628   -0.126979
 N 0.37142 0.21756 0.4041   0.009781
 N 0.67643 0.05862 0.46692   -0.257393
 N 0.46709 0.36737 0.59506   -0.156603
 N 0.53967 0.36943 0.55386   -0.126404
 N 0.63005 0.21811 0.59601   0.010231
 N 0.32364 0.0576 0.53307   -0.256947
 N 0.03412 0.13245 0.09493   -0.156495
 N 0.96172 0.13051 0.0537   -0.126766
 N 0.87117 0.2818 0.09584   0.010514
 N 0.17643 0.44165 0.03303   -0.257706
 N 0.96597 0.13237 0.90509   -0.155947
 N 0.03859 0.13032 0.94628   -0.126542
 N 0.12878 0.2818 0.90418   0.011025
 N 0.82352 0.44168 0.96697   -0.257428
 N 0.46571 0.63292 0.59497   -0.156923
 N 0.53797 0.63114 0.55371   -0.126253
 N 0.62846 0.78242 0.59586   0.010091
 N 0.32357 0.94139 0.53308   -0.257075
 N 0.53288 0.63255 0.40495   -0.156393
 N 0.46035 0.6305 0.44615   -0.126762
 N 0.37 0.78187 0.40403   0.010217
 N 0.67632 0.94242 0.46693   -0.256696
 N 0.96707 0.86701 0.90485   -0.156906
 N 0.03943 0.86883 0.94609   -0.126627
 N 0.1297 0.71753 0.90392   0.010174
 N 0.82343 0.55789 0.96689   -0.257257
 N 0.03323 0.86684 0.09511   -0.157603
 N 0.96111 0.86857 0.05383   -0.126228
 N 0.87043 0.71745 0.09602   0.009684
 N 0.17649 0.55786 0.0331   -0.257025
 N 0.12059 0.99991 0.19016   -0.112777
 N 0.97544 0.9999 0.20228   -0.301361
 N 0.11109 0.000100000000003 0.26957   -0.008742
 N 0.8891 0.000390000000003 0.43107   -0.001866
 N 0.87928 0.99966 0.80985   -0.112596
 N 0.02443 0.99969 0.79772   -0.301104
 N 0.8888 0.99955 0.73043   -0.007784
 N 0.11089 0.99959 0.56894   -0.002104
 N 0.6208 0.49971 0.30985   -0.112465
 N 0.47565 0.49987 0.29773   -0.301463
 N 0.61125 0.4993 0.23044   -0.007844
 N 0.38914 0.49954 0.06895   -0.002832
 N 0.37925 0.49967 0.69014   -0.112681
 N 0.52439 0.49962 0.70227   -0.300973
 N 0.38874 0.499 0.76956   -0.008623
 N 0.61078 0.49953 0.93105   -0.003133
 Cl 0.88904 0.36599 0.37131   -0.696096
 Cl 0.24501 0.49901 0.5325   -0.528674
 Cl 0.11256 0.36408 0.62912   -0.695801
 Cl 0.38819 0.13442 0.12876   -0.695993
 Cl 0.61204 0.13458 0.87134   -0.695961
 Cl 0.11113 0.63405 0.62878   -0.696335
 Cl 0.75513 0.50097 0.46749   -0.528525
 Cl 0.88716 0.63597 0.37079   -0.696101
 Cl 0.74536 0.99829 0.96754   -0.529246
 Cl 0.61185 0.86452 0.87091   -0.695904
 Cl 0.25538 0.99854 0.03256   -0.528434
 Cl 0.38808 0.86441 0.12928   -0.695976
