{'_ref': 'TBD', '_srcid': 'CAKYAQ_clean', 'submitters': [{'name': 'Dalar Nazarian Jeff Camp and David Sholl', 'email': 'dalar@gatech.edu jcamp6@gatech.edu'}], '_method': 'VASP DFT with PBE;DDEC'}
data_Mn3H40C62N4O15
_symmetry_space_group_name_H-M   'P 1'
_cell_length_a   11.09219952
_cell_length_b   11.09219991
_cell_length_c   25.80500000
_cell_angle_alpha   91.88029942
_cell_angle_beta   91.88029949
_cell_angle_gamma   100.19899912
_symmetry_Int_Tables_number   1
_chemical_formula_structural   Mn3H40C62N4O15
_chemical_formula_sum   'Mn6 H80 C124 N8 O30'
_cell_volume   3120.70778394
_cell_formula_units_Z   2
loop_
 _symmetry_equiv_pos_site_id
 _symmetry_equiv_pos_as_xyz
  1  'x, y, z'
loop_
 _atom_site_label
 _atom_site_fract_x
 _atom_site_fract_y
 _atom_site_fract_z
 _atom_site_charge
 Mn 0.33071 0.68497 0.49218   0.961599
 Mn 0.31503 0.66929 0.00782   0.9616
 Mn 0.66929 0.31503 0.50782   0.961599
 Mn 0.68497 0.33071 0.99218   0.9616
 Mn 0.5 0.0 0.5   1.207525
 Mn 0.0 0.5 0.0   1.207526
 H 0.7157 0.9045 0.6283   0.102177
 H 0.8512 0.853 0.6907   0.123483
 H 0.7172 0.497 0.6616   0.136469
 H 0.5782 0.5484 0.6013   0.089778
 H 0.6784 0.6232 0.7636   0.131105
 H 0.6382 0.5478 0.8449   0.094702
 H 0.9793 0.4775 0.8594   0.097088
 H 0.0188 0.5494 0.7774   0.134308
 H 0.1155 0.1179 0.6865   0.125862
 H 0.2031 0.0969 0.6073   0.082079
 H 0.1989 0.7429 0.6317   0.092285
 H 0.1134 0.7632 0.7112   0.126715
 H 0.3023 0.2283 0.5398   0.125306
 H 0.1207 0.1533 0.4941   0.105748
 H 0.0211 0.2865 0.4499   0.1166
 H 0.3767 0.4353 0.5419   0.079546
 H 0.9354 0.4228 0.4122   0.119602
 H 0.8671 0.5699 0.3643   0.101577
 H 0.982 0.7648 0.3646   0.119582
 H 0.1628 0.8096 0.4148   0.093659
 H 0.0955 0.2843 0.8717   0.102176
 H 0.147 0.1488 0.8093   0.123483
 H 0.503 0.2828 0.8384   0.136469
 H 0.4516 0.4218 0.8987   0.089777
 H 0.3768 0.3216 0.7364   0.131103
 H 0.4522 0.3618 0.6551   0.094702
 H 0.5225 0.0207 0.6406   0.097087
 H 0.4506 0.9812 0.7226   0.134308
 H 0.8821 0.8845 0.8135   0.125861
 H 0.9031 0.7969 0.8927   0.082091
 H 0.2571 0.8011 0.8683   0.092285
 H 0.2368 0.8866 0.7888   0.126714
 H 0.7717 0.6977 0.9602   0.125305
 H 0.8467 0.8793 0.0059   0.105751
 H 0.7135 0.9789 0.0501   0.1166
 H 0.5647 0.6233 0.9581   0.079546
 H 0.5772 0.0646 0.0878   0.119602
 H 0.4301 0.1329 0.1357   0.101577
 H 0.2352 0.018 0.1354   0.119582
 H 0.1904 0.8372 0.0852   0.093659
 H 0.2843 0.0955 0.3717   0.102178
 H 0.1488 0.147 0.3093   0.123483
 H 0.2828 0.503 0.3384   0.136469
 H 0.4218 0.4516 0.3987   0.089778
 H 0.3216 0.3768 0.2364   0.131105
 H 0.3618 0.4522 0.1551   0.094702
 H 0.0207 0.5225 0.1406   0.097088
 H 0.9812 0.4506 0.2226   0.134309
 H 0.8845 0.8821 0.3135   0.125864
 H 0.7969 0.9031 0.3927   0.082079
 H 0.8011 0.2571 0.3683   0.092286
 H 0.8866 0.2368 0.2888   0.126715
 H 0.6977 0.7717 0.4602   0.125306
 H 0.8793 0.8467 0.5059   0.105751
 H 0.9789 0.7135 0.5501   0.1166
 H 0.6233 0.5647 0.4581   0.079546
 H 0.0646 0.5772 0.5878   0.119602
 H 0.1329 0.4301 0.6357   0.101578
 H 0.018 0.2352 0.6354   0.119585
 H 0.8372 0.1904 0.5852   0.09366
 H 0.9045 0.7157 0.1283   0.102178
 H 0.853 0.8512 0.1907   0.123483
 H 0.497 0.7172 0.1616   0.136469
 H 0.5484 0.5782 0.1013   0.089778
 H 0.6232 0.6784 0.2636   0.131103
 H 0.5478 0.6382 0.3449   0.094702
 H 0.4775 0.9793 0.3594   0.097087
 H 0.5494 0.0188 0.2774   0.134308
 H 0.1179 0.1155 0.1865   0.125864
 H 0.0969 0.2031 0.1073   0.082092
 H 0.7429 0.1989 0.1317   0.092286
 H 0.7632 0.1134 0.2112   0.126714
 H 0.2283 0.3023 0.0398   0.125305
 H 0.1533 0.1207 0.9941   0.105754
 H 0.2865 0.0211 0.9499   0.1166
 H 0.4353 0.3767 0.0419   0.079546
 H 0.4228 0.9354 0.9122   0.119602
 H 0.5699 0.8671 0.8643   0.101578
 H 0.7648 0.982 0.8646   0.119585
 H 0.8096 0.1628 0.9148   0.09366
 C 0.5444 0.76208 0.56716   0.692342
 C 0.63233 0.73131 0.60829   -0.196026
 C 0.71509 0.82257 0.63513   0.002223
 C 0.79693 0.79183 0.67222   -0.233674
 C 0.7973 0.6703 0.68144   0.276923
 C 0.7164 0.57886 0.65512   -0.240683
 C 0.63384 0.61004 0.61891   0.02187
 C 0.85287 0.59369 0.76295   0.300512
 C 0.73858 0.59348 0.78269   -0.272869
 C 0.71509 0.54837 0.83142   0.019923
 C 0.80379 0.50397 0.86053   -0.210175
 C 0.91843 0.50581 0.84014   0.029907
 C 0.94243 0.54961 0.79121   -0.253521
 C 0.77312 0.45358 0.9122   0.664002
 C 0.10336 0.94174 0.70546   0.292056
 C 0.13152 0.04208 0.67523   -0.244465
 C 0.18402 0.02922 0.62782   0.007242
 C 0.20818 0.91722 0.61076   -0.188437
 C 0.18159 0.81851 0.64259   0.008095
 C 0.12994 0.82992 0.69006   -0.242817
 C 0.26434 0.89928 0.5594   0.703981
 C 0.26039 0.28073 0.52199   -0.165033
 C 0.15337 0.23659 0.4947   0.016198
 C 0.09455 0.31561 0.46829   -0.152447
 C 0.1452 0.44006 0.46906   0.165496
 C 0.30479 0.40489 0.52258   0.179365
 C 0.0924 0.53072 0.43921   0.184936
 C 0.98147 0.50133 0.41161   -0.150852
 C 0.9407 0.5887 0.38359   0.013999
 C 0.0084 0.7044 0.38392   -0.183353
 C 0.11755 0.73045 0.41369   0.167362
 C 0.23792 0.4556 0.93284   0.692341
 C 0.26869 0.36767 0.89171   -0.196026
 C 0.17743 0.28491 0.86487   0.002223
 C 0.20817 0.20307 0.82778   -0.233674
 C 0.3297 0.2027 0.81856   0.276923
 C 0.42114 0.2836 0.84488   -0.240683
 C 0.38996 0.36616 0.88109   0.021871
 C 0.40631 0.14713 0.73705   0.300512
 C 0.40652 0.26142 0.71731   -0.27287
 C 0.45163 0.28491 0.66858   0.019923
 C 0.49603 0.19621 0.63947   -0.210175
 C 0.49419 0.08157 0.65986   0.029907
 C 0.45039 0.05757 0.70879   -0.253521
 C 0.54642 0.22688 0.5878   0.664002
 C 0.05826 0.89664 0.79454   0.292055
 C 0.95792 0.86848 0.82477   -0.244463
 C 0.97078 0.81598 0.87218   0.007226
 C 0.08278 0.79182 0.88924   -0.188435
 C 0.18149 0.81841 0.85741   0.008094
 C 0.17008 0.87006 0.80994   -0.242816
 C 0.10072 0.73566 0.9406   0.703981
 C 0.71927 0.73961 0.97801   -0.165032
 C 0.76341 0.84663 0.0053   0.016194
 C 0.68439 0.90545 0.03171   -0.152447
 C 0.55994 0.8548 0.03094   0.165496
 C 0.59511 0.69521 0.97742   0.179365
 C 0.46928 0.9076 0.06079   0.184937
 C 0.49867 0.01853 0.08839   -0.150852
 C 0.4113 0.0593 0.11641   0.013999
 C 0.2956 0.9916 0.11608   -0.183354
 C 0.26955 0.88245 0.08631   0.167362
 C 0.4556 0.23792 0.43284   0.692342
 C 0.36767 0.26869 0.39171   -0.196026
 C 0.28491 0.17743 0.36487   0.002223
 C 0.20307 0.20817 0.32778   -0.233674
 C 0.2027 0.3297 0.31856   0.276924
 C 0.2836 0.42114 0.34488   -0.240683
 C 0.36616 0.38996 0.38109   0.02187
 C 0.14713 0.40631 0.23705   0.300512
 C 0.26142 0.40652 0.21731   -0.272869
 C 0.28491 0.45163 0.16858   0.019923
 C 0.19621 0.49603 0.13947   -0.210175
 C 0.08157 0.49419 0.15986   0.029907
 C 0.05757 0.45039 0.20879   -0.253521
 C 0.22688 0.54642 0.0878   0.664002
 C 0.89664 0.05826 0.29454   0.292057
 C 0.86848 0.95792 0.32477   -0.244466
 C 0.81598 0.97078 0.37218   0.007243
 C 0.79182 0.08278 0.38924   -0.188437
 C 0.81841 0.18149 0.35741   0.008095
 C 0.87006 0.17008 0.30994   -0.242817
 C 0.73566 0.10072 0.4406   0.703981
 C 0.73961 0.71927 0.47801   -0.165032
 C 0.84663 0.76341 0.5053   0.016198
 C 0.90545 0.68439 0.53171   -0.152446
 C 0.8548 0.55994 0.53094   0.165496
 C 0.69521 0.59511 0.47742   0.179366
 C 0.9076 0.46928 0.56079   0.184937
 C 0.01853 0.49867 0.58839   -0.150852
 C 0.0593 0.4113 0.61641   0.014
 C 0.9916 0.2956 0.61608   -0.183353
 C 0.88245 0.26955 0.58631   0.167363
 C 0.76208 0.5444 0.06716   0.692341
 C 0.73131 0.63233 0.10829   -0.196026
 C 0.82257 0.71509 0.13513   0.002223
 C 0.79183 0.79693 0.17222   -0.233674
 C 0.6703 0.7973 0.18144   0.276923
 C 0.57886 0.7164 0.15512   -0.240683
 C 0.61004 0.63384 0.11891   0.02187
 C 0.59369 0.85287 0.26295   0.300512
 C 0.59348 0.73858 0.28269   -0.27287
 C 0.54837 0.71509 0.33142   0.019923
 C 0.50397 0.80379 0.36053   -0.210175
 C 0.50581 0.91843 0.34014   0.029907
 C 0.54961 0.94243 0.29121   -0.253521
 C 0.45358 0.77312 0.4122   0.664002
 C 0.94174 0.10336 0.20546   0.292055
 C 0.04208 0.13152 0.17523   -0.244464
 C 0.02922 0.18402 0.12782   0.007226
 C 0.91722 0.20818 0.11076   -0.188435
 C 0.81851 0.18159 0.14259   0.008094
 C 0.82992 0.12994 0.19006   -0.242816
 C 0.89928 0.26434 0.0594   0.703981
 C 0.28073 0.26039 0.02199   -0.165031
 C 0.23659 0.15337 0.9947   0.016194
 C 0.31561 0.09455 0.96829   -0.152445
 C 0.44006 0.1452 0.96906   0.165496
 C 0.40489 0.30479 0.02258   0.179366
 C 0.53072 0.0924 0.93921   0.184937
 C 0.50133 0.98147 0.91161   -0.150852
 C 0.5887 0.9407 0.88359   0.014
 C 0.7044 0.0084 0.88392   -0.183353
 C 0.73045 0.11755 0.91369   0.167363
 N 0.24941 0.48389 0.49668   -0.36013
 N 0.15843 0.64473 0.44053   -0.343352
 N 0.51611 0.75059 0.00332   -0.36013
 N 0.35527 0.84157 0.05947   -0.343352
 N 0.75059 0.51611 0.50332   -0.36013
 N 0.84157 0.35527 0.55947   -0.343352
 N 0.48389 0.24941 0.99668   -0.36013
 N 0.64473 0.15843 0.94053   -0.343352
 O 0.55609 0.86949 0.55308   -0.624097
 O 0.46407 0.67387 0.54965   -0.595421
 O 0.887 0.6411 0.7158   -0.267503
 O 0.6646 0.44374 0.92606   -0.558634
 O 0.8535 0.41666 0.94081   -0.648821
 O 0.3289 0.98988 0.54006   -0.619331
 O 0.24152 0.79202 0.53985   -0.621896
 O 0.13051 0.44391 0.94692   -0.624097
 O 0.32613 0.53593 0.95035   -0.595421
 O 0.3589 0.113 0.7842   -0.267503
 O 0.55626 0.3354 0.57394   -0.558634
 O 0.58334 0.1465 0.55919   -0.648821
 O 0.01012 0.6711 0.95994   -0.619331
 O 0.20798 0.75848 0.96015   -0.621896
 O 0.44391 0.13051 0.44692   -0.624097
 O 0.53593 0.32613 0.45035   -0.595421
 O 0.113 0.3589 0.2842   -0.267503
 O 0.3354 0.55626 0.07394   -0.558634
 O 0.1465 0.58334 0.05919   -0.648821
 O 0.6711 0.01012 0.45994   -0.619331
 O 0.75848 0.20798 0.46015   -0.621896
 O 0.86949 0.55609 0.05308   -0.624097
 O 0.67387 0.46407 0.04965   -0.595421
 O 0.6411 0.887 0.2158   -0.267503
 O 0.44374 0.6646 0.42606   -0.558634
 O 0.41666 0.8535 0.44081   -0.648821
 O 0.98988 0.3289 0.04006   -0.619331
 O 0.79202 0.24152 0.03985   -0.621896
 O 0.0402 0.9598 0.75   -0.271867
 O 0.9598 0.0402 0.25   -0.271867
