{'_ref': 'TBD', '_srcid': 'CAKYAQ_clean', 'submitters': [{'name': 'Dalar Nazarian Jeff Camp and David Sholl', 'email': 'dalar@gatech.edu jcamp6@gatech.edu'}], '_method': 'VASP DFT with PBE;DDEC'}
data_MnH15C19S(NO2)3
_symmetry_space_group_name_H-M   'P 1'
_cell_length_a   8.70700000
_cell_length_b   11.67800028
_cell_length_c   28.00500000
_cell_angle_alpha   90.00000000
_cell_angle_beta   90.00000000
_cell_angle_gamma   104.20000141
_symmetry_Int_Tables_number   1
_chemical_formula_structural   MnH15C19S(NO2)3
_chemical_formula_sum   'Mn4 H60 C76 S4 N12 O24'
_cell_volume   2760.55199837
_cell_formula_units_Z   4
loop_
 _symmetry_equiv_pos_site_id
 _symmetry_equiv_pos_as_xyz
  1  'x, y, z'
loop_
 _atom_site_label
 _atom_site_fract_x
 _atom_site_fract_y
 _atom_site_fract_z
 _atom_site_charge
 Mn 0.19194 0.36568 0.19905   1.02224
 Mn 0.30806 0.63432 0.69905   1.02224
 Mn 0.80806 0.63432 0.80095   1.02224
 Mn 0.69194 0.36568 0.30095   1.02224
 H 0.4334 0.4966 0.1278   0.308669
 H 0.6323 0.3909 0.1292   0.122473
 H 0.7394 0.5036 0.1532   0.110197
 H 0.4886 0.6795 0.0189   0.115832
 H 0.5896 0.6665 0.9426   0.101484
 H 0.9868 0.6118 0.999   0.105964
 H 0.8848 0.6222 0.075   0.09972
 H 0.0573 0.557 0.1445   0.073324
 H 0.0499 0.7505 0.144   0.122986
 H 0.3441 0.8039 0.2548   0.116501
 H 0.3454 0.6078 0.2516   0.074101
 H 0.0419 0.1185 0.1484   0.083957
 H 0.0352 0.9239 0.148   0.141537
 H 0.3472 0.9826 0.2524   0.113224
 H 0.3262 0.1731 0.2546   0.067748
 H 0.0666 0.5034 0.6278   0.308669
 H 0.8677 0.6091 0.6292   0.122473
 H 0.7606 0.4964 0.6532   0.110197
 H 0.0114 0.3205 0.5189   0.115832
 H 0.9104 0.3335 0.4426   0.101484
 H 0.5132 0.3882 0.499   0.105964
 H 0.6152 0.3778 0.575   0.09972
 H 0.4427 0.443 0.6445   0.073324
 H 0.4501 0.2495 0.644   0.122986
 H 0.1559 0.1961 0.7548   0.116501
 H 0.1546 0.3922 0.7516   0.074101
 H 0.4581 0.8815 0.6484   0.083957
 H 0.4648 0.0761 0.648   0.141537
 H 0.1528 0.0174 0.7524   0.113224
 H 0.1738 0.8269 0.7546   0.067748
 H 0.5666 0.5034 0.8722   0.308669
 H 0.3677 0.6091 0.8708   0.122473
 H 0.2606 0.4964 0.8468   0.110197
 H 0.5114 0.3205 0.9811   0.115831
 H 0.4104 0.3335 0.0574   0.101484
 H 0.0132 0.3882 0.000999999999998   0.105964
 H 0.1152 0.3778 0.925   0.09972
 H 0.9427 0.443 0.8555   0.073324
 H 0.9501 0.2495 0.856   0.122986
 H 0.6559 0.1961 0.7452   0.116501
 H 0.6546 0.3922 0.7484   0.074101
 H 0.9581 0.8815 0.8516   0.083957
 H 0.9648 0.0761 0.852   0.141537
 H 0.6528 0.0174 0.7476   0.113224
 H 0.6738 0.8269 0.7454   0.067748
 H 0.9334 0.4966 0.3722   0.308669
 H 0.1323 0.3909 0.3708   0.122473
 H 0.2394 0.5036 0.3468   0.110197
 H 0.9886 0.6795 0.4811   0.115831
 H 0.0896 0.6665 0.5574   0.101484
 H 0.4868 0.6118 0.501   0.105964
 H 0.3848 0.6222 0.425   0.09972
 H 0.5573 0.557 0.3555   0.073324
 H 0.5499 0.7505 0.356   0.122986
 H 0.8441 0.8039 0.2452   0.116501
 H 0.8454 0.6078 0.2484   0.074101
 H 0.5419 0.1185 0.3516   0.083957
 H 0.5352 0.9239 0.352   0.141537
 H 0.8472 0.9826 0.2476   0.113224
 H 0.8262 0.1731 0.2454   0.067748
 C 0.5779 0.4063 0.19919   0.698459
 C 0.6316 0.4559 0.1507   -0.100499
 C 0.678 0.6493 0.0538   -0.221365
 C 0.5882 0.665 0.0148   -0.043958
 C 0.6504 0.6587 0.9692   -0.059626
 C 0.7986 0.6413 0.9627   -0.112028
 C 0.8869 0.6257 0.0028   -0.044827
 C 0.8253 0.6311 0.0483   -0.04487
 C 0.8677 0.6395 0.9136   0.670001
 C 0.116 0.6074 0.1672   0.192051
 C 0.111 0.724 0.1668   -0.157973
 C 0.196 0.8026 0.2   0.087027
 C 0.2839 0.7556 0.2317   -0.1762
 C 0.2838 0.6368 0.2298   0.1928
 C 0.1045 0.0914 0.1705   0.174222
 C 0.1011 0.9735 0.1696   -0.193476
 C 0.1931 0.9287 0.1998   0.115185
 C 0.2803 0.0072 0.2309   -0.19487
 C 0.2707 0.124 0.231   0.197362
 C 0.9221 0.5937 0.69919   0.698459
 C 0.8684 0.5441 0.6507   -0.100499
 C 0.822 0.3507 0.5538   -0.221365
 C 0.9118 0.335 0.5148   -0.043958
 C 0.8496 0.3413 0.4692   -0.059626
 C 0.7014 0.3587 0.4627   -0.112028
 C 0.6131 0.3743 0.5028   -0.044827
 C 0.6747 0.3689 0.5483   -0.04487
 C 0.6323 0.3605 0.4136   0.670001
 C 0.384 0.3926 0.6672   0.192051
 C 0.389 0.276 0.6668   -0.157973
 C 0.304 0.1974 0.7   0.087027
 C 0.2161 0.2444 0.7317   -0.1762
 C 0.2162 0.3632 0.7298   0.1928
 C 0.3955 0.9086 0.6705   0.174222
 C 0.3989 0.0265 0.6696   -0.193476
 C 0.3069 0.0713 0.6998   0.115185
 C 0.2197 0.9928 0.7309   -0.19487
 C 0.2293 0.876 0.731   0.197362
 C 0.4221 0.5937 0.80081   0.698459
 C 0.3684 0.5441 0.8493   -0.100499
 C 0.322 0.3507 0.9462   -0.221365
 C 0.4118 0.335 0.9852   -0.043958
 C 0.3496 0.3413 0.0308   -0.059627
 C 0.2014 0.3587 0.0373   -0.112028
 C 0.1131 0.3743 0.9972   -0.044828
 C 0.1747 0.3689 0.9517   -0.04487
 C 0.1323 0.3605 0.0864   0.670001
 C 0.884 0.3926 0.8328   0.192051
 C 0.889 0.276 0.8332   -0.157973
 C 0.804 0.1974 0.8   0.087027
 C 0.7161 0.2444 0.7683   -0.1762
 C 0.7162 0.3632 0.7702   0.1928
 C 0.8955 0.9086 0.8295   0.174222
 C 0.8989 0.0265 0.8304   -0.193477
 C 0.8069 0.0713 0.8002   0.115185
 C 0.7197 0.9928 0.7691   -0.194869
 C 0.7293 0.876 0.769   0.197363
 C 0.0779 0.4063 0.30081   0.698459
 C 0.1316 0.4559 0.3493   -0.100499
 C 0.178 0.6493 0.4462   -0.221365
 C 0.0882 0.665 0.4852   -0.043958
 C 0.1504 0.6587 0.5308   -0.059627
 C 0.2986 0.6413 0.5373   -0.112028
 C 0.3869 0.6257 0.4972   -0.044828
 C 0.3253 0.6311 0.4517   -0.04487
 C 0.3677 0.6395 0.5864   0.670001
 C 0.616 0.6074 0.3328   0.192051
 C 0.611 0.724 0.3332   -0.157973
 C 0.696 0.8026 0.3   0.087027
 C 0.7839 0.7556 0.2683   -0.1762
 C 0.7838 0.6368 0.2702   0.1928
 C 0.6045 0.0914 0.3295   0.174222
 C 0.6011 0.9735 0.3304   -0.193477
 C 0.6931 0.9287 0.3002   0.115185
 C 0.7803 0.0072 0.2691   -0.194869
 C 0.7707 0.124 0.269   0.197363
 S 0.6011 0.6591 0.11214   1.24758
 S 0.8989 0.3409 0.61214   1.24758
 S 0.3989 0.3409 0.88786   1.24758
 S 0.1011 0.6591 0.38786   1.24758
 N 0.5336 0.5272 0.1302   -0.56344
 N 0.1998 0.5633 0.19825   -0.364843
 N 0.1897 0.1704 0.20043   -0.363328
 N 0.9664 0.4728 0.6302   -0.56344
 N 0.3002 0.4367 0.69825   -0.364843
 N 0.3103 0.8296 0.70043   -0.363328
 N 0.4664 0.4728 0.8698   -0.56344
 N 0.8002 0.4367 0.80175   -0.364843
 N 0.8103 0.8296 0.79957   -0.363328
 N 0.0336 0.5272 0.3698   -0.56344
 N 0.6998 0.5633 0.30175   -0.364843
 N 0.6897 0.1704 0.29957   -0.363328
 O 0.4433 0.4066 0.21327   -0.609849
 O 0.6787 0.3702 0.22314   -0.631428
 O 0.4674 0.7079 0.1081   -0.583883
 O 0.7317 0.713 0.1416   -0.61041
 O 0.7735 0.6303 0.87861   -0.647201
 O 0.0121 0.6454 0.91014   -0.63057
 O 0.0567 0.5934 0.71327   -0.609849
 O 0.8213 0.6298 0.72314   -0.631428
 O 0.0326 0.2921 0.6081   -0.583883
 O 0.7683 0.287 0.6416   -0.61041
 O 0.7265 0.3697 0.37861   -0.647201
 O 0.4879 0.3546 0.41014   -0.63057
 O 0.5567 0.5934 0.78673   -0.609849
 O 0.3213 0.6298 0.77686   -0.631428
 O 0.5326 0.2921 0.8919   -0.583883
 O 0.2683 0.287 0.8584   -0.61041
 O 0.2265 0.3697 0.12139   -0.647201
 O 0.9879 0.3546 0.08986   -0.63057
 O 0.9433 0.4066 0.28673   -0.609849
 O 0.1787 0.3702 0.27686   -0.631428
 O 0.9674 0.7079 0.3919   -0.583883
 O 0.2317 0.713 0.3584   -0.61041
 O 0.2735 0.6303 0.62139   -0.647201
 O 0.5121 0.6454 0.58986   -0.63057
