{'_ref': 'TBD', '_srcid': 'CAKYAQ_clean', 'submitters': [{'name': 'Dalar Nazarian Jeff Camp and David Sholl', 'email': 'dalar@gatech.edu jcamp6@gatech.edu'}], '_method': 'VASP DFT with PBE;DDEC'}
data_Co3H44C60N4(O5F6)2
_symmetry_space_group_name_H-M   'P 1'
_cell_length_a   12.48400000
_cell_length_b   14.27499998
_cell_length_c   22.27200000
_cell_angle_alpha   92.71300054
_cell_angle_beta   90.00000000
_cell_angle_gamma   90.00000000
_symmetry_Int_Tables_number   1
_chemical_formula_structural   Co3H44C60N4(O5F6)2
_chemical_formula_sum   'Co6 H88 C120 N8 O20 F24'
_cell_volume   3964.62437683
_cell_formula_units_Z   2
loop_
 _symmetry_equiv_pos_site_id
 _symmetry_equiv_pos_as_xyz
  1  'x, y, z'
loop_
 _atom_site_label
 _atom_site_fract_x
 _atom_site_fract_y
 _atom_site_fract_z
 _atom_site_charge
 Co 0.72792 0.18964 0.22835   0.838325
 Co 0.5504 0.000259999999997 0.24875   1.044252
 Co 0.87783 0.19152 0.72632   0.83201
 Co 0.22792 0.81036 0.77165   0.838325
 Co 0.0504 0.99974 0.75125   1.044252
 Co 0.37783 0.80848 0.27368   0.83201
 H 0.9326 0.3125 0.9056   0.084073
 H 0.9989 0.4015 0.9858   0.097261
 H 0.2658 0.2474 0.9746   0.111569
 H 0.1947 0.1605 0.8937   0.109516
 H 0.1835 0.2257 0.0892   0.091666
 H 0.2868 0.1378 0.1411   0.114096
 H 0.5128 0.3312 0.1351   0.093144
 H 0.4161 0.4195 0.0753   0.109544
 H 0.6727 0.3145 0.4026   0.101992
 H 0.598 0.4019 0.4831   0.088686
 H 0.3329 0.2382 0.475   0.116098
 H 0.4139 0.1454 0.3996   0.117337
 H 0.4345 0.2207 0.5863   0.122085
 H 0.3152 0.1321 0.6458   0.108713
 H 0.0983 0.3408 0.6447   0.100511
 H 0.2166 0.4275 0.5883   0.100801
 H 0.877 0.2701 0.3275   0.08336
 H 0.051 0.2937 0.3479   0.116617
 H 0.1323 0.113 0.2212   0.127309
 H 0.9498 0.0902 0.1968   0.087117
 H 0.2635 0.1723 0.2705   0.129346
 H 0.241 0.2071 0.3378   0.116308
 H 0.2543 0.3395 0.2339   0.081605
 H 0.1938 0.3766 0.2926   0.085077
 H 0.4132 0.3167 0.2897   0.114051
 H 0.3528 0.3452 0.3504   0.091263
 H 0.2905 0.5033 0.3679   0.113483
 H 0.2812 0.6611 0.3499   0.05869
 H 0.4555 0.623 0.2114   0.066626
 H 0.4259 0.4645 0.2108   0.122273
 H 0.6443 0.3747 0.2874   0.066994
 H 0.6476 0.5323 0.2769   0.123062
 H 0.875 0.49 0.1531   0.1195
 H 0.8528 0.3325 0.1621   0.064051
 H 0.7259 0.6407 0.1601   0.089023
 H 0.6973 0.6634 0.228   0.097612
 H 0.8759 0.6718 0.2513   0.045797
 H 0.9058 0.6461 0.185   0.048806
 H 0.8303 0.809 0.2262   0.100662
 H 0.8659 0.7824 0.1602   0.090151
 H 0.9856 0.8898 0.2924   0.151626
 H 0.1608 0.8926 0.313   0.07145
 H 0.2378 0.7306 0.1776   0.068117
 H 0.0639 0.7177 0.1454   0.149299
 H 0.4326 0.6875 0.0944   0.084073
 H 0.4989 0.5985 0.0142   0.097261
 H 0.7658 0.7526 0.0254   0.111569
 H 0.6947 0.8395 0.1063   0.109516
 H 0.6835 0.7743 0.9108   0.091666
 H 0.7868 0.8622 0.8589   0.114096
 H 0.0128 0.6688 0.8649   0.093144
 H 0.9161 0.5805 0.9247   0.109544
 H 0.1727 0.6855 0.5974   0.101992
 H 0.098 0.5981 0.5169   0.088686
 H 0.8329 0.7618 0.525   0.116098
 H 0.9139 0.8546 0.6004   0.117337
 H 0.9345 0.7793 0.4137   0.122086
 H 0.8152 0.8679 0.3542   0.108713
 H 0.5983 0.6592 0.3553   0.100511
 H 0.7166 0.5725 0.4117   0.100801
 H 0.377 0.7299 0.6725   0.08336
 H 0.551 0.7063 0.6521   0.116617
 H 0.6323 0.887 0.7788   0.127309
 H 0.4498 0.9098 0.8032   0.087117
 H 0.7635 0.8277 0.7295   0.129346
 H 0.741 0.7929 0.6622   0.116308
 H 0.7543 0.6605 0.7661   0.081605
 H 0.6938 0.6234 0.7074   0.085077
 H 0.9132 0.6833 0.7103   0.114051
 H 0.8528 0.6548 0.6496   0.091263
 H 0.7905 0.4967 0.6321   0.113483
 H 0.7812 0.3389 0.6501   0.05869
 H 0.9555 0.377 0.7886   0.066625
 H 0.9259 0.5355 0.7892   0.122273
 H 0.1443 0.6253 0.7126   0.066994
 H 0.1476 0.4677 0.7231   0.123061
 H 0.375 0.51 0.8469   0.1195
 H 0.3528 0.6675 0.8379   0.064051
 H 0.2259 0.3593 0.8399   0.089023
 H 0.1973 0.3366 0.772   0.097612
 H 0.3759 0.3282 0.7487   0.045797
 H 0.4058 0.3539 0.815   0.048806
 H 0.3303 0.191 0.7738   0.100661
 H 0.3659 0.2176 0.8398   0.090151
 H 0.4856 0.1102 0.7076   0.151626
 H 0.6608 0.1074 0.687   0.07145
 H 0.7378 0.2694 0.8224   0.068117
 H 0.5639 0.2823 0.8546   0.149299
 C 0.0061 0.1716 0.8381   0.688408
 C 0.0529 0.2258 0.8916   -0.121012
 C 0.000599999999999 0.2983 0.9197   -0.017729
 C 0.04 0.3535 0.9679   -0.17017
 C 0.1421 0.335 0.9884   0.059489
 C 0.1978 0.2618 0.9607   -0.148113
 C 0.1543 0.2084 0.9122   -0.022956
 C 0.2005 0.3938 0.0386   -0.281758
 C 0.277 0.3368 0.0744   0.053807
 C 0.252 0.2484 0.0977   -0.133467
 C 0.3117 0.1954 0.129   -0.028365
 C 0.4147 0.2265 0.1443   -0.107206
 C 0.445 0.3098 0.124   -0.029145
 C 0.3871 0.3647 0.0895   -0.148045
 C 0.4888 0.1714 0.1815   0.679055
 C 0.246 0.4755 0.007   0.703776
 C 0.1166 0.4323 0.086   0.686346
 C 0.5919 0.1661 0.3372   0.647873
 C 0.5478 0.2254 0.3919   -0.121533
 C 0.6056 0.2992 0.4175   -0.031642
 C 0.561 0.3505 0.4663   -0.152681
 C 0.4622 0.3264 0.4905   0.057003
 C 0.402 0.2513 0.4622   -0.157024
 C 0.4484 0.1987 0.4155   -0.031329
 C 0.414 0.3892 0.5434   -0.317298
 C 0.3302 0.3298 0.5803   0.077986
 C 0.3671 0.2434 0.5974   -0.16247
 C 0.2944 0.1908 0.6335   -0.035688
 C 0.195 0.2254 0.6504   -0.124987
 C 0.1644 0.3158 0.6332   -0.022369
 C 0.235 0.3672 0.5987   -0.169043
 C 0.1178 0.1661 0.6883   0.652545
 C 0.501 0.4263 0.5897   0.711937
 C 0.352 0.4707 0.5115   0.69187
 C 0.9281 0.2391 0.3035   0.162417
 C 0.0326 0.2519 0.3163   -0.233302
 C 0.1112 0.2076 0.2858   0.195043
 C 0.0806 0.1476 0.2426   -0.247759
 C 0.969 0.1336 0.2274   0.170139
 C 0.2233 0.2166 0.2961   -0.222267
 C 0.2491 0.3344 0.277   -0.114995
 C 0.356 0.3544 0.3076   -0.19054
 C 0.3681 0.4673 0.2929   0.143044
 C 0.3209 0.5257 0.3333   -0.232579
 C 0.318 0.622 0.3224   0.161651
 C 0.412 0.5993 0.2411   0.184518
 C 0.405 0.5033 0.2434   -0.210284
 C 0.6886 0.3983 0.2582   0.199011
 C 0.692 0.4931 0.2535   -0.236083
 C 0.762 0.5289 0.2141   0.171905
 C 0.8248 0.4678 0.1798   -0.226206
 C 0.812 0.3737 0.1861   0.160422
 C 0.7501 0.6344 0.2011   -0.185134
 C 0.8557 0.6822 0.2101   -0.052858
 C 0.8785 0.7696 0.202   -0.178755
 C 0.998 0.797 0.2187   0.148664
 C 0.033 0.855 0.2684   -0.235245
 C 0.1387 0.8571 0.2791   0.17176
 C 0.1854 0.7627 0.1999   0.20295
 C 0.081 0.7519 0.1807   -0.263966
 C 0.5061 0.8284 0.1619   0.688408
 C 0.5529 0.7742 0.1084   -0.121012
 C 0.5006 0.7017 0.0803   -0.017729
 C 0.54 0.6465 0.0321   -0.17017
 C 0.6421 0.665 0.0116   0.059489
 C 0.6978 0.7382 0.0393   -0.148113
 C 0.6543 0.7916 0.0878   -0.022957
 C 0.7005 0.6062 0.9614   -0.281758
 C 0.777 0.6632 0.9256   0.053807
 C 0.752 0.7516 0.9023   -0.133466
 C 0.8117 0.8046 0.871   -0.028366
 C 0.9147 0.7735 0.8557   -0.107207
 C 0.945 0.6902 0.876   -0.029145
 C 0.8871 0.6353 0.9105   -0.148045
 C 0.9888 0.8286 0.8185   0.679055
 C 0.746 0.5245 0.993   0.703776
 C 0.6166 0.5677 0.914   0.686346
 C 0.0919 0.8339 0.6628   0.647873
 C 0.0478 0.7746 0.6081   -0.121533
 C 0.1056 0.7008 0.5825   -0.031642
 C 0.061 0.6495 0.5337   -0.152681
 C 0.9622 0.6736 0.5095   0.057003
 C 0.902 0.7487 0.5378   -0.157024
 C 0.9484 0.8013 0.5845   -0.031329
 C 0.914 0.6108 0.4566   -0.317298
 C 0.8302 0.6702 0.4197   0.077986
 C 0.8671 0.7566 0.4026   -0.16247
 C 0.7944 0.8092 0.3665   -0.035688
 C 0.695 0.7746 0.3496   -0.124987
 C 0.6644 0.6842 0.3668   -0.022369
 C 0.735 0.6328 0.4013   -0.169043
 C 0.6178 0.8339 0.3117   0.652545
 C 0.000999999999998 0.5737 0.4103   0.711938
 C 0.852 0.5293 0.4885   0.69187
 C 0.4281 0.7609 0.6965   0.162417
 C 0.5326 0.7481 0.6837   -0.233302
 C 0.6112 0.7924 0.7142   0.195043
 C 0.5806 0.8524 0.7574   -0.247759
 C 0.469 0.8664 0.7726   0.170139
 C 0.7233 0.7834 0.7039   -0.222267
 C 0.7491 0.6656 0.723   -0.114995
 C 0.856 0.6456 0.6924   -0.19054
 C 0.8681 0.5327 0.7071   0.143044
 C 0.8209 0.4743 0.6667   -0.232579
 C 0.818 0.378 0.6776   0.161651
 C 0.912 0.4007 0.7589   0.184518
 C 0.905 0.4967 0.7566   -0.210284
 C 0.1886 0.6017 0.7418   0.199011
 C 0.192 0.5069 0.7465   -0.236083
 C 0.262 0.4711 0.7859   0.171905
 C 0.3248 0.5322 0.8202   -0.226206
 C 0.312 0.6263 0.8139   0.160422
 C 0.2501 0.3656 0.7989   -0.185134
 C 0.3557 0.3178 0.7899   -0.052858
 C 0.3785 0.2304 0.798   -0.178755
 C 0.498 0.203 0.7813   0.148664
 C 0.533 0.145 0.7316   -0.235245
 C 0.6387 0.1429 0.7209   0.17176
 C 0.6854 0.2373 0.8001   0.20295
 C 0.581 0.2481 0.8193   -0.263966
 N 0.8953 0.1819 0.2565   -0.353654
 N 0.3624 0.6603 0.2773   -0.31793
 N 0.7438 0.338 0.224   -0.334888
 N 0.2171 0.8134 0.2462   -0.341828
 N 0.3953 0.8181 0.7435   -0.353654
 N 0.8624 0.3397 0.7227   -0.31793
 N 0.2438 0.662 0.776   -0.334888
 N 0.7171 0.1866 0.7538   -0.341828
 O 0.0532 0.0988 0.8215   -0.536944
 O 0.9229 0.2008 0.8161   -0.570026
 O 0.571 0.2114 0.2003   -0.634733
 O 0.4653 0.0901 0.1921   -0.519368
 O 0.5357 0.0989 0.3181   -0.505737
 O 0.6781 0.2001 0.3172   -0.565044
 O 0.0349 0.2123 0.7035   -0.621357
 O 0.1433 0.085 0.6976   -0.47847
 O 0.7146 0.037 0.2237   -0.635484
 O 0.8895 0.0402 0.7243   -0.640251
 O 0.5532 0.9012 0.1785   -0.536944
 O 0.4229 0.7992 0.1839   -0.570026
 O 0.071 0.7886 0.7997   -0.634733
 O 0.9653 0.9099 0.8079   -0.519368
 O 0.0357 0.9011 0.6819   -0.505737
 O 0.1781 0.7999 0.6828   -0.565043
 O 0.5349 0.7877 0.2965   -0.621357
 O 0.6433 0.915 0.3024   -0.47847
 O 0.2146 0.963 0.7763   -0.635484
 O 0.3895 0.9598 0.2757   -0.640251
 F 0.2949 0.5416 0.0456   -0.23085
 F 0.1873 0.5177 0.9711   -0.137176
 F 0.3374 0.4428 0.9732   -0.257995
 F 0.051 0.3711 0.1023   -0.148233
 F 0.1622 0.4708 0.1339   -0.209735
 F 0.0561 0.5054 0.0657   -0.247973
 F 0.5585 0.4927 0.5685   -0.192114
 F 0.4503 0.4623 0.6395   -0.229279
 F 0.5653 0.357 0.6038   -0.191938
 F 0.3299 0.5369 0.5554   -0.226185
 F 0.2732 0.4465 0.4827   -0.101734
 F 0.4275 0.516 0.478   -0.249641
 F 0.7949 0.4584 0.9544   -0.23085
 F 0.6873 0.4823 0.0289   -0.137176
 F 0.8374 0.5572 0.0268   -0.257995
 F 0.551 0.6289 0.8977   -0.148233
 F 0.6622 0.5292 0.8661   -0.209735
 F 0.5561 0.4946 0.9343   -0.247973
 F 0.0585 0.5073 0.4315   -0.192114
 F 0.9503 0.5377 0.3605   -0.229279
 F 0.0653 0.643 0.3962   -0.191938
 F 0.8299 0.4631 0.4446   -0.226185
 F 0.7732 0.5535 0.5173   -0.101734
 F 0.9275 0.484 0.522   -0.249641
