{'_ref': 'TBD', '_srcid': 'CAKYAQ_clean', 'submitters': [{'name': 'Dalar Nazarian Jeff Camp and David Sholl', 'email': 'dalar@gatech.edu jcamp6@gatech.edu'}], '_method': 'VASP DFT with PBE;DDEC'}
data_Zn2H18C19(NO4)2
_symmetry_space_group_name_H-M   'P 1'
_cell_length_a   7.27760000
_cell_length_b   7.27760002
_cell_length_c   26.93100000
_cell_angle_alpha   90.00000000
_cell_angle_beta   90.00000000
_cell_angle_gamma   90.48989685
_symmetry_Int_Tables_number   1
_chemical_formula_structural   Zn2H18C19(NO4)2
_chemical_formula_sum   'Zn4 H36 C38 N4 O16'
_cell_volume   1426.30685451
_cell_formula_units_Z   2
loop_
 _symmetry_equiv_pos_site_id
 _symmetry_equiv_pos_as_xyz
  1  'x, y, z'
loop_
 _atom_site_label
 _atom_site_fract_x
 _atom_site_fract_y
 _atom_site_fract_z
 _atom_site_charge
 Zn 0.03971 0.68785 0.72095   0.998622
 Zn 0.68785 0.03971 0.27905   0.998622
 Zn 0.18785 0.53971 0.22095   0.998622
 Zn 0.53971 0.18785 0.77905   0.998622
 H 0.3226 0.6862 0.8595   0.163788
 H 0.1157 0.6855 0.8392   0.17111
 H 0.6653 0.6857 0.6372   0.131485
 H 0.4542 0.662 0.7002   0.086645
 H 0.0449 0.7315 0.6077   0.067993
 H 0.2439 0.7559 0.5415   0.125786
 H 0.5962 0.8674 0.5232   0.092924
 H 0.7407 0.7449 0.5529   0.095904
 H 0.4744 0.6046 0.4839   0.070758
 H 0.6862 0.3226 0.1405   0.163788
 H 0.6855 0.1157 0.1608   0.17111
 H 0.6857 0.6653 0.3628   0.131485
 H 0.662 0.4542 0.2998   0.086645
 H 0.7315 0.0449 0.3923   0.067993
 H 0.7559 0.2439 0.4585   0.125785
 H 0.8674 0.5962 0.4768   0.092923
 H 0.7449 0.7407 0.4471   0.095903
 H 0.6046 0.4744 0.5161   0.070757
 H 0.1862 0.8226 0.3595   0.163789
 H 0.1855 0.6157 0.3392   0.17111
 H 0.1857 0.1653 0.1372   0.131485
 H 0.162 0.9542 0.2002   0.086645
 H 0.2315 0.5449 0.1077   0.067993
 H 0.2559 0.7439 0.0415   0.125786
 H 0.3674 0.0962 0.0232   0.092924
 H 0.2449 0.2407 0.0529   0.095904
 H 0.1046 0.9744 0.9839   0.070759
 H 0.8226 0.1862 0.6405   0.163789
 H 0.6157 0.1855 0.6608   0.17111
 H 0.1653 0.1857 0.8628   0.131485
 H 0.9542 0.162 0.7998   0.086645
 H 0.5449 0.2315 0.8923   0.067993
 H 0.7439 0.2559 0.9585   0.125785
 H 0.0962 0.3674 0.9768   0.092924
 H 0.2407 0.2449 0.9471   0.095903
 H 0.9744 0.1046 0.0161   0.070758
 C 0.2864 0.8608 0.79987   0.773771
 C 0.2465 0.6867 0.82901   -0.562397
 C 0.2861 0.5143 0.7988   0.772619
 C 0.538 0.6964 0.63007   -0.235041
 C 0.4106 0.6826 0.66748   0.19683
 C 0.1731 0.7227 0.61376   0.181359
 C 0.2911 0.7377 0.57406   -0.26663
 C 0.4788 0.7262 0.58165   0.161464
 C 0.6145 0.7465 0.53925   -0.183378
 C 0.8608 0.2864 0.20013   0.773771
 C 0.6867 0.2465 0.17099   -0.562397
 C 0.5143 0.2861 0.2012   0.772619
 C 0.6964 0.538 0.36993   -0.235041
 C 0.6826 0.4106 0.33252   0.19683
 C 0.7227 0.1731 0.38624   0.181359
 C 0.7377 0.2911 0.42594   -0.26663
 C 0.7262 0.4788 0.41835   0.161464
 C 0.7465 0.6145 0.46075   -0.183377
 C 0.3608 0.7864 0.29987   0.773771
 C 0.1867 0.7465 0.32901   -0.562398
 C 0.0143 0.7861 0.2988   0.772619
 C 0.1964 0.038 0.13007   -0.235042
 C 0.1826 0.9106 0.16748   0.19683
 C 0.2227 0.6731 0.11376   0.18136
 C 0.2377 0.7911 0.07406   -0.266631
 C 0.2262 0.9788 0.08165   0.161464
 C 0.2465 0.1145 0.03925   -0.183378
 C 0.7864 0.3608 0.70013   0.773771
 C 0.7465 0.1867 0.67099   -0.562398
 C 0.7861 0.0143 0.7012   0.772619
 C 0.038 0.1964 0.86993   -0.235042
 C 0.9106 0.1826 0.83252   0.19683
 C 0.6731 0.2227 0.88624   0.181359
 C 0.7911 0.2377 0.92594   -0.26663
 C 0.9788 0.2262 0.91835   0.161464
 C 0.1145 0.2465 0.96075   -0.183377
 C 0.5962 0.5962 0.5   -0.08786
 C 0.0962 0.0962 0.0   -0.087861
 N 0.2297 0.6963 0.66089   -0.317138
 N 0.6963 0.2297 0.33911   -0.317138
 N 0.1963 0.7297 0.16089   -0.317138
 N 0.7297 0.1963 0.83911   -0.317138
 O 0.1987 0.8845 0.75907   -0.646587
 O 0.403 0.9714 0.81665   -0.59764
 O 0.19897 0.49103 0.75833   -0.640352
 O 0.40335 0.40575 0.81531   -0.597964
 O 0.8845 0.1987 0.24093   -0.646587
 O 0.9714 0.403 0.18335   -0.59764
 O 0.49103 0.19897 0.24167   -0.640352
 O 0.40575 0.40335 0.18469   -0.597964
 O 0.3845 0.6987 0.25907   -0.646587
 O 0.4714 0.903 0.31665   -0.59764
 O 0.99103 0.69897 0.25833   -0.640351
 O 0.90575 0.90335 0.31531   -0.597964
 O 0.6987 0.3845 0.74093   -0.646587
 O 0.903 0.4714 0.68335   -0.59764
 O 0.69897 0.99103 0.74167   -0.640351
 O 0.90335 0.90575 0.68469   -0.597964
