{'_ref': 'TBD', '_srcid': 'CAKYAQ_clean', 'submitters': [{'name': 'Dalar Nazarian Jeff Camp and David Sholl', 'email': 'dalar@gatech.edu jcamp6@gatech.edu'}], '_method': 'VASP DFT with PBE;DDEC'}
data_MnRe3C3Se4N3
_symmetry_space_group_name_H-M   'P 1'
_cell_length_a   16.98390000
_cell_length_b   16.98390000
_cell_length_c   16.98390000
_cell_angle_alpha   90.00000000
_cell_angle_beta   90.00000000
_cell_angle_gamma   90.00000000
_symmetry_Int_Tables_number   1
_chemical_formula_structural   MnRe3C3Se4N3
_chemical_formula_sum   'Mn8 Re24 C24 Se32 N24'
_cell_volume   4899.05451554
_cell_formula_units_Z   8
loop_
 _symmetry_equiv_pos_site_id
 _symmetry_equiv_pos_as_xyz
  1  'x, y, z'
loop_
 _atom_site_label
 _atom_site_fract_x
 _atom_site_fract_y
 _atom_site_fract_z
 _atom_site_charge
 Mn 0.60214 0.89786 0.10214   1.045107
 Mn 0.89786 0.10214 0.60214   1.045107
 Mn 0.39786 0.39786 0.39786   1.045107
 Mn 0.10214 0.60214 0.89786   1.045107
 Mn 0.39786 0.10214 0.89786   1.045111
 Mn 0.10214 0.89786 0.39786   1.045111
 Mn 0.60214 0.60214 0.60214   1.045111
 Mn 0.89786 0.39786 0.10214   1.045111
 Re 0.54032 0.97159 0.402   -0.138284
 Re 0.95968 0.02841 0.902   -0.138284
 Re 0.45968 0.47159 0.098   -0.138284
 Re 0.04032 0.52841 0.598   -0.138284
 Re 0.402 0.54032 0.97159   -0.138284
 Re 0.902 0.95968 0.02841   -0.138284
 Re 0.098 0.45968 0.47159   -0.138284
 Re 0.598 0.04032 0.52841   -0.138284
 Re 0.97159 0.402 0.54032   -0.138283
 Re 0.02841 0.902 0.95968   -0.138283
 Re 0.47159 0.098 0.45968   -0.138283
 Re 0.52841 0.598 0.04032   -0.138283
 Re 0.45968 0.02841 0.598   -0.138283
 Re 0.04032 0.97159 0.098   -0.138283
 Re 0.54032 0.52841 0.902   -0.138283
 Re 0.95968 0.47159 0.402   -0.138283
 Re 0.598 0.45968 0.02841   -0.138283
 Re 0.098 0.04032 0.97159   -0.138283
 Re 0.902 0.54032 0.52841   -0.138283
 Re 0.402 0.95968 0.47159   -0.138283
 Re 0.02841 0.598 0.45968   -0.138283
 Re 0.97159 0.098 0.04032   -0.138283
 Re 0.52841 0.902 0.54032   -0.138283
 Re 0.47159 0.402 0.95968   -0.138283
 C 0.5865 0.939 0.29   0.211691
 C 0.9135 0.061 0.79   0.211691
 C 0.4135 0.439 0.21   0.211691
 C 0.0865 0.561 0.71   0.211691
 C 0.29 0.5865 0.939   0.211691
 C 0.79 0.9135 0.061   0.211691
 C 0.21 0.4135 0.439   0.211691
 C 0.71 0.0865 0.561   0.211691
 C 0.939 0.29 0.5865   0.211691
 C 0.061 0.79 0.9135   0.211691
 C 0.439 0.21 0.4135   0.211691
 C 0.561 0.71 0.0865   0.211691
 C 0.4135 0.061 0.71   0.211692
 C 0.0865 0.939 0.21   0.211692
 C 0.5865 0.561 0.79   0.211692
 C 0.9135 0.439 0.29   0.211692
 C 0.71 0.4135 0.061   0.211692
 C 0.21 0.0865 0.939   0.211692
 C 0.79 0.5865 0.561   0.211692
 C 0.29 0.9135 0.439   0.211692
 C 0.061 0.71 0.4135   0.211691
 C 0.939 0.21 0.0865   0.211691
 C 0.561 0.79 0.5865   0.211691
 C 0.439 0.29 0.9135   0.211691
 Se 0.4171 0.02765 0.34108   0.0431
 Se 0.0829 0.97235 0.84108   0.0431
 Se 0.5829 0.52765 0.15892   0.0431
 Se 0.9171 0.47235 0.65892   0.0431
 Se 0.34108 0.4171 0.02765   0.0431
 Se 0.84108 0.0829 0.97235   0.0431
 Se 0.15892 0.5829 0.52765   0.0431
 Se 0.65892 0.9171 0.47235   0.0431
 Se 0.02765 0.34108 0.4171   0.0431
 Se 0.97235 0.84108 0.0829   0.0431
 Se 0.52765 0.15892 0.5829   0.0431
 Se 0.47235 0.65892 0.9171   0.0431
 Se 0.5829 0.97235 0.65892   0.043099
 Se 0.9171 0.02765 0.15892   0.043099
 Se 0.4171 0.47235 0.84108   0.043099
 Se 0.0829 0.52765 0.34108   0.043099
 Se 0.65892 0.5829 0.97235   0.043099
 Se 0.15892 0.9171 0.02765   0.043099
 Se 0.84108 0.4171 0.47235   0.043099
 Se 0.34108 0.0829 0.52765   0.043099
 Se 0.97235 0.65892 0.5829   0.043099
 Se 0.02765 0.15892 0.9171   0.043099
 Se 0.47235 0.84108 0.4171   0.043099
 Se 0.52765 0.34108 0.0829   0.043099
 Se 0.60519 0.10519 0.39481   0.050024
 Se 0.89481 0.89481 0.89481   0.050024
 Se 0.39481 0.60519 0.10519   0.050024
 Se 0.10519 0.39481 0.60519   0.050024
 Se 0.39481 0.89481 0.60519   0.050024
 Se 0.10519 0.10519 0.10519   0.050024
 Se 0.60519 0.39481 0.89481   0.050024
 Se 0.89481 0.60519 0.39481   0.050024
 N 0.6091 0.9198 0.2307   -0.481552
 N 0.8909 0.0802 0.7307   -0.481552
 N 0.3909 0.4198 0.2693   -0.481552
 N 0.1091 0.5802 0.7693   -0.481552
 N 0.2307 0.6091 0.9198   -0.481552
 N 0.7307 0.8909 0.0802   -0.481552
 N 0.2693 0.3909 0.4198   -0.481552
 N 0.7693 0.1091 0.5802   -0.481552
 N 0.9198 0.2307 0.6091   -0.481552
 N 0.0802 0.7307 0.8909   -0.481552
 N 0.4198 0.2693 0.3909   -0.481552
 N 0.5802 0.7693 0.1091   -0.481552
 N 0.3909 0.0802 0.7693   -0.481552
 N 0.1091 0.9198 0.2693   -0.481552
 N 0.6091 0.5802 0.7307   -0.481552
 N 0.8909 0.4198 0.2307   -0.481552
 N 0.7693 0.3909 0.0802   -0.481552
 N 0.2693 0.1091 0.9198   -0.481552
 N 0.7307 0.6091 0.5802   -0.481552
 N 0.2307 0.8909 0.4198   -0.481552
 N 0.0802 0.7693 0.3909   -0.481552
 N 0.9198 0.2693 0.1091   -0.481552
 N 0.5802 0.7307 0.6091   -0.481552
 N 0.4198 0.2307 0.8909   -0.481552
