{'_ref': 'TBD', '_srcid': 'CAKYAQ_clean', 'submitters': [{'name': 'Dalar Nazarian Jeff Camp and David Sholl', 'email': 'dalar@gatech.edu jcamp6@gatech.edu'}], '_method': 'VASP DFT with PBE;DDEC'}
data_Zn6H42C48S6N8O27
_symmetry_space_group_name_H-M   'P 1'
_cell_length_a   15.95310039
_cell_length_b   15.95310002
_cell_length_c   21.63978493
_cell_angle_alpha   68.37039983
_cell_angle_beta   68.37034113
_cell_angle_gamma   59.99999928
_symmetry_Int_Tables_number   1
_chemical_formula_structural   Zn6H42C48S6N8O27
_chemical_formula_sum   'Zn12 H84 C96 S12 N16 O54'
_cell_volume   4315.91935906
_cell_formula_units_Z   2
loop_
 _symmetry_equiv_pos_site_id
 _symmetry_equiv_pos_as_xyz
  1  'x, y, z'
loop_
 _atom_site_label
 _atom_site_fract_x
 _atom_site_fract_y
 _atom_site_fract_z
 _atom_site_charge
 Zn 0.5498 0.80508 0.2808   1.004519
 Zn 0.80508 0.36432 0.2808   1.00474
 Zn 0.36432 0.5498 0.2808   1.00452
 Zn 0.69492 0.9502 0.2192   1.004523
 Zn 0.13568 0.69492 0.2192   1.00474
 Zn 0.9502 0.13568 0.2192   1.004526
 Zn 0.4502 0.19492 0.7192   1.004519
 Zn 0.19492 0.63568 0.7192   1.00474
 Zn 0.63568 0.4502 0.7192   1.00452
 Zn 0.30508 0.0498 0.7808   1.004523
 Zn 0.86432 0.30508 0.7808   1.00474
 Zn 0.0498 0.86432 0.7808   1.004526
 H 0.5052 0.9742 0.2874   0.398276
 H 0.2876 0.0697 0.4662   0.12181
 H 0.1935 0.0309 0.5847   0.104208
 H 0.4565 0.6753 0.4092   0.085375
 H 0.5715 0.63 0.4095   0.072568
 H 0.4099 0.6999 0.3066   0.105536
 H 0.4936 0.6686 0.2397   0.092158
 H 0.9742 0.2332 0.2874   0.399925
 H 0.0697 0.1765 0.4662   0.121164
 H 0.0309 0.1909 0.5847   0.104455
 H 0.6753 0.459 0.4092   0.085392
 H 0.63 0.389 0.4095   0.072554
 H 0.6999 0.5836 0.3066   0.105128
 H 0.6686 0.5981 0.2397   0.091533
 H 0.2332 0.5052 0.2874   0.400282
 H 0.1765 0.2876 0.4662   0.122184
 H 0.1909 0.1935 0.5847   0.104078
 H 0.459 0.4565 0.4092   0.085415
 H 0.389 0.5715 0.4095   0.072946
 H 0.5836 0.4099 0.3066   0.105097
 H 0.5981 0.4936 0.2397   0.091901
 H 0.5258 0.9948 0.2126   0.398272
 H 0.4303 0.2124 0.0338   0.121809
 H 0.4691 0.3065 0.9153   0.104236
 H 0.8247 0.0435 0.0908   0.085377
 H 0.87 0.9285 0.0905   0.07257
 H 0.8001 0.0901 0.1934   0.105537
 H 0.8314 0.0064 0.2603   0.092158
 H 0.2668 0.5258 0.2126   0.399921
 H 0.3235 0.4303 0.0338   0.121165
 H 0.3091 0.4691 0.9153   0.104454
 H 0.041 0.8247 0.0908   0.085394
 H 0.111 0.87 0.0905   0.072552
 H 0.9164 0.8001 0.1934   0.10513
 H 0.9019 0.8314 0.2603   0.091533
 H 0.9948 0.2668 0.2126   0.400275
 H 0.2124 0.3235 0.0338   0.122183
 H 0.3065 0.3091 0.9153   0.104081
 H 0.0435 0.041 0.0908   0.085419
 H 0.9285 0.111 0.0905   0.072948
 H 0.0901 0.9164 0.1934   0.105097
 H 0.0064 0.9019 0.2603   0.091901
 H 0.4948 0.0258 0.7126   0.398276
 H 0.7124 0.9303 0.5338   0.12181
 H 0.8065 0.9691 0.4153   0.104208
 H 0.5435 0.3247 0.5908   0.085375
 H 0.4285 0.37 0.5905   0.072568
 H 0.5901 0.3001 0.6934   0.105536
 H 0.5064 0.3314 0.7603   0.092158
 H 0.0258 0.7668 0.7126   0.399925
 H 0.9303 0.8235 0.5338   0.121164
 H 0.9691 0.8091 0.4153   0.104455
 H 0.3247 0.541 0.5908   0.085392
 H 0.37 0.611 0.5905   0.072554
 H 0.3001 0.4164 0.6934   0.105128
 H 0.3314 0.4019 0.7603   0.091533
 H 0.7668 0.4948 0.7126   0.400282
 H 0.8235 0.7124 0.5338   0.122184
 H 0.8091 0.8065 0.4153   0.104078
 H 0.541 0.5435 0.5908   0.085415
 H 0.611 0.4285 0.5905   0.072946
 H 0.4164 0.5901 0.6934   0.105097
 H 0.4019 0.5064 0.7603   0.091901
 H 0.4742 0.0052 0.7874   0.398272
 H 0.5697 0.7876 0.9662   0.121809
 H 0.5309 0.6935 0.0847   0.104236
 H 0.1753 0.9565 0.9092   0.085377
 H 0.13 0.0715 0.9095   0.07257
 H 0.1999 0.9099 0.8066   0.105537
 H 0.1686 0.9936 0.7397   0.092158
 H 0.7332 0.4742 0.7874   0.399921
 H 0.6765 0.5697 0.9662   0.121165
 H 0.6909 0.5309 0.0847   0.104454
 H 0.959 0.1753 0.9092   0.085394
 H 0.889 0.13 0.9095   0.072552
 H 0.0836 0.1999 0.8066   0.10513
 H 0.0981 0.1686 0.7397   0.091533
 H 0.0052 0.7332 0.7874   0.400275
 H 0.7876 0.6765 0.9662   0.122183
 H 0.6935 0.6909 0.0847   0.104081
 H 0.9565 0.959 0.9092   0.085419
 H 0.0715 0.889 0.9095   0.072948
 H 0.9099 0.0836 0.8066   0.105097
 H 0.9936 0.0981 0.7397   0.091901
 C 0.41144 0.92084 0.39168   0.704273
 C 0.34559 0.92449 0.46173   -0.170739
 C 0.29024 0.00524 0.48978   -0.066901
 C 0.23695 0.98295 0.55785   -0.058694
 C 0.255 0.8846 0.5805   -0.213837
 C 0.21506 0.83356 0.64992   0.740244
 C 0.52414 0.62734 0.39168   0.125736
 C 0.47751 0.65091 0.29037   0.093117
 C 0.92084 0.27604 0.39168   0.70412
 C 0.92449 0.26819 0.46173   -0.170479
 C 0.00524 0.21474 0.48978   -0.066121
 C 0.98295 0.22225 0.55785   -0.058634
 C 0.8846 0.2799 0.5805   -0.214109
 C 0.83356 0.30146 0.64992   0.74002
 C 0.62734 0.45684 0.39168   0.125361
 C 0.65091 0.58121 0.29037   0.095734
 C 0.27604 0.41144 0.39168   0.701207
 C 0.26819 0.34559 0.46173   -0.167709
 C 0.21474 0.29024 0.48978   -0.069357
 C 0.22225 0.23695 0.55785   -0.058187
 C 0.2799 0.255 0.5805   -0.213707
 C 0.30146 0.21506 0.64992   0.741027
 C 0.45684 0.52414 0.39168   0.124026
 C 0.58121 0.47751 0.29037   0.093776
 C 0.57916 0.08856 0.10832   0.704281
 C 0.57551 0.15441 0.03827   -0.170743
 C 0.49476 0.20976 0.01022   -0.066889
 C 0.51705 0.26305 0.94215   -0.058734
 C 0.6154 0.245 0.9195   -0.213827
 C 0.66644 0.28494 0.85008   0.740238
 C 0.87266 0.97586 0.10832   0.12573
 C 0.84909 0.02249 0.20963   0.093116
 C 0.22396 0.57916 0.10832   0.704118
 C 0.23181 0.57551 0.03827   -0.170475
 C 0.28526 0.49476 0.01022   -0.066124
 C 0.27775 0.51705 0.94215   -0.058632
 C 0.2201 0.6154 0.9195   -0.214115
 C 0.19854 0.66644 0.85008   0.740025
 C 0.04316 0.87266 0.10832   0.125363
 C 0.91879 0.84909 0.20963   0.095735
 C 0.08856 0.22396 0.10832   0.701205
 C 0.15441 0.23181 0.03827   -0.167711
 C 0.20976 0.28526 0.01022   -0.069355
 C 0.26305 0.27775 0.94215   -0.058192
 C 0.245 0.2201 0.9195   -0.21371
 C 0.28494 0.19854 0.85008   0.741025
 C 0.97586 0.04316 0.10832   0.124018
 C 0.02249 0.91879 0.20963   0.093777
 C 0.58856 0.07916 0.60832   0.704273
 C 0.65441 0.07551 0.53827   -0.170739
 C 0.70976 0.99476 0.51022   -0.0669
 C 0.76305 0.01705 0.44215   -0.058694
 C 0.745 0.1154 0.4195   -0.213837
 C 0.78494 0.16644 0.35008   0.740244
 C 0.47586 0.37266 0.60832   0.125736
 C 0.52249 0.34909 0.70963   0.093117
 C 0.07916 0.72396 0.60832   0.70412
 C 0.07551 0.73181 0.53827   -0.170479
 C 0.99476 0.78526 0.51022   -0.066121
 C 0.01705 0.77775 0.44215   -0.058635
 C 0.1154 0.7201 0.4195   -0.214109
 C 0.16644 0.69854 0.35008   0.74002
 C 0.37266 0.54316 0.60832   0.125361
 C 0.34909 0.41879 0.70963   0.095734
 C 0.72396 0.58856 0.60832   0.701208
 C 0.73181 0.65441 0.53827   -0.167709
 C 0.78526 0.70976 0.51022   -0.069357
 C 0.77775 0.76305 0.44215   -0.058187
 C 0.7201 0.745 0.4195   -0.213707
 C 0.69854 0.78494 0.35008   0.741027
 C 0.54316 0.47586 0.60832   0.124026
 C 0.41879 0.52249 0.70963   0.093776
 C 0.42084 0.91144 0.89168   0.704281
 C 0.42449 0.84559 0.96173   -0.170743
 C 0.50524 0.79024 0.98978   -0.066889
 C 0.48295 0.73695 0.05785   -0.058734
 C 0.3846 0.755 0.0805   -0.213827
 C 0.33356 0.71506 0.14992   0.740238
 C 0.12734 0.02414 0.89168   0.12573
 C 0.15091 0.97751 0.79037   0.093116
 C 0.77604 0.42084 0.89168   0.704118
 C 0.76819 0.42449 0.96173   -0.170475
 C 0.71474 0.50524 0.98978   -0.066123
 C 0.72225 0.48295 0.05785   -0.058632
 C 0.7799 0.3846 0.0805   -0.214115
 C 0.80146 0.33356 0.14992   0.740025
 C 0.95684 0.12734 0.89168   0.125363
 C 0.08121 0.15091 0.79037   0.095735
 C 0.91144 0.77604 0.89168   0.701206
 C 0.84559 0.76819 0.96173   -0.167711
 C 0.79024 0.71474 0.98978   -0.069355
 C 0.73695 0.72225 0.05785   -0.058192
 C 0.755 0.7799 0.0805   -0.213709
 C 0.71506 0.80146 0.14992   0.741025
 C 0.02414 0.95684 0.89168   0.124018
 C 0.97751 0.08121 0.79037   0.093777
 S 0.33439 0.81942 0.51822   0.138959
 S 0.81942 0.32797 0.51822   0.138851
 S 0.32797 0.33439 0.51822   0.138221
 S 0.68058 0.16561 0.98178   0.138961
 S 0.17203 0.68058 0.98178   0.138851
 S 0.16561 0.17203 0.98178   0.138227
 S 0.66561 0.18058 0.48178   0.138959
 S 0.18058 0.67203 0.48178   0.138851
 S 0.67203 0.66561 0.48178   0.138221
 S 0.31942 0.83439 0.01822   0.138961
 S 0.82797 0.31942 0.01822   0.138851
 S 0.83439 0.82797 0.01822   0.138227
 N 0.54975 0.65635 0.31485   -0.312718
 N 0.65635 0.47905 0.31485   -0.312803
 N 0.47905 0.54975 0.31485   -0.310975
 N 0.84365 0.95025 0.18515   -0.312718
 N 0.02095 0.84365 0.18515   -0.312805
 N 0.95025 0.02095 0.18515   -0.310975
 N 0.45025 0.34365 0.68515   -0.312718
 N 0.34365 0.52095 0.68515   -0.312803
 N 0.52095 0.45025 0.68515   -0.310975
 N 0.15635 0.04975 0.81485   -0.312718
 N 0.97905 0.15635 0.81485   -0.312805
 N 0.04975 0.97905 0.81485   -0.310975
 N 0.52798 0.52798 0.41606   -0.324367
 N 0.97202 0.97202 0.08394   -0.324367
 N 0.47202 0.47202 0.58394   -0.324367
 N 0.02798 0.02798 0.91606   -0.324367
 O 0.44047 0.84538 0.36978   -0.644058
 O 0.43162 0.99382 0.36054   -0.575949
 O 0.14869 0.88946 0.68889   -0.62992
 O 0.25135 0.74042 0.66219   -0.619001
 O 0.84538 0.34437 0.36978   -0.644591
 O 0.99382 0.21402 0.36054   -0.575713
 O 0.88946 0.27296 0.68889   -0.629536
 O 0.74042 0.34604 0.66219   -0.619446
 O 0.34437 0.44047 0.36978   -0.642977
 O 0.21402 0.43162 0.36054   -0.574907
 O 0.27296 0.14869 0.68889   -0.630225
 O 0.34604 0.25135 0.66219   -0.619631
 O 0.65462 0.05953 0.13022   -0.64407
 O 0.50618 0.06838 0.13946   -0.575948
 O 0.61054 0.35131 0.81111   -0.629919
 O 0.75958 0.24865 0.83781   -0.618999
 O 0.15563 0.65462 0.13022   -0.64459
 O 0.28598 0.50618 0.13946   -0.575714
 O 0.22704 0.61054 0.81111   -0.629533
 O 0.15396 0.75958 0.83781   -0.619452
 O 0.05953 0.15563 0.13022   -0.64298
 O 0.06838 0.28598 0.13946   -0.574905
 O 0.35131 0.22704 0.81111   -0.630223
 O 0.24865 0.15396 0.83781   -0.61963
 O 0.55953 0.15462 0.63022   -0.644058
 O 0.56838 0.00618 0.63946   -0.575949
 O 0.85131 0.11054 0.31111   -0.62992
 O 0.74865 0.25958 0.33781   -0.619001
 O 0.15462 0.65563 0.63022   -0.644591
 O 0.00618 0.78598 0.63946   -0.575713
 O 0.11054 0.72704 0.31111   -0.629536
 O 0.25958 0.65396 0.33781   -0.619446
 O 0.65563 0.55953 0.63022   -0.642977
 O 0.78598 0.56838 0.63946   -0.574908
 O 0.72704 0.85131 0.31111   -0.630225
 O 0.65396 0.74865 0.33781   -0.619631
 O 0.34538 0.94047 0.86978   -0.64407
 O 0.49382 0.93162 0.86054   -0.575948
 O 0.38946 0.64869 0.18889   -0.629919
 O 0.24042 0.75135 0.16219   -0.618999
 O 0.84437 0.34538 0.86978   -0.64459
 O 0.71402 0.49382 0.86054   -0.575714
 O 0.77296 0.38946 0.18889   -0.629533
 O 0.84604 0.24042 0.16219   -0.619452
 O 0.94047 0.84437 0.86978   -0.64298
 O 0.93162 0.71402 0.86054   -0.574905
 O 0.64869 0.77296 0.18889   -0.630223
 O 0.75135 0.84604 0.16219   -0.61963
 O 0.55235 0.94765 0.25   -0.774078
 O 0.94765 0.25 0.25   -0.7781
 O 0.25 0.55235 0.25   -0.778103
 O 0.44765 0.05235 0.75   -0.774078
 O 0.05235 0.75 0.75   -0.7781
 O 0.75 0.44765 0.75   -0.778103
