{'_ref': 'TBD', '_srcid': 'CAKYAQ_clean', 'submitters': [{'name': 'Dalar Nazarian Jeff Camp and David Sholl', 'email': 'dalar@gatech.edu jcamp6@gatech.edu'}], '_method': 'VASP DFT with PBE;DDEC'}
data_Co3H36C52S(N4O7)2
_symmetry_space_group_name_H-M   'P 1'
_cell_length_a   10.44100003
_cell_length_b   17.57110017
_cell_length_c   17.57110000
_cell_angle_alpha   64.71799931
_cell_angle_beta   83.66989878
_cell_angle_gamma   83.66990031
_symmetry_Int_Tables_number   1
_chemical_formula_structural   Co3H36C52S(N4O7)2
_chemical_formula_sum   'Co6 H72 C104 S2 N16 O28'
_cell_volume   2889.88892562
_cell_formula_units_Z   2
loop_
 _symmetry_equiv_pos_site_id
 _symmetry_equiv_pos_as_xyz
  1  'x, y, z'
loop_
 _atom_site_label
 _atom_site_fract_x
 _atom_site_fract_y
 _atom_site_fract_z
 _atom_site_charge
 Co 0.51133 0.21219 0.95535   1.060953
 Co 0.98867 0.04465 0.78781   1.060953
 Co 0.48867 0.78781 0.04465   1.060953
 Co 0.01133 0.95535 0.21219   1.060953
 Co 0.75 0.23479 0.76521   1.062152
 Co 0.25 0.76521 0.23479   1.062152
 H 0.8507 0.3529 0.5153   0.09999
 H 0.8919 0.4106 0.3712   0.139006
 H 0.1688 0.2326 0.3922   0.123348
 H 0.1295 0.1745 0.5371   0.072577
 H 0.9991 0.2402 0.277   0.118388
 H 0.0761 0.1833 0.1831   0.095226
 H 0.338 0.3565 0.0847   0.083233
 H 0.2583 0.4131 0.1789   0.131495
 H 0.5164 0.3807 0.9603   0.083522
 H 0.6327 0.4582 0.000799999999998   0.125166
 H 0.9101 0.2695 0.0633   0.132863
 H 0.7862 0.1969 0.0211   0.098043
 H 0.9457 0.3984 0.0818   0.065594
 H 0.7876 0.6154 0.0848   0.085208
 H 0.8412 0.7368 0.116   0.139373
 H 0.0904 0.5357 0.1723   0.108547
 H 0.2241 0.6019 0.2143   0.060151
 H 0.9823 0.7969 0.1615   0.074242
 H 0.6493 0.4847 0.6471   0.099994
 H 0.6081 0.6288 0.5894   0.139006
 H 0.3312 0.6078 0.7674   0.123348
 H 0.3705 0.4629 0.8255   0.072577
 H 0.5009 0.723 0.7598   0.118386
 H 0.4239 0.8169 0.8167   0.095226
 H 0.162 0.9153 0.6435   0.083233
 H 0.2417 0.8211 0.5869   0.131495
 H 0.9836 0.0397 0.6193   0.083521
 H 0.8673 0.9992 0.5418   0.125166
 H 0.5899 0.9367 0.7305   0.132863
 H 0.7138 0.9789 0.8031   0.098043
 H 0.5543 0.9182 0.6016   0.065593
 H 0.7124 0.9152 0.3846   0.085208
 H 0.6588 0.884 0.2632   0.139371
 H 0.4096 0.8277 0.4643   0.108547
 H 0.2759 0.7857 0.3981   0.060151
 H 0.5177 0.8385 0.2031   0.07424
 H 0.1493 0.6471 0.4847   0.09999
 H 0.1081 0.5894 0.6288   0.139006
 H 0.8312 0.7674 0.6078   0.123347
 H 0.8705 0.8255 0.4629   0.072578
 H 0.000900000000001 0.7598 0.723   0.118386
 H 0.9239 0.8167 0.8169   0.095226
 H 0.662 0.6435 0.9153   0.08323
 H 0.7417 0.5869 0.8211   0.131493
 H 0.4836 0.6193 0.0397   0.083521
 H 0.3673 0.5418 0.9992   0.125159
 H 0.0899 0.7305 0.9367   0.132863
 H 0.2138 0.8031 0.9789   0.098043
 H 0.0543 0.6016 0.9182   0.065593
 H 0.2124 0.3846 0.9152   0.085209
 H 0.1588 0.2632 0.884   0.139373
 H 0.9096 0.4643 0.8277   0.108546
 H 0.7759 0.3981 0.7857   0.060151
 H 0.0177 0.2031 0.8385   0.074242
 H 0.3507 0.5153 0.3529   0.099994
 H 0.3919 0.3712 0.4106   0.139006
 H 0.6688 0.3922 0.2326   0.123347
 H 0.6295 0.5371 0.1745   0.072578
 H 0.4991 0.277 0.2402   0.118384
 H 0.5761 0.1831 0.1833   0.095226
 H 0.838 0.0847 0.3565   0.08323
 H 0.7583 0.1789 0.4131   0.131493
 H 0.0164 0.9603 0.3807   0.083521
 H 0.1327 0.000799999999998 0.4582   0.125159
 H 0.4101 0.0633 0.2695   0.132863
 H 0.2862 0.0211 0.1969   0.098043
 H 0.4457 0.0818 0.3984   0.065593
 H 0.2876 0.0848 0.6154   0.085209
 H 0.3412 0.116 0.7368   0.139371
 H 0.5904 0.1723 0.5357   0.108546
 H 0.7241 0.2143 0.6019   0.060151
 H 0.4823 0.1615 0.7969   0.07424
 C 0.963 0.22172 0.63672   0.708976
 C 0.9929 0.2601 0.5435   -0.211739
 C 0.9186 0.32946 0.49146   0.012041
 C 0.9432 0.3644 0.4052   -0.24073
 C 0.1077 0.259 0.4172   -0.260977
 C 0.083 0.22406 0.50446   0.028785
 C 0.043 0.33069 0.37009   0.309584
 C 0.1194 0.33197 0.23517   0.283878
 C 0.0669 0.2638 0.2376   -0.233055
 C 0.1135 0.22932 0.18212   0.001788
 C 0.2167 0.26378 0.12438   -0.180412
 C 0.2695 0.33282 0.12342   0.010658
 C 0.2217 0.36704 0.17924   -0.236022
 C 0.2692 0.22922 0.06142   0.658802
 C 0.5965 0.358 0.9816   0.172679
 C 0.6658 0.40505 0.00585   -0.178616
 C 0.7855 0.37282 0.03782   0.062087
 C 0.83 0.29326 0.04286   -0.178618
 C 0.7548 0.24992 0.01732   0.197808
 C 0.8625 0.41974 0.06574   0.167978
 C 0.8685 0.59013 0.10253   0.165253
 C 0.9525 0.63006 0.13526   0.055557
 C 0.92 0.70826 0.13466   -0.158886
 C 0.0667 0.59003 0.16763   -0.171448
 C 0.1464 0.63033 0.19313   0.168021
 C 0.006 0.74405 0.16225   0.189031
 C 0.537 0.36328 0.77828   0.708976
 C 0.5071 0.4565 0.7399   -0.211739
 C 0.5814 0.50854 0.67054   0.012039
 C 0.5568 0.5948 0.6356   -0.240729
 C 0.3923 0.5828 0.741   -0.260977
 C 0.417 0.49554 0.77594   0.028785
 C 0.457 0.62991 0.66931   0.309583
 C 0.3806 0.76483 0.66803   0.283875
 C 0.4331 0.7624 0.7362   -0.233051
 C 0.3865 0.81788 0.77068   0.001787
 C 0.2833 0.87562 0.73622   -0.180412
 C 0.2305 0.87658 0.66718   0.010658
 C 0.2783 0.82076 0.63296   -0.236022
 C 0.2308 0.93858 0.77078   0.658802
 C 0.9035 0.0184 0.642   0.172679
 C 0.8342 0.99415 0.59495   -0.178616
 C 0.7145 0.96218 0.62718   0.062087
 C 0.67 0.95714 0.70674   -0.178618
 C 0.7452 0.98268 0.75008   0.197808
 C 0.6375 0.93426 0.58026   0.167978
 C 0.6315 0.89747 0.40987   0.165253
 C 0.5475 0.86474 0.36994   0.055557
 C 0.58 0.86534 0.29174   -0.158886
 C 0.4333 0.83237 0.40997   -0.171448
 C 0.3536 0.80687 0.36967   0.168021
 C 0.494 0.83775 0.25595   0.189031
 C 0.037 0.77828 0.36328   0.708976
 C 0.0071 0.7399 0.4565   -0.211739
 C 0.0814 0.67054 0.50854   0.012042
 C 0.0568 0.6356 0.5948   -0.24073
 C 0.8923 0.741 0.5828   -0.260977
 C 0.917 0.77594 0.49554   0.028785
 C 0.957 0.66931 0.62991   0.309583
 C 0.8806 0.66803 0.76483   0.283877
 C 0.9331 0.7362 0.7624   -0.233055
 C 0.8865 0.77068 0.81788   0.001788
 C 0.7833 0.73622 0.87562   -0.180413
 C 0.7305 0.66718 0.87658   0.010659
 C 0.7783 0.63296 0.82076   -0.236022
 C 0.7308 0.77078 0.93858   0.658802
 C 0.4035 0.642 0.0184   0.172679
 C 0.3342 0.59495 0.99415   -0.178615
 C 0.2145 0.62718 0.96218   0.062087
 C 0.17 0.70674 0.95714   -0.178616
 C 0.2452 0.75008 0.98268   0.197809
 C 0.1375 0.58026 0.93426   0.167979
 C 0.1315 0.40987 0.89747   0.165254
 C 0.0475 0.36994 0.86474   0.055558
 C 0.08 0.29174 0.86534   -0.158886
 C 0.9333 0.40997 0.83237   -0.171447
 C 0.8536 0.36967 0.80687   0.168022
 C 0.994 0.25595 0.83775   0.189032
 C 0.463 0.63672 0.22172   0.708976
 C 0.4929 0.5435 0.2601   -0.211739
 C 0.4186 0.49146 0.32946   0.012041
 C 0.4432 0.4052 0.3644   -0.24073
 C 0.6077 0.4172 0.259   -0.260977
 C 0.583 0.50446 0.22406   0.028784
 C 0.543 0.37009 0.33069   0.309583
 C 0.6194 0.23517 0.33197   0.283875
 C 0.5669 0.2376 0.2638   -0.233051
 C 0.6135 0.18212 0.22932   0.001787
 C 0.7167 0.12438 0.26378   -0.180412
 C 0.7695 0.12342 0.33282   0.010658
 C 0.7217 0.17924 0.36704   -0.236022
 C 0.7692 0.06142 0.22922   0.658802
 C 0.0965 0.9816 0.358   0.172679
 C 0.1658 0.00585 0.40505   -0.178614
 C 0.2855 0.03782 0.37282   0.062087
 C 0.33 0.04286 0.29326   -0.178616
 C 0.2548 0.01732 0.24992   0.197809
 C 0.3625 0.06574 0.41974   0.167979
 C 0.3685 0.10253 0.59013   0.165254
 C 0.4525 0.13526 0.63006   0.055558
 C 0.42 0.13466 0.70826   -0.158886
 C 0.5667 0.16763 0.59003   -0.171447
 C 0.6464 0.19313 0.63033   0.168022
 C 0.506 0.16225 0.74405   0.189032
 S 0.75 0.08429 0.91571   1.621105
 S 0.25 0.91571 0.08429   1.621105
 N 0.6391 0.28054 0.98728   -0.379353
 N 0.8183 0.48872 0.06872   -0.237824
 N 0.9086 0.52102 0.09922   -0.22178
 N 0.1195 0.70758 0.18956   -0.352378
 N 0.8609 0.01272 0.71946   -0.379353
 N 0.6817 0.93128 0.51128   -0.237824
 N 0.5914 0.90078 0.47898   -0.22178
 N 0.3805 0.81044 0.29242   -0.352378
 N 0.3609 0.71946 0.01272   -0.379353
 N 0.1817 0.51128 0.93128   -0.237823
 N 0.0914 0.47898 0.90078   -0.22178
 N 0.8805 0.29242 0.81044   -0.352378
 N 0.1391 0.98728 0.28054   -0.379353
 N 0.3183 0.06872 0.48872   -0.237823
 N 0.4086 0.09922 0.52102   -0.22178
 N 0.6195 0.18956 0.70758   -0.352378
 O 0.3681 0.26008 0.01704   -0.639668
 O 0.2126 0.17314 0.05484   -0.597474
 O 0.0672 0.37497 0.28353   -0.267976
 O 0.6714 0.16692 0.89624   -0.816886
 O 0.8339 0.06633 0.98235   -0.652783
 O 0.8743 0.26034 0.66388   -0.595447
 O 0.0234 0.15354 0.6806   -0.619402
 O 0.1319 0.98296 0.73992   -0.639668
 O 0.2874 0.94516 0.82686   -0.597474
 O 0.4328 0.71647 0.62503   -0.267975
 O 0.8286 0.10376 0.83308   -0.816886
 O 0.6661 0.01765 0.93367   -0.652783
 O 0.6257 0.33612 0.73966   -0.595448
 O 0.4766 0.3194 0.84646   -0.619402
 O 0.6319 0.73992 0.98296   -0.639668
 O 0.7874 0.82686 0.94516   -0.597474
 O 0.9328 0.62503 0.71647   -0.267976
 O 0.3286 0.83308 0.10376   -0.816886
 O 0.1661 0.93367 0.01765   -0.652784
 O 0.1257 0.73966 0.33612   -0.595447
 O 0.9766 0.84646 0.3194   -0.619402
 O 0.8681 0.01704 0.26008   -0.639668
 O 0.7126 0.05484 0.17314   -0.597474
 O 0.5672 0.28353 0.37497   -0.267975
 O 0.1714 0.89624 0.16692   -0.816886
 O 0.3339 0.98235 0.06633   -0.652784
 O 0.3743 0.66388 0.26034   -0.595448
 O 0.5234 0.6806 0.15354   -0.619402
