{'_ref': 'TBD', '_srcid': 'CAKYAQ_clean', 'submitters': [{'name': 'Dalar Nazarian Jeff Camp and David Sholl', 'email': 'dalar@gatech.edu jcamp6@gatech.edu'}], '_method': 'VASP DFT with PBE;DDEC'}
data_Ni2H44W(C19N8)2
_symmetry_space_group_name_H-M   'P 1'
_cell_length_a   13.36699993
_cell_length_b   14.30659988
_cell_length_c   16.82347778
_cell_angle_alpha   105.16983754
_cell_angle_beta   102.84201452
_cell_angle_gamma   114.30499851
_symmetry_Int_Tables_number   1
_chemical_formula_structural   Ni2H44W(C19N8)2
_chemical_formula_sum   'Ni4 H88 W2 C76 N32'
_cell_volume   2623.26869415
_cell_formula_units_Z   2
loop_
 _symmetry_equiv_pos_site_id
 _symmetry_equiv_pos_as_xyz
  1  'x, y, z'
loop_
 _atom_site_label
 _atom_site_fract_x
 _atom_site_fract_y
 _atom_site_fract_z
 _atom_site_charge
 Ni 0.38773 0.46663 0.92366   0.536813
 Ni 0.87303 0.98323 0.53546   0.491239
 Ni 0.96407 0.54297 0.07634   0.60659
 Ni 0.83757 0.44777 0.46454   0.408037
 H 0.4008 0.371 0.0202   0.272078
 H 0.7046 0.9095 0.4102   0.249863
 H 0.5176 0.8295 0.9036   0.129107
 H 0.5926 0.7885 0.7996   0.075188
 H 0.5877 0.6203 0.737   0.146732
 H 0.4921 0.3218 0.6998   0.143844
 H 0.5904 0.4413 0.7172   0.148965
 H 0.4597 0.394 0.6548   0.133304
 H 0.2939 0.7494 0.9886   0.168153
 H 0.4198 0.829 0.993   0.139024
 H 0.4052 0.8026 0.0758   0.138962
 H 0.3167 0.6264 0.115   0.06607
 H 0.2061 0.5306 0.03   0.070053
 H 0.2741 0.4706 0.1332   0.109041
 H 0.3879 0.5057 0.1112   0.103092
 H 0.2419 0.3173 0.056   0.067124
 H 0.1785 0.3426 0.9808   0.074997
 H 0.2628 0.1859 0.9384   0.064068
 H 0.2181 0.2185 0.861   0.074589
 H 0.3669 0.1577 0.8616   0.077472
 H 0.4575 0.281 0.928   0.109247
 H 0.4554 0.2566 0.7844   0.064076
 H 0.3215 0.2246 0.7516   0.06485
 H 0.1209 0.9382 0.7646   0.113066
 H 0.2727 0.976 0.714   0.107705
 H 0.2672 0.0271 0.5938   0.127455
 H 0.0022 0.9381 0.8012   0.13988
 H 0.8653 0.8705 0.7776   0.121385
 H 0.9323 0.0016 0.8178   0.167088
 H 0.2375 0.1056 0.5026   0.123318
 H 0.1759 0.1546 0.449   0.137246
 H 0.1447 0.03 0.4052   0.160683
 H 0.7254 0.9506 0.682   0.080087
 H 0.6989 0.8307 0.6308   0.06359
 H 0.5766 0.8054 0.5168   0.083426
 H 0.5718 0.902 0.5818   0.11244
 H 0.6472 0.0157 0.5278   0.067245
 H 0.5692 0.9036 0.446   0.045205
 H 0.6808 0.0257 0.3576   0.05758
 H 0.7921 0.1249 0.4404   0.068734
 H 0.8221 0.0518 0.3098   0.076464
 H 0.8032 0.9497 0.3336   0.105169
 H 0.9951 0.0534 0.3604   0.081171
 H 0.0033 0.1624 0.422   0.062083
 H 0.8806 0.3508 0.9798   0.271394
 H 0.7944 0.4993 0.5898   0.248773
 H 0.114 0.9259 0.0964   0.126617
 H 0.293 0.9889 0.2004   0.073421
 H 0.3507 0.8833 0.263   0.144571
 H 0.2923 0.622 0.3002   0.14301
 H 0.3732 0.7241 0.2828   0.148188
 H 0.3049 0.7392 0.3452   0.134091
 H 0.8053 0.7608 0.0114   0.168699
 H 0.9268 0.836 0.007   0.137044
 H 0.8294 0.7268 0.9242   0.137678
 H 0.7017 0.5114 0.885   0.06414
 H 0.6761 0.5006 0.97   0.06938
 H 0.6409 0.3374 0.8668   0.105706
 H 0.7767 0.3945 0.8888   0.102916
 H 0.6859 0.2613 0.944   0.059997
 H 0.6977 0.3618 0.0192   0.071507
 H 0.8244 0.2475 0.0616   0.058089
 H 0.8571 0.3575 0.139   0.070891
 H 0.0053 0.2961 0.1384   0.076365
 H 0.0295 0.353 0.072   0.10845
 H 0.171 0.4722 0.2156   0.060713
 H 0.0699 0.473 0.2484   0.065908
 H 0.8563 0.1736 0.2354   0.115184
 H 0.0587 0.262 0.286   0.107587
 H 0.1734 0.4333 0.4062   0.128807
 H 0.701 0.1369 0.1988   0.137943
 H 0.5877 0.0929 0.2224   0.120096
 H 0.6145 0.1838 0.1822   0.166144
 H 0.2349 0.603 0.4974   0.123207
 H 0.2269 0.7056 0.551   0.136245
 H 0.2395 0.6248 0.5948   0.160387
 H 0.5434 0.2686 0.318   0.07859
 H 0.5681 0.1999 0.3692   0.064189
 H 0.5598 0.2886 0.4832   0.083825
 H 0.49 0.3202 0.4182   0.111805
 H 0.6194 0.4879 0.4722   0.067609
 H 0.6232 0.4576 0.554   0.046284
 H 0.8232 0.6681 0.6424   0.059784
 H 0.8517 0.6845 0.5596   0.069042
 H 0.0123 0.742 0.6902   0.07588
 H 0.9696 0.6161 0.6664   0.105305
 H 0.1347 0.693 0.6396   0.081853
 H 0.0813 0.7404 0.578   0.061854
 W 0.69547 0.61888 0.2447   -0.247847
 W 0.95077 0.37418 0.7553   -0.246918
 C 0.6121 0.5801 0.1042   0.164878
 C 0.7816 0.7526 0.3772   0.184825
 C 0.9359 0.2269 0.6618   0.169578
 C 0.12 0.382 0.806   0.16869
 C 0.6064 0.7204 0.2368   0.209199
 C 0.5945 0.4435 0.179   0.193812
 C 0.8227 0.7657 0.2314   0.165926
 C 0.5507 0.5537 0.2934   0.186022
 C 0.4553 0.6783 0.9106   0.146393
 C 0.512 0.76 0.882   -0.171789
 C 0.5559 0.7319 0.8178   0.002374
 C 0.5571 0.6341 0.7802   -0.180342
 C 0.5014 0.5594 0.8148   0.14158
 C 0.4842 0.4472 0.7844   0.19639
 C 0.5087 0.3967 0.7074   -0.386353
 C 0.3924 0.6774 0.9808   0.33285
 C 0.377 0.773 0.012   -0.425223
 C 0.2892 0.5602 0.0624   0.053608
 C 0.3027 0.4747 0.0854   -0.207939
 C 0.2541 0.3661 0.0242   0.044765
 C 0.2864 0.2384 0.9108   0.031916
 C 0.3823 0.2343 0.8786   -0.207004
 C 0.396 0.269 0.802   0.042334
 C 0.0186 0.9656 0.6752   0.120629
 C 0.1162 0.9582 0.7164   -0.14507
 C 0.208 0.981 0.686   -0.011141
 C 0.2049 0.0109 0.6138   -0.168052
 C 0.1068 0.0178 0.5736   0.131704
 C 0.9019 0.9309 0.6878   0.243549
 C 0.9286 0.9366 0.7792   -0.410598
 C 0.0745 0.0535 0.499   0.300361
 C 0.165 0.089 0.46   -0.443962
 C 0.723 0.903 0.628   0.046878
 C 0.621 0.884 0.554   -0.184373
 C 0.643 0.946 0.496   0.048024
 C 0.7558 0.0468 0.4016   0.059263
 C 0.8347 0.0297 0.3594   -0.208316
 C 0.9651 0.0821 0.4022   0.045844
 C 0.0079 0.4759 0.8958   0.173124
 C 0.9044 0.3754 0.6228   0.172791
 C 0.7741 0.5651 0.3382   0.155869
 C 0.814 0.576 0.194   0.175489
 C 0.8696 0.4836 0.7632   0.21024
 C 0.9155 0.2645 0.821   0.191391
 C 0.0913 0.5343 0.7686   0.166681
 C 0.7573 0.2603 0.7066   0.186599
 C 0.0447 0.7677 0.0894   0.151908
 C 0.13 0.878 0.118   -0.170003
 C 0.2381 0.9141 0.1822   0.00316
 C 0.2769 0.8539 0.2198   -0.181857
 C 0.1866 0.7446 0.1852   0.148701
 C 0.1998 0.6628 0.2156   0.20651
 C 0.3013 0.6893 0.2926   -0.387494
 C 0.9116 0.6966 0.0192   0.336894
 C 0.865 0.761 0.988   -0.426053
 C 0.7268 0.4978 0.9376   0.05535
 C 0.7173 0.3893 0.9146   -0.207916
 C 0.7299 0.3419 0.9758   0.053877
 C 0.8756 0.3276 0.0892   0.040341
 C 0.0037 0.3557 0.1214   -0.209017
 C 0.094 0.467 0.198   0.043994
 C 0.8434 0.2904 0.3248   0.121796
 C 0.8998 0.2418 0.2836   -0.151375
 C 0.022 0.295 0.314   -0.008575
 C 0.0911 0.3971 0.3862   -0.169838
 C 0.0332 0.4442 0.4264   0.128804
 C 0.7141 0.2431 0.3122   0.238396
 C 0.6494 0.1574 0.2208   -0.410036
 C 0.0755 0.5545 0.501   0.292194
 C 0.205 0.629 0.54   -0.445918
 C 0.595 0.275 0.372   0.045492
 C 0.567 0.33 0.446   -0.180939
 C 0.647 0.45 0.504   0.042716
 C 0.8542 0.6452 0.5984   0.054513
 C 0.9753 0.6703 0.6406   -0.206519
 C 0.0629 0.6799 0.5978   0.03974
 N 0.5579 0.5489 0.03   -0.42814
 N 0.8231 0.8221 0.4442   -0.42505
 N 0.9237 0.1477 0.6154   -0.388481
 N 0.2135 0.3928 0.8294   -0.412315
 N 0.568 0.7718 0.2376   -0.514416
 N 0.5352 0.3502 0.1384   -0.535565
 N 0.882 0.835 0.216   -0.512641
 N 0.4811 0.5281 0.3202   -0.543466
 N 0.4507 0.5777 0.8754   -0.19234
 N 0.3687 0.5937 0.9954   -0.287638
 N 0.3347 0.3557 0.9774   -0.322969
 N 0.4285 0.3845 0.829   -0.285319
 N 0.0198 0.9958 0.6056   -0.231744
 N 0.8305 0.9375 0.635   -0.191561
 N 0.7342 0.9772 0.4544   -0.340063
 N 0.9861 0.0511 0.4722   -0.210296
 N 0.0279 0.5189 0.97   -0.428512
 N 0.8789 0.3779 0.5558   -0.418834
 N 0.8083 0.5323 0.3846   -0.382032
 N 0.8841 0.5634 0.1706   -0.411147
 N 0.8304 0.5342 0.7624   -0.515994
 N 0.8968 0.2118 0.8616   -0.534299
 N 0.166 0.619 0.784   -0.514181
 N 0.6609 0.2079 0.6798   -0.544071
 N 0.0753 0.7023 0.1246   -0.232463
 N 0.8733 0.5983 0.0046   -0.305571
 N 0.8573 0.3783 0.0226   -0.367423
 N 0.0995 0.5555 0.171   -0.302423
 N 0.9142 0.3902 0.3944   -0.1966
 N 0.6955 0.3025 0.365   -0.179643
 N 0.7798 0.5228 0.5456   -0.297568
 N 0.0139 0.5789 0.5278   -0.197492
