{'_ref': 'TBD', '_srcid': 'CAKYAQ_clean', 'submitters': [{'name': 'Dalar Nazarian Jeff Camp and David Sholl', 'email': 'dalar@gatech.edu jcamp6@gatech.edu'}], '_method': 'VASP DFT with PBE;DDEC'}
data_ZnH22C26S2(NO2)2
_symmetry_space_group_name_H-M   'P 1'
_cell_length_a   6.27760000
_cell_length_b   12.98790034
_cell_length_c   18.14500000
_cell_angle_alpha   106.38599921
_cell_angle_beta   90.00000000
_cell_angle_gamma   90.00000000
_symmetry_Int_Tables_number   1
_chemical_formula_structural   ZnH22C26S2(NO2)2
_chemical_formula_sum   'Zn2 H44 C52 S4 N4 O8'
_cell_volume   1419.32401353
_cell_formula_units_Z   2
loop_
 _symmetry_equiv_pos_site_id
 _symmetry_equiv_pos_as_xyz
  1  'x, y, z'
loop_
 _atom_site_label
 _atom_site_fract_x
 _atom_site_fract_y
 _atom_site_fract_z
 _atom_site_charge
 Zn 0.38406 0.75 0.75   0.871476
 Zn 0.61594 0.25 0.25   0.871476
 H 0.0415 0.9334 0.7005   0.13046
 H 0.7258 0.7821 0.5079   0.128439
 H 0.2135 0.0649 0.9523   0.078225
 H 0.4715 0.7361 0.5828   0.074285
 H 0.349 0.9378 0.0103   0.07587
 H 0.1461 0.8658 0.9855   0.057373
 H 0.1112 0.9638 0.1144   0.073894
 H 0.145 0.0718 0.0933   0.072157
 H 0.0342 0.7996 0.4388   0.128493
 H 0.3473 0.8749 0.3947   0.130168
 H 0.7798 0.8818 0.7694   0.0769
 H 0.0415 0.5666 0.7995   0.13046
 H 0.7258 0.7179 0.9921   0.128439
 H 0.2135 0.4351 0.5477   0.078225
 H 0.4715 0.7639 0.9172   0.074285
 H 0.349 0.5622 0.4897   0.075871
 H 0.1461 0.6342 0.5145   0.057373
 H 0.1112 0.5362 0.3856   0.073895
 H 0.145 0.4282 0.4067   0.072157
 H 0.0342 0.7004 0.0612   0.128494
 H 0.3473 0.6251 0.1053   0.130167
 H 0.7798 0.6182 0.7306   0.0769
 H 0.9585 0.0666 0.2995   0.130461
 H 0.2742 0.2179 0.4921   0.12844
 H 0.7865 0.9351 0.0477   0.078226
 H 0.5285 0.2639 0.4172   0.074285
 H 0.651 0.0622 0.9897   0.075871
 H 0.8539 0.1342 0.0145   0.057374
 H 0.8888 0.0362 0.8856   0.073895
 H 0.855 0.9282 0.9067   0.072157
 H 0.9658 0.2004 0.5612   0.128493
 H 0.6527 0.1251 0.6053   0.130168
 H 0.2202 0.1182 0.2306   0.0769
 H 0.9585 0.4334 0.2005   0.130461
 H 0.2742 0.2821 0.0079   0.12844
 H 0.7865 0.5649 0.4523   0.078226
 H 0.5285 0.2361 0.0828   0.074285
 H 0.651 0.4378 0.5103   0.075871
 H 0.8539 0.3658 0.4855   0.057373
 H 0.8888 0.4638 0.6144   0.073895
 H 0.855 0.5718 0.5933   0.072157
 H 0.9658 0.2996 0.9388   0.128494
 H 0.6527 0.3749 0.8947   0.130167
 H 0.2202 0.3818 0.2694   0.0769
 C 0.9274 0.89296 0.67506   -0.200166
 C 0.7405 0.80355 0.56105   -0.204334
 C 0.4046 0.96949 0.50219   -0.014476
 C 0.0848 0.89182 0.54802   -0.052633
 C 0.155 0.9919 0.9364   -0.169865
 C 0.5878 0.77625 0.60655   0.172988
 C 0.1969 0.93928 0.00118   -0.112395
 C 0.0855 0.000219999999999 0.07532   -0.108893
 C 0.1207 0.85114 0.47114   -0.10309
 C 0.9176 0.86337 0.59477   0.129737
 C 0.2682 0.92974 0.86334   0.662498
 C 0.3021 0.89503 0.44553   -0.131835
 C 0.7686 0.86204 0.71614   0.205929
 C 0.9274 0.60704 0.82494   -0.200166
 C 0.7405 0.69645 0.93895   -0.204334
 C 0.4046 0.53051 0.99781   -0.014476
 C 0.0848 0.60818 0.95198   -0.052633
 C 0.155 0.5081 0.5636   -0.169865
 C 0.5878 0.72375 0.89345   0.172988
 C 0.1969 0.56072 0.49882   -0.112395
 C 0.0855 0.49978 0.42468   -0.108894
 C 0.1207 0.64886 0.02886   -0.10309
 C 0.9176 0.63663 0.90523   0.129737
 C 0.2682 0.57026 0.63666   0.662498
 C 0.3021 0.60497 0.05447   -0.131835
 C 0.7686 0.63796 0.78386   0.205929
 C 0.0726 0.10704 0.32494   -0.200166
 C 0.2595 0.19645 0.43895   -0.204334
 C 0.5954 0.03051 0.49781   -0.014476
 C 0.9152 0.10818 0.45198   -0.052633
 C 0.845 0.0081 0.0636   -0.169865
 C 0.4122 0.22375 0.39345   0.172988
 C 0.8031 0.06072 0.99882   -0.112395
 C 0.9145 0.99978 0.92468   -0.108893
 C 0.8793 0.14886 0.52886   -0.10309
 C 0.0824 0.13663 0.40523   0.129737
 C 0.7318 0.07026 0.13666   0.662499
 C 0.6979 0.10497 0.55447   -0.131836
 C 0.2314 0.13796 0.28386   0.205929
 C 0.0726 0.39296 0.17506   -0.200166
 C 0.2595 0.30355 0.06105   -0.204334
 C 0.5954 0.46949 0.00219   -0.014476
 C 0.9152 0.39182 0.04802   -0.052633
 C 0.845 0.4919 0.4364   -0.169865
 C 0.4122 0.27625 0.10655   0.172988
 C 0.8031 0.43928 0.50118   -0.112395
 C 0.9145 0.50022 0.57532   -0.108893
 C 0.8793 0.35114 0.97114   -0.10309
 C 0.0824 0.36337 0.09477   0.129737
 C 0.7318 0.42974 0.36334   0.662499
 C 0.6979 0.39503 0.94553   -0.131835
 C 0.2314 0.36204 0.21614   0.205929
 S 0.27646 0.98728 0.58944   0.083695
 S 0.27646 0.51272 0.91056   0.083695
 S 0.72354 0.01272 0.41056   0.083696
 S 0.72354 0.48728 0.08944   0.083695
 N 0.598 0.80488 0.68368   -0.36639
 N 0.598 0.69512 0.81632   -0.36639
 N 0.402 0.19512 0.31632   -0.36639
 N 0.402 0.30488 0.18368   -0.36639
 O 0.4313 0.96563 0.84283   -0.629029
 O 0.1967 0.83645 0.82955   -0.623747
 O 0.4313 0.53437 0.65717   -0.629029
 O 0.1967 0.66355 0.67045   -0.623747
 O 0.5687 0.03437 0.15717   -0.629029
 O 0.8033 0.16355 0.17045   -0.623747
 O 0.5687 0.46563 0.34283   -0.629029
 O 0.8033 0.33645 0.32955   -0.623747
