{'_ref': 'TBD', '_srcid': 'CAKYAQ_clean', 'submitters': [{'name': 'Dalar Nazarian Jeff Camp and David Sholl', 'email': 'dalar@gatech.edu jcamp6@gatech.edu'}], '_method': 'VASP DFT with PBE;DDEC'}
data_CdH30C40(N3O2)2
_symmetry_space_group_name_H-M   'P 1'
_cell_length_a   10.56600000
_cell_length_b   16.02299979
_cell_length_c   24.18200000
_cell_angle_alpha   90.00000000
_cell_angle_beta   90.00000000
_cell_angle_gamma   104.66600087
_symmetry_Int_Tables_number   1
_chemical_formula_structural   CdH30C40(N3O2)2
_chemical_formula_sum   'Cd4 H120 C160 N24 O16'
_cell_volume   3960.5991181
_cell_formula_units_Z   4
loop_
 _symmetry_equiv_pos_site_id
 _symmetry_equiv_pos_as_xyz
  1  'x, y, z'
loop_
 _atom_site_label
 _atom_site_fract_x
 _atom_site_fract_y
 _atom_site_fract_z
 _atom_site_charge
 Cd 0.30025 0.96092 0.90944   0.966847
 Cd 0.19975 0.03908 0.40944   0.966847
 Cd 0.69975 0.03908 0.09056   0.966847
 Cd 0.80025 0.96092 0.59056   0.966847
 H 0.0684 0.7741 0.9302   0.10189
 H 0.1546 0.9665 0.0348   0.113502
 H 0.9541 0.8668 0.0671   0.119402
 H 0.8455 0.6947 0.9213   0.132858
 H 0.6625 0.5765 0.9289   0.101126
 H 0.6659 0.6076 0.0942   0.121893
 H 0.8483 0.7236 0.0863   0.102601
 H 0.5944 0.0956 0.9468   0.105022
 H 0.2494 0.1092 0.9998   0.092681
 H 0.402 0.2466 0.0215   0.10665
 H 0.7468 0.2259 0.9204   0.125385
 H 0.9297 0.3416 0.9216   0.105848
 H 0.7964 0.4379 0.0541   0.108359
 H 0.6111 0.3232 0.054   0.116736
 H 0.3788 0.2287 0.8067   0.089339
 H 0.3246 0.3512 0.7727   0.090199
 H 0.9454 0.2396 0.8026   0.108096
 H 0.9986 0.118 0.8355   0.109513
 H 0.0735 0.5034 0.6581   0.094012
 H 0.0358 0.4203 0.8397   0.100074
 H 0.1592 0.3902 0.6313   0.114981
 H 0.2451 0.3602 0.6763   0.115284
 H 0.1027 0.3048 0.6645   0.130316
 H 0.9285 0.6089 0.8149   0.11709
 H 0.8744 0.5235 0.8482   0.11825
 H 0.0166 0.5798 0.8593   0.118377
 H 0.1538 0.672 0.6793   0.10283
 H 0.0952 0.7862 0.6395   0.099281
 H 0.7277 0.6943 0.6969   0.097931
 H 0.7899 0.5773 0.7344   0.088665
 H 0.4316 0.2259 0.4302   0.10189
 H 0.3454 0.0335 0.5348   0.113503
 H 0.5459 0.1332 0.5671   0.119402
 H 0.6545 0.3053 0.4213   0.132858
 H 0.8375 0.4235 0.4289   0.101126
 H 0.8341 0.3924 0.5942   0.121892
 H 0.6517 0.2764 0.5863   0.102601
 H 0.9056 0.9044 0.4468   0.105022
 H 0.2506 0.8908 0.4998   0.092681
 H 0.098 0.7534 0.5215   0.10665
 H 0.7532 0.7741 0.4204   0.125385
 H 0.5703 0.6584 0.4216   0.105848
 H 0.7036 0.5621 0.5541   0.108359
 H 0.8889 0.6768 0.554   0.116736
 H 0.1212 0.7713 0.3067   0.089339
 H 0.1754 0.6488 0.2727   0.090199
 H 0.5546 0.7604 0.3026   0.108096
 H 0.5014 0.882 0.3355   0.109513
 H 0.4265 0.4966 0.1581   0.094012
 H 0.4642 0.5797 0.3397   0.100074
 H 0.3408 0.6098 0.1313   0.114981
 H 0.2549 0.6398 0.1763   0.115284
 H 0.3973 0.6952 0.1645   0.130316
 H 0.5715 0.3911 0.3149   0.11709
 H 0.6256 0.4765 0.3482   0.11825
 H 0.4834 0.4202 0.3593   0.118377
 H 0.3462 0.328 0.1793   0.10283
 H 0.4048 0.2138 0.1395   0.099282
 H 0.7723 0.3057 0.1969   0.097931
 H 0.7101 0.4227 0.2344   0.088665
 H 0.9316 0.2259 0.0698   0.10189
 H 0.8454 0.0335 0.9652   0.113503
 H 0.0459 0.1332 0.9329   0.119402
 H 0.1545 0.3053 0.0787   0.132858
 H 0.3375 0.4235 0.0711   0.101127
 H 0.3341 0.3924 0.9058   0.121891
 H 0.1517 0.2764 0.9137   0.1026
 H 0.4056 0.9044 0.0532   0.105023
 H 0.7506 0.8908 0.0002   0.092681
 H 0.598 0.7534 0.9785   0.10665
 H 0.2532 0.7741 0.0796   0.125385
 H 0.0703 0.6584 0.0784   0.105847
 H 0.2036 0.5621 0.9459   0.10836
 H 0.3889 0.6768 0.946   0.116735
 H 0.6212 0.7713 0.1933   0.089339
 H 0.6754 0.6488 0.2273   0.090199
 H 0.0546 0.7604 0.1974   0.108096
 H 0.0014 0.882 0.1645   0.109513
 H 0.9265 0.4966 0.3419   0.094011
 H 0.9642 0.5797 0.1603   0.100073
 H 0.8408 0.6098 0.3687   0.11498
 H 0.7549 0.6398 0.3237   0.115283
 H 0.8973 0.6952 0.3355   0.130316
 H 0.0715 0.3911 0.1851   0.11709
 H 0.1256 0.4765 0.1518   0.118249
 H 0.9834 0.4202 0.1407   0.118376
 H 0.8462 0.328 0.3207   0.10283
 H 0.9048 0.2138 0.3605   0.099282
 H 0.2723 0.3057 0.3031   0.097931
 H 0.2101 0.4227 0.2656   0.088665
 H 0.5684 0.7741 0.5698   0.10189
 H 0.6546 0.9665 0.4652   0.113503
 H 0.4541 0.8668 0.4329   0.119402
 H 0.3455 0.6947 0.5787   0.132858
 H 0.1625 0.5765 0.5711   0.101127
 H 0.1659 0.6076 0.4058   0.121891
 H 0.3483 0.7236 0.4137   0.1026
 H 0.0944 0.0956 0.5532   0.105023
 H 0.7494 0.1092 0.5002   0.092681
 H 0.902 0.2466 0.4785   0.10665
 H 0.2468 0.2259 0.5796   0.125385
 H 0.4297 0.3416 0.5784   0.105847
 H 0.2964 0.4379 0.4459   0.10836
 H 0.1111 0.3232 0.446   0.116735
 H 0.8788 0.2287 0.6933   0.089339
 H 0.8246 0.3512 0.7273   0.090199
 H 0.4454 0.2396 0.6974   0.108096
 H 0.4986 0.118 0.6645   0.109513
 H 0.5735 0.5034 0.8419   0.094011
 H 0.5358 0.4203 0.6603   0.100073
 H 0.6592 0.3902 0.8687   0.11498
 H 0.7451 0.3602 0.8237   0.115283
 H 0.6027 0.3048 0.8355   0.130316
 H 0.4285 0.6089 0.6851   0.11709
 H 0.3744 0.5235 0.6518   0.118249
 H 0.5166 0.5798 0.6407   0.118376
 H 0.6538 0.672 0.8207   0.10283
 H 0.5952 0.7862 0.8605   0.099282
 H 0.2277 0.6943 0.8031   0.097931
 H 0.2899 0.5773 0.7656   0.088665
 C 0.0653 0.8101 0.9601   0.153877
 C 0.112 0.9152 0.0175   0.028416
 C 0.0011 0.8603 0.0356   -0.123357
 C 0.8619 0.7208 0.0033   0.12404
 C 0.8088 0.6774 0.9557   -0.145674
 C 0.6987 0.607 0.9602   -0.100358
 C 0.6436 0.583 0.0127   0.139653
 C 0.7005 0.6253 0.0595   -0.098016
 C 0.81 0.6947 0.0548   -0.133047
 C 0.5276 0.1155 0.9628   0.170127
 C 0.3385 0.1237 0.9921   0.045705
 C 0.4221 0.1998 0.0041   -0.117352
 C 0.6594 0.2644 0.9869   0.132619
 C 0.7555 0.2688 0.9471   -0.153739
 C 0.8647 0.3383 0.948   -0.112432
 C 0.8792 0.402 0.9868   0.144238
 C 0.7857 0.3958 0.0268   -0.104797
 C 0.6747 0.3269 0.0269   -0.126251
 C 0.2306 0.085 0.8484   0.637808
 C 0.1965 0.1603 0.82376   -0.126856
 C 0.2916 0.2305 0.8056   -0.028803
 C 0.2596 0.3048 0.7856   -0.155404
 C 0.1283 0.308 0.7855   0.0739
 C 0.0326 0.2377 0.8035   -0.150458
 C 0.0641 0.1645 0.823   -0.034827
 C 0.0929 0.3874 0.7654   -0.008073
 C 0.1059 0.4125 0.7098   0.091849
 C 0.0656 0.4862 0.69493   -0.1837
 C 0.015 0.5345 0.73206   -0.006183
 C 0.0026 0.5105 0.7879   0.094384
 C 0.0428 0.4371 0.8028   -0.18684
 C 0.1579 0.3624 0.6666   -0.365259
 C 0.9508 0.5602 0.8315   -0.34864
 C 0.9772 0.6127 0.7103   0.071649
 C 0.0679 0.6762 0.6823   -0.146546
 C 0.0335 0.7449 0.659   -0.032824
 C 0.9054 0.7532 0.6643   -0.134707
 C 0.8133 0.6897 0.693   -0.036191
 C 0.851 0.6198 0.7155   -0.154051
 C 0.864 0.8282 0.63932   0.641839
 C 0.4347 0.1899 0.4601   0.153877
 C 0.388 0.0848 0.5175   0.028416
 C 0.4989 0.1397 0.5356   -0.123357
 C 0.6381 0.2792 0.5033   0.12404
 C 0.6912 0.3226 0.4557   -0.145674
 C 0.8013 0.393 0.4602   -0.100358
 C 0.8564 0.417 0.5127   0.139653
 C 0.7995 0.3747 0.5595   -0.098016
 C 0.69 0.3053 0.5548   -0.133047
 C 0.9724 0.8845 0.4628   0.170127
 C 0.1615 0.8763 0.4921   0.045705
 C 0.0779 0.8002 0.5041   -0.117352
 C 0.8406 0.7356 0.4869   0.132619
 C 0.7445 0.7312 0.4471   -0.153739
 C 0.6353 0.6617 0.448   -0.112432
 C 0.6208 0.598 0.4868   0.144238
 C 0.7143 0.6042 0.5268   -0.104797
 C 0.8253 0.6731 0.5269   -0.126251
 C 0.2694 0.915 0.3484   0.637808
 C 0.3035 0.8397 0.32376   -0.126856
 C 0.2084 0.7695 0.3056   -0.028803
 C 0.2404 0.6952 0.2856   -0.155404
 C 0.3717 0.692 0.2855   0.0739
 C 0.4674 0.7623 0.3035   -0.150458
 C 0.4359 0.8355 0.323   -0.034827
 C 0.4071 0.6126 0.2654   -0.008073
 C 0.3941 0.5875 0.2098   0.091849
 C 0.4344 0.5138 0.19493   -0.1837
 C 0.485 0.4655 0.23206   -0.006183
 C 0.4974 0.4895 0.2879   0.094384
 C 0.4572 0.5629 0.3028   -0.18684
 C 0.3421 0.6376 0.1666   -0.365259
 C 0.5492 0.4398 0.3315   -0.34864
 C 0.5228 0.3873 0.2103   0.071649
 C 0.4321 0.3238 0.1823   -0.146546
 C 0.4665 0.2551 0.159   -0.032824
 C 0.5946 0.2468 0.1643   -0.134707
 C 0.6867 0.3103 0.193   -0.036191
 C 0.649 0.3802 0.2155   -0.154051
 C 0.636 0.1718 0.13932   0.641839
 C 0.9347 0.1899 0.0399   0.153877
 C 0.888 0.0848 0.9825   0.028416
 C 0.9989 0.1397 0.9644   -0.123357
 C 0.1381 0.2792 0.9967   0.12404
 C 0.1912 0.3226 0.0443   -0.145675
 C 0.3013 0.393 0.0398   -0.100355
 C 0.3564 0.417 0.9873   0.139644
 C 0.2995 0.3747 0.9405   -0.098016
 C 0.19 0.3053 0.9452   -0.133045
 C 0.4724 0.8845 0.0372   0.170127
 C 0.6615 0.8763 0.0079   0.045705
 C 0.5779 0.8002 0.9959   -0.117352
 C 0.3406 0.7356 0.0131   0.13262
 C 0.2445 0.7312 0.0529   -0.153738
 C 0.1353 0.6617 0.052   -0.112432
 C 0.1208 0.598 0.0132   0.144232
 C 0.2143 0.6042 0.9732   -0.104795
 C 0.3253 0.6731 0.9731   -0.126251
 C 0.7694 0.915 0.1516   0.637808
 C 0.8035 0.8397 0.17624   -0.126856
 C 0.7084 0.7695 0.1944   -0.028803
 C 0.7404 0.6952 0.2144   -0.155404
 C 0.8717 0.692 0.2145   0.0739
 C 0.9674 0.7623 0.1965   -0.150458
 C 0.9359 0.8355 0.177   -0.034827
 C 0.9071 0.6126 0.2346   -0.008073
 C 0.8941 0.5875 0.2902   0.091848
 C 0.9344 0.5138 0.30507   -0.183699
 C 0.985 0.4655 0.26794   -0.006183
 C 0.9974 0.4895 0.2121   0.094384
 C 0.9572 0.5629 0.1972   -0.18684
 C 0.8421 0.6376 0.3334   -0.365259
 C 0.0492 0.4398 0.1685   -0.34864
 C 0.0228 0.3873 0.2897   0.071649
 C 0.9321 0.3238 0.3177   -0.146546
 C 0.9665 0.2551 0.341   -0.032824
 C 0.0946 0.2468 0.3357   -0.134707
 C 0.1867 0.3103 0.307   -0.036191
 C 0.149 0.3802 0.2845   -0.154051
 C 0.136 0.1718 0.36068   0.641839
 C 0.5653 0.8101 0.5399   0.153877
 C 0.612 0.9152 0.4825   0.028416
 C 0.5011 0.8603 0.4644   -0.123357
 C 0.3619 0.7208 0.4967   0.124041
 C 0.3088 0.6774 0.5443   -0.145675
 C 0.1987 0.607 0.5398   -0.100355
 C 0.1436 0.583 0.4873   0.139644
 C 0.2005 0.6253 0.4405   -0.098016
 C 0.31 0.6947 0.4452   -0.133045
 C 0.0276 0.1155 0.5372   0.170127
 C 0.8385 0.1237 0.5079   0.045705
 C 0.9221 0.1998 0.4959   -0.117352
 C 0.1594 0.2644 0.5131   0.13262
 C 0.2555 0.2688 0.5529   -0.153738
 C 0.3647 0.3383 0.552   -0.112432
 C 0.3792 0.402 0.5132   0.144232
 C 0.2857 0.3958 0.4732   -0.104795
 C 0.1747 0.3269 0.4731   -0.126251
 C 0.7306 0.085 0.6516   0.637808
 C 0.6965 0.1603 0.67624   -0.126856
 C 0.7916 0.2305 0.6944   -0.028803
 C 0.7596 0.3048 0.7144   -0.155404
 C 0.6283 0.308 0.7145   0.0739
 C 0.5326 0.2377 0.6965   -0.150458
 C 0.5641 0.1645 0.677   -0.034827
 C 0.5929 0.3874 0.7346   -0.008073
 C 0.6059 0.4125 0.7902   0.091848
 C 0.5656 0.4862 0.80507   -0.183699
 C 0.515 0.5345 0.76794   -0.006183
 C 0.5026 0.5105 0.7121   0.094384
 C 0.5428 0.4371 0.6972   -0.18684
 C 0.6579 0.3624 0.8334   -0.365259
 C 0.4508 0.5602 0.6685   -0.34864
 C 0.4772 0.6127 0.7897   0.071649
 C 0.5679 0.6762 0.8177   -0.146546
 C 0.5335 0.7449 0.841   -0.032824
 C 0.4054 0.7532 0.8357   -0.134707
 C 0.3133 0.6897 0.807   -0.036191
 C 0.351 0.6198 0.7845   -0.154051
 C 0.364 0.8282 0.86068   0.641839
 N 0.1525 0.8839 0.96959   -0.389762
 N 0.9711 0.7938 0.99933   0.034882
 N 0.5276 0.5146 0.02196   -0.143384
 N 0.9949 0.4717 0.98184   -0.151564
 N 0.5436 0.1951 0.98546   0.033249
 N 0.4048 0.0701 0.9666   -0.394371
 N 0.3475 0.1161 0.46959   -0.389762
 N 0.5289 0.2062 0.49933   0.034882
 N 0.9724 0.4854 0.52196   -0.143384
 N 0.5051 0.5283 0.48184   -0.151564
 N 0.9564 0.8049 0.48546   0.033249
 N 0.0952 0.9299 0.4666   -0.394371
 N 0.8475 0.1161 0.03041   -0.389762
 N 0.0289 0.2062 0.000669999999999   0.034881
 N 0.4724 0.4854 0.97804   -0.143298
 N 0.0051 0.5283 0.01816   -0.151498
 N 0.4564 0.8049 0.01454   0.033249
 N 0.5952 0.9299 0.0334   -0.394371
 N 0.6525 0.8839 0.53041   -0.389762
 N 0.4711 0.7938 0.50067   0.034881
 N 0.0276 0.5146 0.47804   -0.143298
 N 0.4949 0.4717 0.51816   -0.151498
 N 0.0436 0.1951 0.51454   0.033249
 N 0.9048 0.0701 0.5334   -0.394371
 O 0.1475 0.0338 0.87911   -0.616313
 O 0.3443 0.0734 0.84012   -0.608115
 O 0.7496 0.8337 0.64611   -0.592929
 O 0.9479 0.8844 0.61248   -0.622523
 O 0.3525 0.9662 0.37911   -0.616313
 O 0.1557 0.9266 0.34012   -0.608115
 O 0.7504 0.1663 0.14611   -0.592929
 O 0.5521 0.1156 0.11248   -0.622523
 O 0.8525 0.9662 0.12089   -0.616313
 O 0.6557 0.9266 0.15988   -0.608115
 O 0.2504 0.1663 0.35389   -0.592929
 O 0.0521 0.1156 0.38752   -0.622523
 O 0.6475 0.0338 0.62089   -0.616313
 O 0.8443 0.0734 0.65988   -0.608115
 O 0.2496 0.8337 0.85389   -0.592929
 O 0.4479 0.8844 0.88752   -0.622523
