{'_ref': 'TBD', '_srcid': 'CAKYAQ_clean', 'submitters': [{'name': 'Dalar Nazarian Jeff Camp and David Sholl', 'email': 'dalar@gatech.edu jcamp6@gatech.edu'}], '_method': 'VASP DFT with PBE;DDEC'}
data_NiH29C32N7O2
_symmetry_space_group_name_H-M   'P 1'
_cell_length_a   9.07169969
_cell_length_b   14.93990008
_cell_length_c   15.64280000
_cell_angle_alpha   118.52399902
_cell_angle_beta   105.20900269
_cell_angle_gamma   90.00000064
_symmetry_Int_Tables_number   1
_chemical_formula_structural   NiH29C32N7O2
_chemical_formula_sum   'Ni2 H58 C64 N14 O4'
_cell_volume   1777.7612311
_cell_formula_units_Z   2
loop_
 _symmetry_equiv_pos_site_id
 _symmetry_equiv_pos_as_xyz
  1  'x, y, z'
loop_
 _atom_site_label
 _atom_site_fract_x
 _atom_site_fract_y
 _atom_site_fract_z
 _atom_site_charge
 Ni 0.50166 0.75821 0.42542   0.309807
 Ni 0.49834 0.33279 0.57458   0.309026
 H 0.349 0.9597 0.5394   0.115156
 H 0.4104 0.0685 0.7218   0.140225
 H 0.6676 0.8445 0.6636   0.084456
 H 0.2328 0.7627 0.5338   0.090899
 H 0.0493 0.6107 0.4784   0.120596
 H 0.3414 0.5338 0.3186   0.088435
 H 0.5785 0.9179 0.3544   0.101694
 H 0.993 0.8387 0.3596   0.137076
 H 0.8665 0.7499 0.4234   0.085521
 H 0.6938 0.8697 0.8248   0.113675
 H 0.8254 0.936 0.997   0.115164
 H 0.7124 0.2149 0.0568   0.115635
 H 0.5914 0.1514 0.8836   0.117251
 H 0.6149 0.0402 0.1466   0.102528
 H 0.5843 0.9508 0.2294   0.108598
 H 0.0451 0.9884 0.3466   0.117422
 H 0.0757 0.0777 0.2636   0.107166
 H 0.8874 0.2627 0.3352   0.101907
 H 0.0232 0.4302 0.4326   0.096389
 H 0.1562 0.389 0.191   0.123519
 H 0.0483 0.2195 0.1056   0.099511
 H 0.108 0.6648 0.1528   0.1102
 H 0.156 0.7774 0.1772   0.099235
 H 0.1735 0.6468 0.0098   0.06147
 H 0.3113 0.6122 0.0672   0.075372
 H 0.3123 0.8171 0.1062   0.05853
 H 0.4533 0.774 0.15   0.06229
 H 0.3739 0.761 0.959   0.048809
 H 0.3706 0.6488 0.9422   0.067868
 H 0.651 0.4203 0.4606   0.115353
 H 0.5896 0.3467 0.2782   0.139443
 H 0.3324 0.1809 0.3364   0.083649
 H 0.7672 0.2289 0.4662   0.091033
 H 0.9507 0.1323 0.5216   0.121581
 H 0.6586 0.2152 0.6814   0.089251
 H 0.4215 0.5635 0.6456   0.10152
 H 0.007 0.4791 0.6404   0.13675
 H 0.1335 0.3265 0.5766   0.087138
 H 0.3062 0.0449 0.1752   0.113236
 H 0.1746 0.939 0.003   0.114145
 H 0.2876 0.1581 0.9432   0.116114
 H 0.4086 0.2678 0.1164   0.118068
 H 0.3851 0.8936 0.8534   0.10259
 H 0.4157 0.7214 0.7706   0.109262
 H 0.9549 0.6418 0.6534   0.117586
 H 0.9243 0.8141 0.7364   0.107173
 H 0.1126 0.9275 0.6648   0.102306
 H 0.9768 0.9976 0.5674   0.096619
 H 0.8438 0.198 0.809   0.122903
 H 0.9517 0.1139 0.8944   0.099187
 H 0.892 0.512 0.8472   0.109277
 H 0.844 0.6002 0.8228   0.098766
 H 0.8265 0.637 0.9902   0.0608
 H 0.6887 0.545 0.9328   0.07474
 H 0.6877 0.7109 0.8938   0.058982
 H 0.5467 0.624 0.85   0.062658
 H 0.6261 0.802 0.041   0.048074
 H 0.6294 0.7066 0.0578   0.067239
 C 0.4229 0.95145 0.5881   0.033341
 C 0.4542 0.01046 0.68772   -0.171858
 C 0.5976 0.8873 0.6554   0.117999
 C 0.2318 0.6963 0.4826   0.019279
 C 0.1299 0.612 0.4524   -0.171952
 C 0.2907 0.57193 0.36606   0.108524
 C 0.6659 0.88752 0.36504   0.117138
 C 0.8943 0.84366 0.36672   -0.160723
 C 0.8244 0.7959 0.403   0.020477
 C 0.3208 0.73131 0.26082   0.688082
 C 0.6338 0.0066 0.8382   0.088364
 C 0.7011 0.93925 0.8709   -0.156772
 C 0.779 0.97926 0.97412   -0.153016
 C 0.788 0.08362 0.04364   0.141877
 C 0.7131 0.14658 0.01016   -0.166597
 C 0.6382 0.10806 0.90632   -0.140468
 C 0.8483 0.06785 0.19694   0.133791
 C 0.7011 0.02983 0.18668   -0.139687
 C 0.6828 0.97625 0.2363   -0.144915
 C 0.8117 0.9607 0.2962   0.085735
 C 0.9589 0.99873 0.30646   -0.137748
 C 0.9772 0.05232 0.25684   -0.15432
 C 0.9454 0.22417 0.20594   0.137608
 C 0.9425 0.28793 0.30686   -0.180278
 C 0.0222 0.3893 0.3652   -0.125671
 C 0.098 0.42667 0.32154   0.093407
 C 0.1051 0.36323 0.22086   -0.155465
 C 0.0351 0.26322 0.16884   -0.153718
 C 0.1936 0.7131 0.166   -0.336286
 C 0.257 0.6696 0.0724   -0.076254
 C 0.364 0.7569 0.092   -0.123428
 C 0.415 0.7201 0.9902   -0.122107
 C 0.5771 0.36335 0.4119   0.033191
 C 0.5458 0.32274 0.31228   -0.170741
 C 0.4024 0.2319 0.3446   0.119152
 C 0.7682 0.2137 0.5174   0.019233
 C 0.8701 0.1596 0.5476   -0.173077
 C 0.7093 0.20587 0.63394   0.106289
 C 0.3341 0.52248 0.63496   0.116409
 C 0.1057 0.47694 0.63328   -0.159978
 C 0.1756 0.3929 0.597   0.017864
 C 0.6792 0.47049 0.73918   0.687578
 C 0.3662 0.1684 0.1618   0.088452
 C 0.2989 0.06835 0.1291   -0.157176
 C 0.221 0.00514 0.02588   -0.151624
 C 0.212 0.03998 0.95636   0.141997
 C 0.2869 0.13642 0.98984   -0.167445
 C 0.3618 0.20174 0.09368   -0.14079
 C 0.1517 0.87091 0.80306   0.134764
 C 0.2989 0.84315 0.81332   -0.139313
 C 0.3172 0.73995 0.7637   -0.146209
 C 0.1883 0.6645 0.7038   0.085735
 C 0.0411 0.69227 0.69354   -0.13736
 C 0.0228 0.79548 0.74316   -0.15504
 C 0.0546 0.01823 0.79406   0.137086
 C 0.0575 0.98107 0.69314   -0.180457
 C 0.9778 0.0241 0.6348   -0.125401
 C 0.902 0.10513 0.67846   0.091514
 C 0.8949 0.14237 0.77914   -0.153249
 C 0.9649 0.09438 0.83116   -0.154053
 C 0.8064 0.5471 0.834   -0.334751
 C 0.743 0.5972 0.9276   -0.074459
 C 0.636 0.6649 0.908   -0.124901
 C 0.585 0.7299 0.0098   -0.120356
 N 0.5177 0.87505 0.5669   -0.277593
 N 0.5674 0.96758 0.73196   0.034288
 N 0.3282 0.66873 0.42766   -0.259477
 N 0.1688 0.53103 0.37766   0.056829
 N 0.6807 0.82522 0.40504   -0.278101
 N 0.7929 0.90017 0.34274   0.052905
 N 0.8675 0.12423 0.14786   -0.130064
 N 0.4823 0.30815 0.4331   -0.277862
 N 0.4326 0.23562 0.26804   0.033832
 N 0.6718 0.24107 0.57234   -0.258054
 N 0.8312 0.15337 0.62234   0.057951
 N 0.3193 0.42018 0.59496   -0.27662
 N 0.2071 0.55743 0.65726   0.053105
 N 0.1325 0.97637 0.85214   -0.130523
 O 0.407 0.66659 0.25898   -0.582539
 O 0.333 0.81172 0.34304   -0.606991
 O 0.593 0.40761 0.74102   -0.581633
 O 0.667 0.46868 0.65696   -0.607565
