{'_ref': 'TBD', '_srcid': 'CAKYAQ_clean', 'submitters': [{'name': 'Dalar Nazarian Jeff Camp and David Sholl', 'email': 'dalar@gatech.edu jcamp6@gatech.edu'}], '_method': 'VASP DFT with PBE;DDEC'}
data_NdH7C19(O4F3)2
_symmetry_space_group_name_H-M   'P 1'
_cell_length_a   7.36540000
_cell_length_b   23.48079995
_cell_length_c   29.02840000
_cell_angle_alpha   90.00000000
_cell_angle_beta   90.00000000
_cell_angle_gamma   90.96899999
_symmetry_Int_Tables_number   1
_chemical_formula_structural   NdH7C19(O4F3)2
_chemical_formula_sum   'Nd8 H56 C152 O64 F48'
_cell_volume   5019.61273723
_cell_formula_units_Z   8
loop_
 _symmetry_equiv_pos_site_id
 _symmetry_equiv_pos_as_xyz
  1  'x, y, z'
loop_
 _atom_site_label
 _atom_site_fract_x
 _atom_site_fract_y
 _atom_site_fract_z
 _atom_site_charge
 Nd 0.78954 0.67208 0.29729   2.304383
 Nd 0.28631 0.74295 0.26218   2.354118
 Nd 0.21046 0.82792 0.79729   2.304383
 Nd 0.71369 0.75705 0.76218   2.354118
 Nd 0.21046 0.32792 0.70271   2.304383
 Nd 0.71369 0.25705 0.73782   2.354118
 Nd 0.78954 0.17208 0.20271   2.304383
 Nd 0.28631 0.24295 0.23782   2.354118
 H 0.9289 0.6202 0.5766   0.462996
 H 0.8968 0.3436 0.2946   0.404441
 H 0.5888 0.7414 0.4483   0.096659
 H 0.9774 0.7759 0.4317   0.115691
 H 0.1291 0.805 0.498   0.106023
 H 0.2315 0.7127 0.5502   0.104912
 H 0.241 0.8477 0.666   0.11214
 H 0.4179 0.861 0.6007   0.086126
 H 0.9655 0.5378 0.1778   0.102799
 H 0.5889 0.5564 0.1726   0.108751
 H 0.4408 0.5035 0.1179   0.090302
 H 0.1171 0.4209 0.183   0.122572
 H 0.5689 0.3651 0.1186   0.099249
 H 0.7493 0.4326 0.0817   0.101889
 H 0.0711 0.8798 0.0766   0.462996
 H 0.1032 0.1564 0.7946   0.404441
 H 0.4112 0.7586 0.9483   0.096659
 H 0.0226 0.7241 0.9317   0.115691
 H 0.8709 0.695 0.998   0.106023
 H 0.7685 0.7873 0.0502   0.104912
 H 0.759 0.6523 0.166   0.11214
 H 0.5821 0.639 0.1007   0.086126
 H 0.0345 0.9622 0.6778   0.102799
 H 0.4111 0.9436 0.6726   0.108751
 H 0.5592 0.9965 0.6179   0.090302
 H 0.8829 0.0791 0.683   0.122572
 H 0.4311 0.1349 0.6186   0.099249
 H 0.2507 0.0674 0.5817   0.101889
 H 0.0711 0.3798 0.4234   0.462995
 H 0.1032 0.6564 0.7054   0.404441
 H 0.4112 0.2586 0.5517   0.096659
 H 0.0226 0.2241 0.5683   0.115691
 H 0.8709 0.195 0.502   0.106023
 H 0.7685 0.2873 0.4498   0.104911
 H 0.759 0.1523 0.334   0.11214
 H 0.5821 0.139 0.3993   0.086126
 H 0.0345 0.4622 0.8222   0.102799
 H 0.4111 0.4436 0.8274   0.108751
 H 0.5592 0.4965 0.8821   0.090302
 H 0.8829 0.5791 0.817   0.122572
 H 0.4311 0.6349 0.8814   0.099249
 H 0.2507 0.5674 0.9183   0.101889
 H 0.9289 0.1202 0.9234   0.462995
 H 0.8968 0.8436 0.2054   0.404441
 H 0.5888 0.2414 0.0517   0.096659
 H 0.9774 0.2759 0.0683   0.115691
 H 0.1291 0.305 0.002   0.106023
 H 0.2315 0.2127 0.9498   0.104911
 H 0.241 0.3477 0.834   0.11214
 H 0.4179 0.361 0.8993   0.086126
 H 0.9655 0.0378 0.3222   0.102799
 H 0.5889 0.0564 0.3274   0.108751
 H 0.4408 0.0035 0.3821   0.090302
 H 0.1171 0.9209 0.317   0.122572
 H 0.5689 0.8651 0.3814   0.099249
 H 0.7493 0.9326 0.4183   0.101889
 C 0.4683 0.7933 0.5262   -0.276981
 C 0.3747 0.7729 0.4813   0.03334
 C 0.465 0.7477 0.4453   -0.069988
 C 0.3796 0.7313 0.4049   -0.122166
 C 0.1913 0.7397 0.4002   -0.020992
 C 0.1001 0.7682 0.4351   -0.077627
 C 0.191 0.7853 0.4753   -0.105289
 C 0.4858 0.7053 0.3674   0.730475
 C 0.0816 0.7148 0.3613   0.734213
 C 0.3457 0.7882 0.5685   0.059673
 C 0.2343 0.7398 0.5736   -0.086166
 C 0.1269 0.7309 0.6127   -0.123788
 C 0.1285 0.7723 0.6472   -0.040099
 C 0.2385 0.8205 0.6427   -0.037047
 C 0.3456 0.8283 0.6034   -0.097914
 C 0.0179 0.6775 0.6143   0.676599
 C 0.0081 0.77 0.6888   0.728374
 C 0.5327 0.8559 0.518   0.680629
 C 0.6352 0.7567 0.5378   0.679482
 C 0.0702 0.4807 0.1062   -0.28732
 C 0.1859 0.5153 0.1418   0.044574
 C 0.0909 0.5427 0.1761   -0.074806
 C 0.1795 0.5777 0.2083   -0.119536
 C 0.3706 0.5831 0.2079   -0.018527
 C 0.4628 0.5539 0.1735   -0.062783
 C 0.3745 0.5215 0.1408   -0.09945
 C 0.0666 0.6086 0.2423   0.707479
 C 0.4777 0.6186 0.2417   0.72891
 C 0.9488 0.4353 0.1301   0.063764
 C 0.0053 0.4104 0.1704   -0.081863
 C 0.8977 0.3698 0.1927   -0.079854
 C 0.7291 0.3535 0.1734   -0.073364
 C 0.6779 0.3768 0.132   -0.02591
 C 0.7855 0.4174 0.1098   -0.129798
 C 0.9583 0.349 0.2386   0.738993
 C 0.6031 0.3101 0.1945   0.727495
 C 0.1891 0.4492 0.0713   0.682363
 C 0.9562 0.5247 0.0794   0.683958
 C 0.5317 0.7067 0.0262   -0.276981
 C 0.6253 0.7271 0.9813   0.03334
 C 0.535 0.7523 0.9453   -0.069988
 C 0.6204 0.7687 0.9049   -0.122166
 C 0.8087 0.7603 0.9002   -0.020992
 C 0.8999 0.7318 0.9351   -0.077627
 C 0.809 0.7147 0.9753   -0.105289
 C 0.5142 0.7947 0.8674   0.730475
 C 0.9184 0.7852 0.8613   0.734213
 C 0.6543 0.7118 0.0685   0.059673
 C 0.7657 0.7602 0.0736   -0.086166
 C 0.8731 0.7691 0.1127   -0.123788
 C 0.8715 0.7277 0.1472   -0.040099
 C 0.7615 0.6795 0.1427   -0.037047
 C 0.6544 0.6717 0.1034   -0.097914
 C 0.9821 0.8225 0.1143   0.676599
 C 0.9919 0.73 0.1888   0.728374
 C 0.4673 0.6441 0.018   0.680629
 C 0.3648 0.7433 0.0378   0.679482
 C 0.9298 0.0193 0.6062   -0.28732
 C 0.8141 0.9847 0.6418   0.044574
 C 0.9091 0.9573 0.6761   -0.074806
 C 0.8205 0.9223 0.7083   -0.119536
 C 0.6294 0.9169 0.7079   -0.018527
 C 0.5372 0.9461 0.6735   -0.062783
 C 0.6255 0.9785 0.6408   -0.09945
 C 0.9334 0.8914 0.7423   0.707479
 C 0.5223 0.8814 0.7417   0.72891
 C 0.0512 0.0647 0.6301   0.063764
 C 0.9947 0.0896 0.6704   -0.081863
 C 0.1023 0.1302 0.6927   -0.079854
 C 0.2709 0.1465 0.6734   -0.073364
 C 0.3221 0.1232 0.632   -0.02591
 C 0.2145 0.0826 0.6098   -0.129798
 C 0.0417 0.151 0.7386   0.738993
 C 0.3969 0.1899 0.6945   0.727495
 C 0.8109 0.0508 0.5713   0.682363
 C 0.0438 0.9753 0.5794   0.683958
 C 0.5317 0.2067 0.4738   -0.276981
 C 0.6253 0.2271 0.5187   0.03334
 C 0.535 0.2523 0.5547   -0.069988
 C 0.6204 0.2687 0.5951   -0.122166
 C 0.8087 0.2603 0.5998   -0.020992
 C 0.8999 0.2318 0.5649   -0.077626
 C 0.809 0.2147 0.5247   -0.105289
 C 0.5142 0.2947 0.6326   0.730475
 C 0.9184 0.2852 0.6387   0.734213
 C 0.6543 0.2118 0.4315   0.059673
 C 0.7657 0.2602 0.4264   -0.086166
 C 0.8731 0.2691 0.3873   -0.123788
 C 0.8715 0.2277 0.3528   -0.040099
 C 0.7615 0.1795 0.3573   -0.037047
 C 0.6544 0.1717 0.3966   -0.097914
 C 0.9821 0.3225 0.3857   0.676599
 C 0.9919 0.23 0.3112   0.728374
 C 0.4673 0.1441 0.482   0.680629
 C 0.3648 0.2433 0.4622   0.679482
 C 0.9298 0.5193 0.8938   -0.28732
 C 0.8141 0.4847 0.8582   0.044574
 C 0.9091 0.4573 0.8239   -0.074806
 C 0.8205 0.4223 0.7917   -0.119536
 C 0.6294 0.4169 0.7921   -0.018527
 C 0.5372 0.4461 0.8265   -0.062783
 C 0.6255 0.4785 0.8592   -0.09945
 C 0.9334 0.3914 0.7577   0.707479
 C 0.5223 0.3814 0.7583   0.72891
 C 0.0512 0.5647 0.8699   0.063764
 C 0.9947 0.5896 0.8296   -0.081863
 C 0.1023 0.6302 0.8073   -0.079854
 C 0.2709 0.6465 0.8266   -0.073364
 C 0.3221 0.6232 0.868   -0.02591
 C 0.2145 0.5826 0.8902   -0.129798
 C 0.0417 0.651 0.7614   0.738993
 C 0.3969 0.6899 0.8055   0.727495
 C 0.8109 0.5508 0.9287   0.682363
 C 0.0438 0.4753 0.9206   0.683959
 C 0.4683 0.2933 0.9738   -0.276981
 C 0.3747 0.2729 0.0187   0.03334
 C 0.465 0.2477 0.0547   -0.069988
 C 0.3796 0.2313 0.0951   -0.122166
 C 0.1913 0.2397 0.0998   -0.020992
 C 0.1001 0.2682 0.0649   -0.077626
 C 0.191 0.2853 0.0247   -0.105289
 C 0.4858 0.2053 0.1326   0.730475
 C 0.0816 0.2148 0.1387   0.734213
 C 0.3457 0.2882 0.9315   0.059673
 C 0.2343 0.2398 0.9264   -0.086166
 C 0.1269 0.2309 0.8873   -0.123788
 C 0.1285 0.2723 0.8528   -0.040099
 C 0.2385 0.3205 0.8573   -0.037047
 C 0.3456 0.3283 0.8966   -0.097913
 C 0.0179 0.1775 0.8857   0.676599
 C 0.0081 0.27 0.8112   0.728374
 C 0.5327 0.3559 0.982   0.680629
 C 0.6352 0.2567 0.9622   0.679482
 C 0.0702 0.9807 0.3938   -0.28732
 C 0.1859 0.0153 0.3582   0.044574
 C 0.0909 0.0427 0.3239   -0.074806
 C 0.1795 0.0777 0.2917   -0.119536
 C 0.3706 0.0831 0.2921   -0.018527
 C 0.4628 0.0539 0.3265   -0.062783
 C 0.3745 0.0215 0.3592   -0.09945
 C 0.0666 0.1086 0.2577   0.707479
 C 0.4777 0.1186 0.2583   0.72891
 C 0.9488 0.9353 0.3699   0.063764
 C 0.0053 0.9104 0.3296   -0.081863
 C 0.8977 0.8698 0.3073   -0.079854
 C 0.7291 0.8535 0.3266   -0.073364
 C 0.6779 0.8768 0.368   -0.02591
 C 0.7855 0.9174 0.3902   -0.129798
 C 0.9583 0.849 0.2614   0.738993
 C 0.6031 0.8101 0.3055   0.727495
 C 0.1891 0.9492 0.4287   0.682363
 C 0.9562 0.0247 0.4206   0.683959
 O 0.6511 0.6988 0.3731   -0.675698
 O 0.4064 0.6923 0.33017   -0.768235
 O 0.0562 0.7448 0.32433   -0.854472
 O 0.0068 0.6682 0.3665   -0.619539
 O 0.9936 0.6511 0.6523   -0.571732
 O 0.9593 0.6574 0.577   -0.511116
 O 0.0793 0.7774 0.72819   -0.782724
 O 0.8403 0.7639 0.6844   -0.709664
 O 0.1393 0.6441 0.26987   -0.761326
 O 0.8951 0.6007 0.2416   -0.676543
 O 0.504 0.6716 0.23488   -0.840477
 O 0.5526 0.5931 0.2747   -0.637613
 O 0.1139 0.3327 0.24501   -0.644023
 O 0.8404 0.3533 0.27169   -0.477841
 O 0.6646 0.2656 0.2124   -0.810194
 O 0.4366 0.3194 0.1931   -0.672739
 O 0.3489 0.8012 0.8731   -0.675698
 O 0.5936 0.8077 0.83017   -0.768235
 O 0.9438 0.7552 0.82433   -0.854472
 O 0.9932 0.8318 0.8665   -0.619539
 O 0.0064 0.8489 0.1523   -0.571732
 O 0.0407 0.8426 0.077   -0.511116
 O 0.9207 0.7226 0.22819   -0.782724
 O 0.1597 0.7361 0.1844   -0.709664
 O 0.8607 0.8559 0.76987   -0.761326
 O 0.1049 0.8993 0.7416   -0.676543
 O 0.496 0.8284 0.73488   -0.840477
 O 0.4474 0.9069 0.7747   -0.637613
 O 0.8861 0.1673 0.74501   -0.644023
 O 0.1596 0.1467 0.77169   -0.477841
 O 0.3354 0.2344 0.7124   -0.810194
 O 0.5634 0.1806 0.6931   -0.672739
 O 0.3489 0.3012 0.6269   -0.675698
 O 0.5936 0.3077 0.66983   -0.768235
 O 0.9438 0.2552 0.67567   -0.854472
 O 0.9932 0.3318 0.6335   -0.619539
 O 0.0064 0.3489 0.3477   -0.571731
 O 0.0407 0.3426 0.423   -0.511115
 O 0.9207 0.2226 0.27181   -0.782724
 O 0.1597 0.2361 0.3156   -0.709664
 O 0.8607 0.3559 0.73013   -0.761326
 O 0.1049 0.3993 0.7584   -0.676543
 O 0.496 0.3284 0.76512   -0.840477
 O 0.4474 0.4069 0.7253   -0.637613
 O 0.8861 0.6673 0.75499   -0.644023
 O 0.1596 0.6467 0.72831   -0.477841
 O 0.3354 0.7344 0.7876   -0.810194
 O 0.5634 0.6806 0.8069   -0.672739
 O 0.6511 0.1988 0.1269   -0.675698
 O 0.4064 0.1923 0.16983   -0.768235
 O 0.0562 0.2448 0.17567   -0.854472
 O 0.0068 0.1682 0.1335   -0.619539
 O 0.9936 0.1511 0.8477   -0.571731
 O 0.9593 0.1574 0.923   -0.511115
 O 0.0793 0.2774 0.77181   -0.782724
 O 0.8403 0.2639 0.8156   -0.709664
 O 0.1393 0.1441 0.23013   -0.761326
 O 0.8951 0.1007 0.2584   -0.676543
 O 0.504 0.1716 0.26512   -0.840477
 O 0.5526 0.0931 0.2253   -0.637613
 O 0.1139 0.8327 0.25499   -0.644023
 O 0.8404 0.8533 0.22831   -0.477841
 O 0.6646 0.7656 0.2876   -0.810194
 O 0.4366 0.8194 0.3069   -0.672739
 F 0.395 0.8909 0.51732   -0.185991
 F 0.6506 0.8738 0.54957   -0.18988
 F 0.6209 0.8606 0.47753   -0.203771
 F 0.7782 0.7653 0.50879   -0.206768
 F 0.5919 0.7007 0.53427   -0.20826
 F 0.6967 0.7658 0.57988   -0.177133
 F 0.2924 0.4846 0.04593   -0.201545
 F 0.3022 0.4139 0.0927   -0.186373
 F 0.0919 0.4173 0.04221   -0.195827
 F 0.0521 0.5712 0.06839   -0.199997
 F 0.8847 0.5047 0.04002   -0.204453
 F 0.8154 0.5422 0.10478   -0.188168
 F 0.605 0.6091 0.01732   -0.185992
 F 0.3494 0.6262 0.04957   -0.189881
 F 0.3791 0.6394 0.97753   -0.203771
 F 0.2218 0.7347 0.00879   -0.206768
 F 0.4081 0.7993 0.03427   -0.20826
 F 0.3033 0.7342 0.07988   -0.177133
 F 0.7076 0.0154 0.54593   -0.201546
 F 0.6978 0.0861 0.5927   -0.186373
 F 0.9081 0.0827 0.54221   -0.195827
 F 0.9479 0.9288 0.56839   -0.199997
 F 0.1153 0.9953 0.54002   -0.204453
 F 0.1846 0.9578 0.60478   -0.188168
 F 0.605 0.1091 0.48268   -0.185992
 F 0.3494 0.1262 0.45043   -0.18988
 F 0.3791 0.1394 0.52247   -0.203771
 F 0.2218 0.2347 0.49121   -0.206768
 F 0.4081 0.2993 0.46573   -0.20826
 F 0.3033 0.2342 0.42012   -0.177133
 F 0.7076 0.5154 0.95407   -0.201546
 F 0.6978 0.5861 0.9073   -0.186373
 F 0.9081 0.5827 0.95779   -0.195828
 F 0.9479 0.4288 0.93161   -0.199997
 F 0.1153 0.4953 0.95998   -0.204454
 F 0.1846 0.4578 0.89522   -0.188168
 F 0.395 0.3909 0.98268   -0.185992
 F 0.6506 0.3738 0.95043   -0.189881
 F 0.6209 0.3606 0.02247   -0.203771
 F 0.7782 0.2653 0.99121   -0.206768
 F 0.5919 0.2007 0.96573   -0.20826
 F 0.6967 0.2658 0.92012   -0.177133
 F 0.2924 0.9846 0.45407   -0.201546
 F 0.3022 0.9139 0.4073   -0.186373
 F 0.0919 0.9173 0.45779   -0.195828
 F 0.0521 0.0712 0.43161   -0.199998
 F 0.8847 0.0047 0.45998   -0.204454
 F 0.8154 0.0422 0.39522   -0.188168
