{'_ref': 'TBD', '_srcid': 'CAKYAQ_clean', 'submitters': [{'name': 'Dalar Nazarian Jeff Camp and David Sholl', 'email': 'dalar@gatech.edu jcamp6@gatech.edu'}], '_method': 'VASP DFT with PBE;DDEC'}
data_Co5H38C48(N3O7)2
_symmetry_space_group_name_H-M   'P 1'
_cell_length_a   10.97500033
_cell_length_b   12.13899986
_cell_length_c   13.72800000
_cell_angle_alpha   67.25000159
_cell_angle_beta   80.93999925
_cell_angle_gamma   70.25999962
_symmetry_Int_Tables_number   1
_chemical_formula_structural   Co5H38C48(N3O7)2
_chemical_formula_sum   'Co5 H38 C48 N6 O14'
_cell_volume   1586.75686609
_cell_formula_units_Z   1
loop_
 _symmetry_equiv_pos_site_id
 _symmetry_equiv_pos_as_xyz
  1  'x, y, z'
loop_
 _atom_site_label
 _atom_site_fract_x
 _atom_site_fract_y
 _atom_site_fract_z
 _atom_site_charge
 Co 0.043 0.40582 0.815   0.699842
 Co 0.13202 0.67145 0.81249   0.833668
 Co 0.957 0.59418 0.185   0.699842
 Co 0.86798 0.32855 0.18751   0.833666
 Co 0.0 0.5 0.0   1.116894
 H 0.2075 0.4646 0.8574   0.417954
 H 0.8655 0.7168 0.5153   0.119875
 H 0.947 0.9002 0.5202   0.082264
 H 0.7896 0.8272 0.3501   0.098315
 H 0.7286 0.968 0.1806   0.120398
 H 0.7675 0.153 0.1141   0.077833
 H 0.9153 0.0856 0.3782   0.060504
 H 0.6042 0.4286 0.9226   0.131665
 H 0.7337 0.5602 0.7559   0.102916
 H 0.6313 0.5943 0.5833   0.101136
 H 0.4437 0.6457 0.4998   0.112373
 H 0.2478 0.6773 0.5867   0.067049
 H 0.4201 0.58 0.8469   0.066401
 H 0.1515 0.077 0.1927   0.133903
 H 0.1358 0.0025 0.0331   0.092109
 H 0.2375 0.8569 0.2995   0.097167
 H 0.2154 0.6696 0.4166   0.113823
 H 0.0999 0.5706 0.3746   0.077514
 H 0.0532 0.8244 0.0901   0.075534
 H 0.7925 0.5354 0.1426   0.417954
 H 0.1345 0.2832 0.4847   0.119858
 H 0.053 0.0998 0.4798   0.082228
 H 0.2104 0.1728 0.6499   0.098312
 H 0.2714 0.032 0.8194   0.120397
 H 0.2325 0.847 0.8859   0.077817
 H 0.0847 0.9144 0.6218   0.060472
 H 0.3958 0.5714 0.0774   0.131659
 H 0.2663 0.4398 0.2441   0.102914
 H 0.3687 0.4057 0.4167   0.101128
 H 0.5563 0.3543 0.5002   0.11237
 H 0.7522 0.3227 0.4133   0.067043
 H 0.5799 0.42 0.1531   0.066393
 H 0.8485 0.923 0.8073   0.133902
 H 0.8642 0.9975 0.9669   0.092093
 H 0.7625 0.1431 0.7005   0.097165
 H 0.7846 0.3304 0.5834   0.113823
 H 0.9001 0.4294 0.6254   0.077475
 H 0.9468 0.1756 0.9099   0.075508
 C 0.9711 0.6724 0.6465   0.700712
 C 0.9089 0.7517 0.5427   -0.296282
 C 0.9105 0.8644 0.4881   -0.006885
 C 0.8626 0.9433 0.3824   -0.055609
 C 0.8042 0.9048 0.3233   -0.033045
 C 0.7694 0.9891 0.2223   -0.176154
 C 0.7927 0.1005 0.1825   0.151984
 C 0.88 0.0596 0.3367   0.130948
 C 0.7821 0.4315 0.9556   0.700191
 C 0.6714 0.4621 0.8905   -0.292215
 C 0.6625 0.5341 0.7896   -0.009572
 C 0.5477 0.5759 0.7268   -0.027618
 C 0.5527 0.6004 0.621   -0.049974
 C 0.4402 0.634 0.5711   -0.185904
 C 0.3226 0.6507 0.6239   0.132811
 C 0.4245 0.594 0.775   0.136155
 C 0.0976 0.2222 0.0483   0.702977
 C 0.1316 0.0908 0.1247   -0.266356
 C 0.1356 0.9921 0.1038   -0.043153
 C 0.1398 0.8685 0.1816   -0.01582
 C 0.1924 0.816 0.2806   -0.048042
 C 0.1785 0.7048 0.3507   -0.173227
 C 0.1111 0.6448 0.3249   0.137582
 C 0.0804 0.7966 0.1588   0.123892
 C 0.0289 0.3276 0.3535   0.700713
 C 0.0911 0.2483 0.4573   -0.29628
 C 0.0895 0.1356 0.5119   -0.006852
 C 0.1374 0.0567 0.6176   -0.055586
 C 0.1958 0.0952 0.6767   -0.033019
 C 0.2306 0.0109 0.7777   -0.176118
 C 0.2073 0.8995 0.8175   0.151991
 C 0.12 0.9404 0.6633   0.130955
 C 0.2179 0.5685 0.0444   0.700185
 C 0.3286 0.5379 0.1095   -0.292227
 C 0.3375 0.4659 0.2104   -0.009562
 C 0.4523 0.4241 0.2732   -0.027584
 C 0.4473 0.3996 0.379   -0.049964
 C 0.5598 0.366 0.4289   -0.185868
 C 0.6774 0.3493 0.3761   0.132808
 C 0.5755 0.406 0.225   0.13616
 C 0.9024 0.7778 0.9517   0.702991
 C 0.8684 0.9092 0.8753   -0.266357
 C 0.8644 0.0079 0.8962   -0.04314
 C 0.8602 0.1315 0.8184   -0.015828
 C 0.8076 0.184 0.7194   -0.048019
 C 0.8215 0.2952 0.6493   -0.17324
 C 0.8889 0.3552 0.6751   0.137587
 C 0.9196 0.2034 0.8412   0.123878
 N 0.8504 0.14 0.2366   -0.339341
 N 0.3122 0.6294 0.729   -0.341181
 N 0.0594 0.6912 0.2276   -0.336021
 N 0.1496 0.86 0.7634   -0.339354
 N 0.6878 0.3706 0.271   -0.34119
 N 0.9406 0.3088 0.7724   -0.336024
 O 0.0274 0.7236 0.6828   -0.600543
 O 0.9652 0.5645 0.6891   -0.570084
 O 0.7732 0.3646 0.0516   -0.585529
 O 0.8745 0.474 0.9124   -0.608307
 O 0.1114 0.2384 0.9508   -0.585676
 O 0.0553 0.3056 0.0885   -0.605783
 O 0.1282 0.4897 0.8755   -0.90559
 O 0.9726 0.2764 0.3172   -0.600551
 O 0.0348 0.4355 0.3109   -0.570085
 O 0.2268 0.6354 0.9484   -0.585528
 O 0.1255 0.526 0.0876   -0.60832
 O 0.8886 0.7616 0.0492   -0.585679
 O 0.9447 0.6944 0.9115   -0.605805
 O 0.8718 0.5103 0.1245   -0.905591
