{'_ref': 'TBD', '_srcid': 'CAKYAQ_clean', 'submitters': [{'name': 'Dalar Nazarian Jeff Camp and David Sholl', 'email': 'dalar@gatech.edu jcamp6@gatech.edu'}], '_method': 'VASP DFT with PBE;DDEC'}
data_GdH3C7SNO8
_symmetry_space_group_name_H-M   'P 1'
_cell_length_a   12.64799969
_cell_length_b   13.22500041
_cell_length_c   14.47500000
_cell_angle_alpha   87.80400083
_cell_angle_beta   67.29799901
_cell_angle_gamma   66.92600132
_symmetry_Int_Tables_number   1
_chemical_formula_structural   GdH3C7SNO8
_chemical_formula_sum   'Gd4 H12 C28 S4 N4 O32'
_cell_volume   2036.67661114
_cell_formula_units_Z   4
loop_
 _symmetry_equiv_pos_site_id
 _symmetry_equiv_pos_as_xyz
  1  'x, y, z'
loop_
 _atom_site_label
 _atom_site_fract_x
 _atom_site_fract_y
 _atom_site_fract_z
 _atom_site_charge
 Gd 0.68714 0.37559 0.56717   2.166247
 Gd 0.18282 0.37938 0.57408   2.167117
 Gd 0.31286 0.62441 0.43283   2.166247
 Gd 0.81718 0.62062 0.42592   2.167117
 H 0.8087 0.953 0.6464   0.153536
 H 0.9365 0.8644 0.4803   0.114332
 H 0.9762 0.9704 0.3496   0.15013
 H 0.3162 0.9527 0.6404   0.149728
 H 0.4382 0.869 0.473   0.117248
 H 0.474 0.98 0.3442   0.15485
 H 0.1913 0.047 0.3536   0.153536
 H 0.0635 0.1356 0.5197   0.114333
 H 0.0238 0.0296 0.6504   0.15013
 H 0.6838 0.0473 0.3596   0.149728
 H 0.5618 0.131 0.527   0.117248
 H 0.526 0.02 0.6558   0.15485
 C 0.6771 0.1791 0.7083   0.609929
 C 0.7678 0.1085 0.6079   0.133763
 C 0.8229 0.9938 0.5927   -0.131442
 C 0.9005 0.9414 0.4937   0.022106
 C 0.9237 0.0047 0.4155   -0.135678
 C 0.8678 0.1195 0.4367   0.145256
 C 0.8929 0.1973 0.363   0.604623
 C 0.192 0.1772 0.7117   0.614258
 C 0.2725 0.1115 0.6089   0.139519
 C 0.3284 0.9959 0.5882   -0.132483
 C 0.4028 0.9458 0.4882   0.016094
 C 0.4239 0.0115 0.4112   -0.132571
 C 0.3667 0.1268 0.4387   0.141376
 C 0.3906 0.2072 0.366   0.611238
 C 0.3229 0.8209 0.2917   0.609929
 C 0.2322 0.8915 0.3921   0.133763
 C 0.1771 0.0062 0.4073   -0.131444
 C 0.0995 0.0586 0.5063   0.022105
 C 0.0763 0.9953 0.5845   -0.13568
 C 0.1322 0.8805 0.5633   0.145255
 C 0.1071 0.8027 0.637   0.604623
 C 0.808 0.8228 0.2883   0.614258
 C 0.7275 0.8885 0.3911   0.139518
 C 0.6716 0.0041 0.4118   -0.132485
 C 0.5972 0.0542 0.5118   0.016092
 C 0.5761 0.9885 0.5888   -0.132573
 C 0.6333 0.8732 0.5613   0.141375
 C 0.6094 0.7928 0.634   0.611238
 S 0.9313 0.39135 0.57401   1.63136
 S 0.4303 0.39435 0.57499   1.64092
 S 0.0687 0.60865 0.42599   1.63136
 S 0.5697 0.60565 0.42501   1.64092
 N 0.7908 0.1693 0.5306   -0.480537
 N 0.2916 0.1745 0.5346   -0.476365
 N 0.2092 0.8307 0.4694   -0.480536
 N 0.7084 0.8255 0.4654   -0.476365
 O 0.8622 0.3222 0.6211   -0.737374
 O 0.8581 0.4655 0.5195   -0.896439
 O 0.0613 0.3235 0.5023   -0.73195
 O 0.9428 0.4558 0.6471   -0.683662
 O 0.3522 0.4682 0.5241   -0.90866
 O 0.3619 0.3261 0.6253   -0.731884
 O 0.4462 0.4587 0.6447   -0.677292
 O 0.5572 0.326 0.501   -0.73226
 O 0.624 0.2822 0.7065   -0.63264
 O 0.6598 0.132 0.7857   -0.336994
 O 0.8298 0.301 0.3974   -0.63092
 O 0.9685 0.1604 0.2743   -0.347003
 O 0.1324 0.2809 0.7128   -0.635926
 O 0.1882 0.1298 0.7875   -0.335324
 O 0.3233 0.3096 0.4031   -0.629056
 O 0.4713 0.1734 0.2805   -0.347164
 O 0.1378 0.6778 0.3789   -0.737374
 O 0.1419 0.5345 0.4805   -0.896439
 O 0.9387 0.6765 0.4977   -0.73195
 O 0.0572 0.5442 0.3529   -0.683662
 O 0.6478 0.5318 0.4759   -0.908659
 O 0.6381 0.6739 0.3747   -0.731884
 O 0.5538 0.5413 0.3553   -0.677293
 O 0.4428 0.674 0.499   -0.73226
 O 0.376 0.7178 0.2935   -0.632641
 O 0.3402 0.868 0.2143   -0.336993
 O 0.1702 0.699 0.6026   -0.63092
 O 0.0315 0.8396 0.7257   -0.347003
 O 0.8676 0.7191 0.2872   -0.635927
 O 0.8118 0.8702 0.2125   -0.335323
 O 0.6767 0.6904 0.5969   -0.629056
 O 0.5287 0.8266 0.7195   -0.347164
