{'_ref': 'TBD', '_srcid': 'CAKYAQ_clean', 'submitters': [{'name': 'Dalar Nazarian Jeff Camp and David Sholl', 'email': 'dalar@gatech.edu jcamp6@gatech.edu'}], '_method': 'VASP DFT with PBE;DDEC'}
data_DyH3C7SNO8
_symmetry_space_group_name_H-M   'P 1'
_cell_length_a   12.63199996
_cell_length_b   13.23399956
_cell_length_c   14.43100000
_cell_angle_alpha   87.70000054
_cell_angle_beta   67.34700024
_cell_angle_gamma   66.62800016
_symmetry_Int_Tables_number   1
_chemical_formula_structural   DyH3C7SNO8
_chemical_formula_sum   'Dy4 H12 C28 S4 N4 O32'
_cell_volume   2025.51993128
_cell_formula_units_Z   4
loop_
 _symmetry_equiv_pos_site_id
 _symmetry_equiv_pos_as_xyz
  1  'x, y, z'
loop_
 _atom_site_label
 _atom_site_fract_x
 _atom_site_fract_y
 _atom_site_fract_z
 _atom_site_charge
 Dy 0.31683 0.12164 0.92713   2.258241
 Dy 0.81307 0.12509 0.93362   2.261993
 Dy 0.68317 0.87836 0.07287   2.258241
 Dy 0.18693 0.87491 0.06638   2.261993
 H 0.1833 0.5474 0.8602   0.149879
 H 0.0645 0.6297 0.0276   0.118965
 H 0.0241 0.5195 0.1553   0.149559
 H 0.6866 0.5477 0.8564   0.151168
 H 0.5617 0.6338 0.0242   0.118057
 H 0.5254 0.5263 0.1522   0.147199
 H 0.8167 0.4526 0.1398   0.149879
 H 0.9355 0.3703 0.9724   0.118965
 H 0.9759 0.4805 0.8447   0.149559
 H 0.3134 0.4523 0.1436   0.151168
 H 0.4383 0.3662 0.9758   0.118057
 H 0.4746 0.4737 0.8478   0.147199
 C 0.3083 0.3219 0.7903   0.617139
 C 0.227 0.3869 0.893   0.142255
 C 0.1713 0.5044 0.9126   -0.134426
 C 0.0985 0.553 0.0119   0.016145
 C 0.076 0.4874 0.0885   -0.130104
 C 0.1331 0.3724 0.0626   0.139734
 C 0.1112 0.2913 0.134   0.611442
 C 0.8214 0.32 0.7939   0.610307
 C 0.7314 0.3894 0.8936   0.137904
 C 0.6742 0.5061 0.9099   -0.132011
 C 0.598 0.5568 0.0095   0.022454
 C 0.577 0.4928 0.0857   -0.134709
 C 0.6319 0.3794 0.0641   0.1459
 C 0.6087 0.3002 0.1385   0.607239
 C 0.6917 0.6781 0.2097   0.61714
 C 0.773 0.6131 0.107   0.142255
 C 0.8287 0.4956 0.0874   -0.134426
 C 0.9015 0.447 0.9881   0.016145
 C 0.924 0.5126 0.9115   -0.130104
 C 0.8669 0.6276 0.9374   0.139734
 C 0.8888 0.7087 0.866   0.611442
 C 0.1786 0.68 0.2061   0.610307
 C 0.2686 0.6106 0.1064   0.137904
 C 0.3258 0.4939 0.0901   -0.132011
 C 0.402 0.4432 0.9905   0.022454
 C 0.423 0.5072 0.9143   -0.134709
 C 0.3681 0.6206 0.9359   0.1459
 C 0.3913 0.6998 0.8615   0.607239
 S 0.0697 0.10498 0.9261   1.660266
 S 0.5682 0.10793 0.9274   1.671847
 S 0.9303 0.89502 0.0739   1.660266
 S 0.4318 0.89207 0.0726   1.671847
 N 0.2082 0.3256 0.9668   -0.487092
 N 0.7098 0.3295 0.9695   -0.49256
 N 0.7918 0.6744 0.0332   -0.487092
 N 0.2902 0.6705 0.0305   -0.49256
 O 0.3673 0.2183 0.7897   -0.665375
 O 0.3132 0.3693 0.7132   -0.315542
 O 0.1762 0.1893 0.0976   -0.63643
 O 0.0301 0.3251 0.2211   -0.324496
 O 0.8744 0.2162 0.7959   -0.655982
 O 0.8406 0.3668 0.7147   -0.311078
 O 0.6722 0.1963 0.1023   -0.652509
 O 0.531 0.337 0.2269   -0.330338
 O 0.1369 0.1743 0.8779   -0.758781
 O 0.1468 0.0286 0.9781   -0.944156
 O 0.054 0.0414 0.8549   -0.698766
 O 0.9411 0.1745 0.000300000000003   -0.756284
 O 0.5577 0.0455 0.8529   -0.70798
 O 0.4366 0.1769 0.9993   -0.762452
 O 0.6367 0.1775 0.8828   -0.771363
 O 0.6409 0.0319 0.9818   -0.935256
 O 0.6327 0.7817 0.2103   -0.665374
 O 0.6868 0.6307 0.2868   -0.315545
 O 0.8238 0.8107 0.9024   -0.63643
 O 0.9699 0.6749 0.7789   -0.324498
 O 0.1256 0.7838 0.2041   -0.655982
 O 0.1594 0.6332 0.2853   -0.311082
 O 0.3278 0.8037 0.8977   -0.652509
 O 0.469 0.663 0.7731   -0.33034
 O 0.8631 0.8257 0.1221   -0.758781
 O 0.8532 0.9714 0.0219   -0.944155
 O 0.946 0.9586 0.1451   -0.698766
 O 0.0589 0.8255 0.9997   -0.756283
 O 0.4423 0.9545 0.1471   -0.70798
 O 0.5634 0.8231 0.000700000000002   -0.762452
 O 0.3633 0.8225 0.1172   -0.771363
 O 0.3591 0.9681 0.0182   -0.935256
