{'_ref': 'TBD', '_srcid': 'CAKYAQ_clean', 'submitters': [{'name': 'Dalar Nazarian Jeff Camp and David Sholl', 'email': 'dalar@gatech.edu jcamp6@gatech.edu'}], '_method': 'VASP DFT with PBE;DDEC'}
data_BaH6(C3O)4
_symmetry_space_group_name_H-M   'P 1'
_cell_length_a   7.12690000
_cell_length_b   14.67240000
_cell_length_c   15.00270000
_cell_angle_alpha   90.00000000
_cell_angle_beta   90.00000000
_cell_angle_gamma   90.00000000
_symmetry_Int_Tables_number   1
_chemical_formula_structural   BaH6(C3O)4
_chemical_formula_sum   'Ba4 H24 C48 O16'
_cell_volume   1568.81324896
_cell_formula_units_Z   4
loop_
 _symmetry_equiv_pos_site_id
 _symmetry_equiv_pos_as_xyz
  1  'x, y, z'
loop_
 _atom_site_label
 _atom_site_fract_x
 _atom_site_fract_y
 _atom_site_fract_z
 _atom_site_charge
 Ba 0.92728 0.19412 0.43903   1.617242
 Ba 0.57272 0.80588 0.93903   1.617241
 Ba 0.07272 0.69412 0.06097   1.617243
 Ba 0.42728 0.30588 0.56097   1.617243
 H 0.8571 0.6122 0.6981   0.098594
 H 0.9308 0.4981 0.5972   0.110803
 H 0.8703 0.2317 0.7603   0.113826
 H 0.8297 0.1979 0.9069   0.097827
 H 0.7961 0.3133 0.0121   0.101566
 H 0.7932 0.4623 0.9688   0.100147
 H 0.6429 0.3878 0.1981   0.098595
 H 0.5692 0.5019 0.0972   0.110803
 H 0.6297 0.7683 0.2603   0.113826
 H 0.6703 0.8021 0.4069   0.097827
 H 0.7039 0.6867 0.5121   0.101566
 H 0.7068 0.5377 0.4688   0.100147
 H 0.1429 0.1122 0.8019   0.098594
 H 0.0692 0.9981 0.9028   0.110803
 H 0.1297 0.7317 0.7397   0.113826
 H 0.1703 0.6979 0.5931   0.097827
 H 0.2039 0.8133 0.4879   0.101566
 H 0.2068 0.9623 0.5312   0.100147
 H 0.3571 0.8878 0.3019   0.098594
 H 0.4308 0.0019 0.4028   0.110803
 H 0.3703 0.2683 0.2397   0.113826
 H 0.3297 0.3021 0.0931   0.097827
 H 0.2961 0.1867 0.9879   0.101566
 H 0.2932 0.0377 0.0312   0.100147
 C 0.916 0.3228 0.60898   0.744466
 C 0.8944 0.3934 0.681   -0.199118
 C 0.8593 0.3703 0.7711   0.051788
 C 0.8332 0.4411 0.8352   0.055639
 C 0.8285 0.5341 0.8047   -0.141539
 C 0.861 0.5521 0.7176   -0.061098
 C 0.9005 0.4829 0.6557   -0.084922
 C 0.8558 0.2787 0.8013   -0.126572
 C 0.8318 0.2585 0.8887   -0.083391
 C 0.8101 0.328 0.9521   -0.089651
 C 0.8094 0.4168 0.9263   -0.12623
 C 0.7812 0.6147 0.8639   0.756003
 C 0.584 0.6772 0.10898   0.744466
 C 0.6056 0.6066 0.181   -0.199118
 C 0.6407 0.6297 0.2711   0.051788
 C 0.6668 0.5589 0.3352   0.055639
 C 0.6715 0.4659 0.3047   -0.141539
 C 0.639 0.4479 0.2176   -0.061098
 C 0.5995 0.5171 0.1557   -0.084922
 C 0.6442 0.7213 0.3013   -0.126572
 C 0.6682 0.7415 0.3887   -0.08339
 C 0.6899 0.672 0.4521   -0.089651
 C 0.6906 0.5832 0.4263   -0.12623
 C 0.7188 0.3853 0.3639   0.756003
 C 0.084 0.8228 0.89102   0.744466
 C 0.1056 0.8934 0.819   -0.199118
 C 0.1407 0.8703 0.7289   0.051788
 C 0.1668 0.9411 0.6648   0.055639
 C 0.1715 0.0341 0.6953   -0.141539
 C 0.139 0.0521 0.7824   -0.061098
 C 0.0995 0.9829 0.8443   -0.084922
 C 0.1442 0.7787 0.6987   -0.126572
 C 0.1682 0.7585 0.6113   -0.083391
 C 0.1899 0.828 0.5479   -0.089651
 C 0.1906 0.9168 0.5737   -0.12623
 C 0.2188 0.1147 0.6361   0.756003
 C 0.416 0.1772 0.39102   0.744466
 C 0.3944 0.1066 0.319   -0.199118
 C 0.3593 0.1297 0.2289   0.051788
 C 0.3332 0.0589 0.1648   0.055639
 C 0.3285 0.9659 0.1953   -0.141539
 C 0.361 0.9479 0.2824   -0.061098
 C 0.4005 0.0171 0.3443   -0.084922
 C 0.3558 0.2213 0.1987   -0.126572
 C 0.3318 0.2415 0.1113   -0.08339
 C 0.3101 0.172 0.0479   -0.089651
 C 0.3094 0.0832 0.0737   -0.12623
 C 0.2812 0.8853 0.1361   0.756003
 O 0.7927 0.26184 0.60229   -0.720669
 O 0.0537 0.33161 0.55639   -0.755741
 O 0.6847 0.6755 0.8299   -0.692792
 O 0.8449 0.6162 0.9425   -0.766179
 O 0.7073 0.73816 0.10229   -0.720669
 O 0.4463 0.66839 0.05639   -0.755741
 O 0.8153 0.3245 0.3299   -0.692792
 O 0.6551 0.3838 0.4425   -0.766179
 O 0.2073 0.76184 0.89771   -0.720669
 O 0.9463 0.83161 0.94361   -0.75574
 O 0.3153 0.1755 0.6701   -0.692792
 O 0.1551 0.1162 0.5575   -0.766179
 O 0.2927 0.23816 0.39771   -0.720669
 O 0.5537 0.16839 0.44361   -0.75574
 O 0.1847 0.8245 0.1701   -0.692792
 O 0.3449 0.8838 0.0575   -0.766179
