{'_ref': 'TBD', '_srcid': 'CAKYAQ_clean', 'submitters': [{'name': 'Dalar Nazarian Jeff Camp and David Sholl', 'email': 'dalar@gatech.edu jcamp6@gatech.edu'}], '_method': 'VASP DFT with PBE;DDEC'}
data_CeH12C12(NO3)3
_symmetry_space_group_name_H-M   'P 1'
_cell_length_a   7.86800000
_cell_length_b   11.13200043
_cell_length_c   22.30000000
_cell_angle_alpha   90.00000000
_cell_angle_beta   90.00000000
_cell_angle_gamma   99.15800124
_symmetry_Int_Tables_number   1
_chemical_formula_structural   CeH12C12(NO3)3
_chemical_formula_sum   'Ce4 H48 C48 N12 O36'
_cell_volume   1928.28390801
_cell_formula_units_Z   4
loop_
 _symmetry_equiv_pos_site_id
 _symmetry_equiv_pos_as_xyz
  1  'x, y, z'
loop_
 _atom_site_label
 _atom_site_fract_x
 _atom_site_fract_y
 _atom_site_fract_z
 _atom_site_charge
 Ce 0.37958 0.72337 0.72064   2.285277
 Ce 0.12042 0.27663 0.22064   2.285277
 Ce 0.62042 0.27663 0.27936   2.285277
 Ce 0.87958 0.72337 0.77936   2.285277
 H 0.2367 0.1992 0.692   0.082224
 H 0.2621 0.115 0.6374   0.083852
 H 0.9937 0.9912 0.6761   0.154895
 H 0.0483 0.0587 0.7363   0.146586
 H 0.7836 0.2173 0.4618   0.083433
 H 0.9104 0.122 0.4653   0.085089
 H 0.0357 0.373 0.4512   0.145925
 H 0.143 0.2669 0.4422   0.140411
 H 0.882 0.4813 0.6864   0.061976
 H 0.801 0.5107 0.625   0.072385
 H 0.5746 0.364 0.6466   0.144329
 H 0.6535 0.3553 0.7106   0.144274
 H 0.2633 0.8008 0.192   0.082224
 H 0.2379 0.885 0.1374   0.083852
 H 0.5063 0.0088 0.1761   0.154895
 H 0.4517 0.9413 0.2363   0.146586
 H 0.7164 0.7827 0.9618   0.083433
 H 0.5896 0.878 0.9653   0.085089
 H 0.4643 0.627 0.9512   0.145925
 H 0.357 0.7331 0.9422   0.140411
 H 0.618 0.5187 0.1864   0.061976
 H 0.699 0.4893 0.125   0.072385
 H 0.9254 0.636 0.1466   0.144329
 H 0.8465 0.6447 0.2106   0.144274
 H 0.7633 0.8008 0.308   0.082224
 H 0.7379 0.885 0.3626   0.083852
 H 0.0063 0.0088 0.3239   0.154894
 H 0.9517 0.9413 0.2637   0.146587
 H 0.2164 0.7827 0.5382   0.083433
 H 0.0896 0.878 0.5347   0.085088
 H 0.9643 0.627 0.5488   0.145924
 H 0.857 0.7331 0.5578   0.140411
 H 0.118 0.5187 0.3136   0.061976
 H 0.199 0.4893 0.375   0.072385
 H 0.4254 0.636 0.3534   0.144329
 H 0.3465 0.6447 0.2894   0.144275
 H 0.7367 0.1992 0.808   0.082224
 H 0.7621 0.115 0.8626   0.083852
 H 0.4937 0.9912 0.8239   0.154894
 H 0.5483 0.0587 0.7637   0.146587
 H 0.2836 0.2173 0.0382   0.083433
 H 0.4104 0.122 0.0347   0.085088
 H 0.5357 0.373 0.0488   0.145924
 H 0.643 0.2669 0.0578   0.140411
 H 0.382 0.4813 0.8136   0.061976
 H 0.301 0.5107 0.875   0.072385
 H 0.0746 0.364 0.8534   0.144329
 H 0.1535 0.3553 0.7894   0.144275
 C 0.0364 0.1723 0.5689   0.620887
 C 0.8427 0.3181 0.5638   0.602535
 C 0.957 0.2674 0.6598   0.629786
 C 0.1771 0.1397 0.6643   0.097925
 C 0.0917 0.0309 0.6989   -0.409598
 C 0.2066 0.939 0.7129   0.797746
 C 0.8986 0.2059 0.4736   0.094614
 C 0.0302 0.2902 0.4369   -0.396377
 C 0.9836 0.2845 0.3711   0.827007
 C 0.8063 0.447 0.6543   0.120037
 C 0.644 0.4101 0.6773   -0.403989
 C 0.5509 0.5097 0.6988   0.813208
 C 0.4636 0.8277 0.0689   0.620887
 C 0.6573 0.6819 0.0638   0.602535
 C 0.543 0.7326 0.1598   0.629786
 C 0.3229 0.8603 0.1643   0.097925
 C 0.4083 0.9691 0.1989   -0.409598
 C 0.2934 0.061 0.2129   0.797746
 C 0.6014 0.7941 0.9736   0.094614
 C 0.4698 0.7098 0.9369   -0.396377
 C 0.5164 0.7155 0.8711   0.827007
 C 0.6937 0.553 0.1543   0.120037
 C 0.856 0.5899 0.1773   -0.403989
 C 0.9491 0.4903 0.1988   0.813208
 C 0.9636 0.8277 0.4311   0.620887
 C 0.1573 0.6819 0.4362   0.602535
 C 0.043 0.7326 0.3402   0.629786
 C 0.8229 0.8603 0.3357   0.097925
 C 0.9083 0.9691 0.3011   -0.409598
 C 0.7934 0.061 0.2871   0.797746
 C 0.1014 0.7941 0.5264   0.094615
 C 0.9698 0.7098 0.5631   -0.396377
 C 0.0164 0.7155 0.6289   0.827007
 C 0.1937 0.553 0.3457   0.120037
 C 0.356 0.5899 0.3227   -0.403989
 C 0.4491 0.4903 0.3012   0.813208
 C 0.5364 0.1723 0.9311   0.620887
 C 0.3427 0.3181 0.9362   0.602535
 C 0.457 0.2674 0.8402   0.629786
 C 0.6771 0.1397 0.8357   0.097925
 C 0.5917 0.0309 0.8011   -0.409598
 C 0.7066 0.939 0.7871   0.797746
 C 0.3986 0.2059 0.0264   0.094615
 C 0.5302 0.2902 0.0631   -0.396377
 C 0.4836 0.2845 0.1289   0.827007
 C 0.3063 0.447 0.8457   0.120037
 C 0.144 0.4101 0.8227   -0.403989
 C 0.0509 0.5097 0.8012   0.813208
 N 0.0533 0.1959 0.6295   -0.321276
 N 0.9212 0.2295 0.5383   -0.297691
 N 0.8816 0.3454 0.625   -0.332521
 N 0.4467 0.8041 0.1295   -0.321276
 N 0.5788 0.7705 0.0383   -0.297691
 N 0.6184 0.6546 0.125   -0.332521
 N 0.9467 0.8041 0.3705   -0.321276
 N 0.0788 0.7705 0.4617   -0.297691
 N 0.1184 0.6546 0.375   -0.332521
 N 0.5533 0.1959 0.8705   -0.321276
 N 0.4212 0.2295 0.9617   -0.297691
 N 0.3816 0.3454 0.875   -0.332521
 O 0.7615 0.3805 0.534   -0.503155
 O 0.96 0.2766 0.7138   -0.499198
 O 0.1195 0.105 0.5435   -0.512189
 O 0.3453 0.9394 0.6855   -0.654293
 O 0.1551 0.8567 0.7521   -0.866017
 O 0.0992 0.2666 0.33434   -0.749356
 O 0.8342 0.3014 0.3575   -0.768088
 O 0.6227 0.5935 0.7339   -0.86865
 O 0.4013 0.5089 0.6821   -0.652001
 O 0.7385 0.6195 0.034   -0.503155
 O 0.54 0.7234 0.2138   -0.499198
 O 0.3805 0.895 0.0435   -0.512189
 O 0.1547 0.0606 0.1855   -0.654293
 O 0.3449 0.1433 0.2521   -0.866017
 O 0.4008 0.7334 0.83434   -0.749356
 O 0.6658 0.6986 0.8575   -0.768088
 O 0.8773 0.4065 0.2339   -0.86865
 O 0.0987 0.4911 0.1821   -0.652001
 O 0.2385 0.6195 0.466   -0.503155
 O 0.04 0.7234 0.2862   -0.499198
 O 0.8805 0.895 0.4565   -0.512189
 O 0.6547 0.0606 0.3145   -0.654293
 O 0.8449 0.1433 0.2479   -0.866017
 O 0.9008 0.7334 0.66566   -0.749356
 O 0.1658 0.6986 0.6425   -0.768088
 O 0.3773 0.4065 0.2661   -0.86865
 O 0.5987 0.4911 0.3179   -0.652001
 O 0.2615 0.3805 0.966   -0.503155
 O 0.46 0.2766 0.7862   -0.499198
 O 0.6195 0.105 0.9565   -0.512189
 O 0.8453 0.9394 0.8145   -0.654293
 O 0.6551 0.8567 0.7479   -0.866017
 O 0.5992 0.2666 0.16566   -0.749356
 O 0.3342 0.3014 0.1425   -0.768088
 O 0.1227 0.5935 0.7661   -0.86865
 O 0.9013 0.5089 0.8179   -0.652001
