{'_ref': 'TBD', '_srcid': 'CAKYAQ_clean', 'submitters': [{'name': 'Dalar Nazarian Jeff Camp and David Sholl', 'email': 'dalar@gatech.edu jcamp6@gatech.edu'}], '_method': 'VASP DFT with PBE;DDEC'}
data_GdH12C12(NO3)3
_symmetry_space_group_name_H-M   'P 1'
_cell_length_a   7.64400000
_cell_length_b   11.14799982
_cell_length_c   22.26200000
_cell_angle_alpha   90.00000000
_cell_angle_beta   90.00000000
_cell_angle_gamma   98.82800166
_symmetry_Int_Tables_number   1
_chemical_formula_structural   GdH12C12(NO3)3
_chemical_formula_sum   'Gd4 H48 C48 N12 O36'
_cell_volume   1874.58967855
_cell_formula_units_Z   4
loop_
 _symmetry_equiv_pos_site_id
 _symmetry_equiv_pos_as_xyz
  1  'x, y, z'
loop_
 _atom_site_label
 _atom_site_fract_x
 _atom_site_fract_y
 _atom_site_fract_z
 _atom_site_charge
 Gd 0.60511 0.26633 0.77882   2.233828
 Gd 0.89489 0.73367 0.27882   2.233828
 Gd 0.39489 0.73367 0.22118   2.233827
 Gd 0.10511 0.26633 0.72118   2.233827
 H 0.4046 0.1226 0.5356   0.079788
 H 0.2707 0.2159 0.5384   0.084817
 H 0.5219 0.3727 0.5522   0.143969
 H 0.6375 0.2689 0.5605   0.139534
 H 0.3039 0.5165 0.3746   0.072132
 H 0.4113 0.484 0.3178   0.071023
 H 0.0982 0.3714 0.3398   0.164835
 H 0.2031 0.3902 0.2798   0.142467
 H 0.7684 0.1146 0.3667   0.083405
 H 0.7504 0.2018 0.3125   0.083327
 H 0.5627 0.0652 0.2639   0.152056
 H 0.4986 0.9944 0.3225   0.156144
 H 0.0954 0.8774 0.0356   0.079788
 H 0.2293 0.7841 0.0384   0.084817
 H 0.9781 0.6273 0.0522   0.143969
 H 0.8625 0.7311 0.0605   0.139534
 H 0.1961 0.4835 0.8746   0.072132
 H 0.0887 0.516 0.8178   0.071023
 H 0.4018 0.6286 0.8398   0.164835
 H 0.2969 0.6098 0.7798   0.142467
 H 0.7316 0.8854 0.8667   0.083405
 H 0.7496 0.7982 0.8125   0.083327
 H 0.9373 0.9348 0.7639   0.152056
 H 0.0014 0.0056 0.8225   0.156144
 H 0.5954 0.8774 0.4644   0.079787
 H 0.7293 0.7841 0.4616   0.084816
 H 0.4781 0.6273 0.4478   0.143969
 H 0.3625 0.7311 0.4395   0.139534
 H 0.6961 0.4835 0.6254   0.072132
 H 0.5887 0.516 0.6822   0.071023
 H 0.9018 0.6286 0.6602   0.164835
 H 0.7969 0.6098 0.7202   0.142466
 H 0.2316 0.8854 0.6333   0.083404
 H 0.2496 0.7982 0.6875   0.083327
 H 0.4373 0.9348 0.7361   0.152057
 H 0.5014 0.0056 0.6775   0.156144
 H 0.9046 0.1226 0.9644   0.079787
 H 0.7707 0.2159 0.9616   0.084816
 H 0.0219 0.3727 0.9478   0.143969
 H 0.1375 0.2689 0.9395   0.139534
 H 0.8039 0.5165 0.1254   0.072132
 H 0.9113 0.484 0.1822   0.071023
 H 0.5982 0.3714 0.1602   0.164835
 H 0.7031 0.3902 0.2202   0.142466
 H 0.2684 0.1146 0.1333   0.083404
 H 0.2504 0.2018 0.1875   0.083327
 H 0.0627 0.0652 0.2361   0.152057
 H 0.9986 0.9944 0.1775   0.156144
 C 0.5391 0.1738 0.4332   0.63368
 C 0.323 0.311 0.4377   0.642685
 C 0.456 0.265 0.3419   0.643924
 C 0.3905 0.206 0.5274   0.095128
 C 0.5195 0.2895 0.5654   -0.400528
 C 0.467 0.2786 0.6309   0.828933
 C 0.313 0.4554 0.3443   0.150875
 C 0.175 0.431 0.3163   -0.439983
 C 0.0676 0.5258 0.298   0.818421
 C 0.685 0.1413 0.3387   0.090917
 C 0.6024 0.0349 0.3015   -0.408543
 C 0.7203 0.9437 0.2879   0.803865
 C 0.9609 0.8262 0.9332   0.63368
 C 0.177 0.689 0.9377   0.642685
 C 0.044 0.735 0.8419   0.643924
 C 0.1095 0.794 0.0274   0.095128
 C 0.9805 0.7105 0.0654   -0.400528
 C 0.033 0.7214 0.1309   0.828933
 C 0.187 0.5446 0.8443   0.150875
 C 0.325 0.569 0.8163   -0.439983
 C 0.4324 0.4742 0.798   0.818421
 C 0.815 0.8587 0.8387   0.090917
 C 0.8976 0.9651 0.8015   -0.408543
 C 0.7797 0.0563 0.7879   0.803865
 C 0.4609 0.8262 0.5668   0.63368
 C 0.677 0.689 0.5623   0.642685
 C 0.544 0.735 0.6581   0.643924
 C 0.6095 0.794 0.4726   0.095128
 C 0.4805 0.7105 0.4346   -0.400528
 C 0.533 0.7214 0.3691   0.828932
 C 0.687 0.5446 0.6557   0.150875
 C 0.825 0.569 0.6837   -0.439983
 C 0.9324 0.4742 0.702   0.818421
 C 0.315 0.8587 0.6613   0.090917
 C 0.3976 0.9651 0.6985   -0.408543
 C 0.2797 0.0563 0.7121   0.803865
 C 0.0391 0.1738 0.0668   0.63368
 C 0.823 0.311 0.0623   0.642685
 C 0.956 0.265 0.1581   0.643924
 C 0.8905 0.206 0.9726   0.095128
 C 0.0195 0.2895 0.9346   -0.400528
 C 0.967 0.2786 0.8691   0.828932
 C 0.813 0.4554 0.1557   0.150875
 C 0.675 0.431 0.1837   -0.439983
 C 0.5676 0.5258 0.202   0.818421
 C 0.185 0.1413 0.1613   0.090917
 C 0.1024 0.0349 0.1985   -0.408543
 C 0.2203 0.9437 0.2121   0.803865
 N 0.4162 0.2301 0.4635   -0.31067
 N 0.337 0.319 0.3763   -0.406481
 N 0.5536 0.1966 0.3723   -0.311795
 N 0.0838 0.7699 0.9635   -0.31067
 N 0.163 0.681 0.8763   -0.406481
 N 0.9464 0.8034 0.8723   -0.311795
 N 0.5838 0.7699 0.5365   -0.31067
 N 0.663 0.681 0.6237   -0.406481
 N 0.4464 0.8034 0.6277   -0.311795
 N 0.9162 0.2301 0.0365   -0.31067
 N 0.837 0.319 0.1237   -0.406481
 N 0.0536 0.1966 0.1277   -0.311795
 O 0.46 0.2758 0.2877   -0.500773
 O 0.6268 0.1096 0.4587   -0.500861
 O 0.229 0.367 0.4664   -0.518073
 O 0.5837 0.2608 0.669   -0.749691
 O 0.3121 0.2911 0.6434   -0.751255
 O 0.9137 0.5228 0.3158   -0.636695
 O 0.1352 0.6104 0.2631   -0.8658
 O 0.6697 0.8611 0.2484   -0.867625
 O 0.8629 0.9423 0.3144   -0.64698
 O 0.04 0.7242 0.7877   -0.500773
 O 0.8732 0.8904 0.9587   -0.500861
 O 0.271 0.633 0.9664   -0.518073
 O 0.9163 0.7392 0.169   -0.749691
 O 0.1879 0.7089 0.1434   -0.751255
 O 0.5863 0.4772 0.8158   -0.636695
 O 0.3648 0.3896 0.7631   -0.8658
 O 0.8303 0.1389 0.7484   -0.867625
 O 0.6371 0.0577 0.8144   -0.64698
 O 0.54 0.7242 0.7123   -0.500773
 O 0.3732 0.8904 0.5413   -0.500861
 O 0.771 0.633 0.5336   -0.518072
 O 0.4163 0.7392 0.331   -0.749691
 O 0.6879 0.7089 0.3566   -0.751255
 O 0.0863 0.4772 0.6842   -0.636695
 O 0.8648 0.3896 0.7369   -0.8658
 O 0.3303 0.1389 0.7516   -0.867625
 O 0.1371 0.0577 0.6856   -0.64698
 O 0.96 0.2758 0.2123   -0.500773
 O 0.1268 0.1096 0.0413   -0.500861
 O 0.729 0.367 0.0336   -0.518072
 O 0.0837 0.2608 0.831   -0.749691
 O 0.8121 0.2911 0.8566   -0.751255
 O 0.4137 0.5228 0.1842   -0.636695
 O 0.6352 0.6104 0.2369   -0.8658
 O 0.1697 0.8611 0.2516   -0.867625
 O 0.3629 0.9423 0.1856   -0.64698
