{'_ref': 'TBD', '_srcid': 'CAKYAQ_clean', 'submitters': [{'name': 'Dalar Nazarian Jeff Camp and David Sholl', 'email': 'dalar@gatech.edu jcamp6@gatech.edu'}], '_method': 'VASP DFT with PBE;DDEC'}
data_La2Cu3H30C24(NO4)6
_symmetry_space_group_name_H-M   'P 1'
_cell_length_a   13.51560000
_cell_length_b   13.51560005
_cell_length_c   14.87200000
_cell_angle_alpha   90.00000000
_cell_angle_beta   90.00000000
_cell_angle_gamma   119.99999989
_symmetry_Int_Tables_number   1
_chemical_formula_structural   La2Cu3H30C24(NO4)6
_chemical_formula_sum   'La4 Cu6 H60 C48 N12 O48'
_cell_volume   2352.72230987
_cell_formula_units_Z   2
loop_
 _symmetry_equiv_pos_site_id
 _symmetry_equiv_pos_as_xyz
  1  'x, y, z'
loop_
 _atom_site_label
 _atom_site_fract_x
 _atom_site_fract_y
 _atom_site_fract_z
 _atom_site_charge
 La 0.66667 0.33334 0.33177   2.148548
 La 0.33333 0.66666 0.16823   2.148549
 La 0.33333 0.66666 0.66823   2.148548
 La 0.66667 0.33334 0.83177   2.148549
 Cu 0.5 0.0 0.5   0.794727
 Cu 0.5 0.5 0.5   0.794734
 Cu 0.0 0.5 0.5   0.794722
 Cu 0.5 0.0 0.0   0.794728
 Cu 0.0 0.5 0.0   0.794735
 Cu 0.5 0.5 0.0   0.794721
 H 0.7562 0.0439 0.4572   0.146701
 H 0.6478 0.9781 0.576   0.258196
 H 0.7976 0.1433 0.5355   0.106258
 H 0.7247 0.1877 0.6195   0.142114
 H 0.6698 0.0673 0.6852   0.143218
 H 0.2877 0.2438 0.4572   0.146701
 H 0.3303 0.3522 0.576   0.258197
 H 0.3457 0.2024 0.5355   0.106263
 H 0.463 0.2753 0.6195   0.142118
 H 0.3975 0.3302 0.6852   0.143219
 H 0.9561 0.7123 0.4572   0.146702
 H 0.0219 0.6697 0.576   0.258199
 H 0.8567 0.6543 0.5355   0.106263
 H 0.8123 0.537 0.6195   0.142115
 H 0.9327 0.6025 0.6852   0.14322
 H 0.7123 0.9561 0.0428   0.146701
 H 0.6697 0.0219 0.924   0.258196
 H 0.6543 0.8567 0.9645   0.106258
 H 0.537 0.8123 0.8805   0.142114
 H 0.6025 0.9327 0.8148   0.14322
 H 0.0439 0.7562 0.0428   0.146701
 H 0.9781 0.6478 0.924   0.258197
 H 0.1433 0.7976 0.9645   0.106263
 H 0.1877 0.7247 0.8805   0.142119
 H 0.0673 0.6698 0.8148   0.143221
 H 0.2438 0.2877 0.0428   0.146702
 H 0.3522 0.3303 0.924   0.258199
 H 0.2024 0.3457 0.9645   0.106263
 H 0.2753 0.463 0.8805   0.142116
 H 0.3302 0.3975 0.8148   0.143222
 H 0.2438 0.9561 0.5428   0.146703
 H 0.3522 0.0219 0.424   0.258197
 H 0.2024 0.8567 0.4645   0.10626
 H 0.2753 0.8123 0.3805   0.142114
 H 0.3302 0.9327 0.3148   0.143218
 H 0.7123 0.7562 0.5428   0.146703
 H 0.6697 0.6478 0.424   0.258197
 H 0.6543 0.7976 0.4645   0.106265
 H 0.537 0.7247 0.3805   0.142118
 H 0.6025 0.6698 0.3148   0.143219
 H 0.0439 0.2877 0.5428   0.146705
 H 0.9781 0.3303 0.424   0.258199
 H 0.1433 0.3457 0.4645   0.106265
 H 0.1877 0.463 0.3805   0.142115
 H 0.0673 0.3975 0.3148   0.14322
 H 0.2877 0.0439 0.9572   0.146704
 H 0.3303 0.9781 0.076   0.258197
 H 0.3457 0.1433 0.0355   0.10626
 H 0.463 0.1877 0.1195   0.142114
 H 0.3975 0.0673 0.1852   0.14322
 H 0.9561 0.2438 0.9572   0.146703
 H 0.0219 0.3522 0.076   0.258197
 H 0.8567 0.2024 0.0355   0.106265
 H 0.8123 0.2753 0.1195   0.142119
 H 0.9327 0.3302 0.1852   0.143221
 H 0.7562 0.7123 0.9572   0.146705
 H 0.6478 0.6697 0.076   0.258199
 H 0.7976 0.6543 0.0355   0.106265
 H 0.7247 0.537 0.1195   0.142116
 H 0.6698 0.6025 0.1852   0.143222
 C 0.7275 0.1801 0.4341   0.693821
 C 0.7435 0.0964 0.4911   -0.199195
 C 0.6665 0.1124 0.6366   -0.231419
 C 0.5599 0.1211 0.6566   0.730617
 C 0.4526 0.2725 0.4341   0.693813
 C 0.3529 0.2565 0.4911   -0.199192
 C 0.4459 0.3335 0.6366   -0.231422
 C 0.5612 0.4401 0.6566   0.730635
 C 0.8199 0.5474 0.4341   0.693807
 C 0.9036 0.6471 0.4911   -0.199194
 C 0.8876 0.5541 0.6366   -0.231429
 C 0.8789 0.4388 0.6566   0.730633
 C 0.5474 0.8199 0.0659   0.693821
 C 0.6471 0.9036 0.0089   -0.199195
 C 0.5541 0.8876 0.8634   -0.23142
 C 0.4388 0.8789 0.8434   0.730618
 C 0.1801 0.7275 0.0659   0.693813
 C 0.0964 0.7435 0.0089   -0.199192
 C 0.1124 0.6665 0.8634   -0.231422
 C 0.1211 0.5599 0.8434   0.730636
 C 0.2725 0.4526 0.0659   0.693807
 C 0.2565 0.3529 0.0089   -0.199194
 C 0.3335 0.4459 0.8634   -0.23143
 C 0.4401 0.5612 0.8434   0.730633
 C 0.2725 0.8199 0.5659   0.693821
 C 0.2565 0.9036 0.5089   -0.199197
 C 0.3335 0.8876 0.3634   -0.231419
 C 0.4401 0.8789 0.3434   0.730617
 C 0.5474 0.7275 0.5659   0.693813
 C 0.6471 0.7435 0.5089   -0.199194
 C 0.5541 0.6665 0.3634   -0.231422
 C 0.4388 0.5599 0.3434   0.730635
 C 0.1801 0.4526 0.5659   0.693807
 C 0.0964 0.3529 0.5089   -0.199196
 C 0.1124 0.4459 0.3634   -0.231429
 C 0.1211 0.5612 0.3434   0.730633
 C 0.4526 0.1801 0.9341   0.693821
 C 0.3529 0.0964 0.9911   -0.199197
 C 0.4459 0.1124 0.1366   -0.23142
 C 0.5612 0.1211 0.1566   0.730618
 C 0.8199 0.2725 0.9341   0.693813
 C 0.9036 0.2565 0.9911   -0.199194
 C 0.8876 0.3335 0.1366   -0.231422
 C 0.8789 0.4401 0.1566   0.730636
 C 0.7275 0.5474 0.9341   0.693807
 C 0.7435 0.6471 0.9911   -0.199196
 C 0.6665 0.5541 0.1366   -0.23143
 C 0.5599 0.4388 0.1566   0.730633
 N 0.6509 0.0415 0.557   -0.282244
 N 0.3906 0.3491 0.557   -0.282251
 N 0.9585 0.6094 0.557   -0.28224
 N 0.6094 0.9585 0.943   -0.282243
 N 0.0415 0.6509 0.943   -0.282251
 N 0.3491 0.3906 0.943   -0.28224
 N 0.3491 0.9585 0.443   -0.282243
 N 0.6094 0.6509 0.443   -0.28225
 N 0.0415 0.3906 0.443   -0.28224
 N 0.3906 0.0415 0.057   -0.282243
 N 0.9585 0.3491 0.057   -0.28225
 N 0.6509 0.6094 0.057   -0.28224
 O 0.635 0.1828 0.445   -0.710706
 O 0.8009 0.2411 0.3779   -0.647225
 O 0.4754 0.0725 0.6056   -0.560414
 O 0.5632 0.177 0.7248   -0.703283
 O 0.5478 0.365 0.445   -0.710707
 O 0.4402 0.1991 0.3779   -0.647204
 O 0.5971 0.5246 0.6056   -0.560415
 O 0.6138 0.4368 0.7248   -0.70332
 O 0.8172 0.4522 0.445   -0.71067
 O 0.7589 0.5598 0.3779   -0.647208
 O 0.9275 0.4029 0.6056   -0.560411
 O 0.823 0.3862 0.7248   -0.70331
 O 0.4522 0.8172 0.055   -0.710706
 O 0.5598 0.7589 0.1221   -0.647225
 O 0.4029 0.9275 0.8944   -0.560414
 O 0.3862 0.823 0.7752   -0.703283
 O 0.1828 0.635 0.055   -0.710708
 O 0.2411 0.8009 0.1221   -0.647204
 O 0.0725 0.4754 0.8944   -0.560415
 O 0.177 0.5632 0.7752   -0.70332
 O 0.365 0.5478 0.055   -0.71067
 O 0.1991 0.4402 0.1221   -0.647208
 O 0.5246 0.5971 0.8944   -0.560411
 O 0.4368 0.6138 0.7752   -0.70331
 O 0.365 0.8172 0.555   -0.710706
 O 0.1991 0.7589 0.6221   -0.647225
 O 0.5246 0.9275 0.3944   -0.560414
 O 0.4368 0.823 0.2752   -0.703283
 O 0.4522 0.635 0.555   -0.710707
 O 0.5598 0.8009 0.6221   -0.647204
 O 0.4029 0.4754 0.3944   -0.560415
 O 0.3862 0.5632 0.2752   -0.70332
 O 0.1828 0.5478 0.555   -0.71067
 O 0.2411 0.4402 0.6221   -0.647208
 O 0.0725 0.5971 0.3944   -0.560411
 O 0.177 0.6138 0.2752   -0.70331
 O 0.5478 0.1828 0.945   -0.710706
 O 0.4402 0.2411 0.8779   -0.647225
 O 0.5971 0.0725 0.1056   -0.560414
 O 0.6138 0.177 0.2248   -0.703283
 O 0.8172 0.365 0.945   -0.710708
 O 0.7589 0.1991 0.8779   -0.647204
 O 0.9275 0.5246 0.1056   -0.560415
 O 0.823 0.4368 0.2248   -0.70332
 O 0.635 0.4522 0.945   -0.71067
 O 0.8009 0.5598 0.8779   -0.647208
 O 0.4754 0.4029 0.1056   -0.560411
 O 0.5632 0.3862 0.2248   -0.70331
