{'_ref': 'TBD', '_srcid': 'CAKYAQ_clean', 'submitters': [{'name': 'Dalar Nazarian Jeff Camp and David Sholl', 'email': 'dalar@gatech.edu jcamp6@gatech.edu'}], '_method': 'VASP DFT with PBE;DDEC'}
data_La2Cu3H30C24(NO4)6
_symmetry_space_group_name_H-M   'P 1'
_cell_length_a   13.50390000
_cell_length_b   13.50389961
_cell_length_c   14.89700000
_cell_angle_alpha   90.00000000
_cell_angle_beta   90.00000000
_cell_angle_gamma   120.00000096
_symmetry_Int_Tables_number   1
_chemical_formula_structural   La2Cu3H30C24(NO4)6
_chemical_formula_sum   'La4 Cu6 H60 C48 N12 O48'
_cell_volume   2352.59873519
_cell_formula_units_Z   2
loop_
 _symmetry_equiv_pos_site_id
 _symmetry_equiv_pos_as_xyz
  1  'x, y, z'
loop_
 _atom_site_label
 _atom_site_fract_x
 _atom_site_fract_y
 _atom_site_fract_z
 _atom_site_charge
 La 0.66667 0.33334 0.3309   2.145968
 La 0.33333 0.66666 0.1691   2.145968
 La 0.33333 0.66666 0.6691   2.145968
 La 0.66667 0.33334 0.8309   2.145968
 Cu 0.5 0.0 0.5   0.791084
 Cu 0.5 0.5 0.5   0.791069
 Cu 0.0 0.5 0.5   0.791074
 Cu 0.5 0.0 0.0   0.791084
 Cu 0.0 0.5 0.0   0.791068
 Cu 0.5 0.5 0.0   0.791075
 H 0.7994 0.1429 0.534   0.108764
 H 0.7537 0.0425 0.4545   0.146839
 H 0.7262 0.189 0.6201   0.144055
 H 0.6703 0.0678 0.6841   0.14281
 H 0.6479 0.9768 0.5758   0.260171
 H 0.3435 0.2006 0.534   0.108768
 H 0.2888 0.2463 0.4545   0.146837
 H 0.4628 0.2738 0.6201   0.144061
 H 0.3975 0.3297 0.6841   0.142811
 H 0.3289 0.3521 0.5758   0.260168
 H 0.8571 0.6565 0.534   0.10877
 H 0.9575 0.7112 0.4545   0.146842
 H 0.811 0.5372 0.6201   0.144057
 H 0.9322 0.6025 0.6841   0.142811
 H 0.0232 0.6711 0.5758   0.260174
 H 0.6565 0.8571 0.966   0.108764
 H 0.7112 0.9575 0.0455   0.146839
 H 0.5372 0.811 0.8799   0.144055
 H 0.6025 0.9322 0.8159   0.142812
 H 0.6711 0.0232 0.9242   0.260171
 H 0.1429 0.7994 0.966   0.108768
 H 0.0425 0.7537 0.0455   0.146837
 H 0.189 0.7262 0.8799   0.144061
 H 0.0678 0.6703 0.8159   0.142813
 H 0.9768 0.6479 0.9242   0.260168
 H 0.2006 0.3435 0.966   0.10877
 H 0.2463 0.2888 0.0455   0.146842
 H 0.2738 0.4628 0.8799   0.144057
 H 0.3297 0.3975 0.8159   0.142813
 H 0.3521 0.3289 0.9242   0.260173
 H 0.2006 0.8571 0.466   0.108766
 H 0.2463 0.9575 0.5455   0.146841
 H 0.2738 0.811 0.3799   0.144055
 H 0.3297 0.9322 0.3159   0.142809
 H 0.3521 0.0232 0.4242   0.260172
 H 0.6565 0.7994 0.466   0.10877
 H 0.7112 0.7537 0.5455   0.14684
 H 0.5372 0.7262 0.3799   0.144061
 H 0.6025 0.6703 0.3159   0.142811
 H 0.6711 0.6479 0.4242   0.260168
 H 0.1429 0.3435 0.466   0.108771
 H 0.0425 0.2888 0.5455   0.146844
 H 0.189 0.4628 0.3799   0.144057
 H 0.0678 0.3975 0.3159   0.142811
 H 0.9768 0.3289 0.4242   0.260174
 H 0.3435 0.1429 0.034   0.108766
 H 0.2888 0.0425 0.9545   0.146841
 H 0.4628 0.189 0.1201   0.144055
 H 0.3975 0.0678 0.1841   0.142811
 H 0.3289 0.9768 0.0758   0.260172
 H 0.8571 0.2006 0.034   0.10877
 H 0.9575 0.2463 0.9545   0.14684
 H 0.811 0.2738 0.1201   0.144061
 H 0.9322 0.3297 0.1841   0.142813
 H 0.0232 0.3521 0.0758   0.260168
 H 0.7994 0.6565 0.034   0.108771
 H 0.7537 0.7112 0.9545   0.146844
 H 0.7262 0.5372 0.1201   0.144057
 H 0.6703 0.6025 0.1841   0.142813
 H 0.6479 0.6711 0.0758   0.260174
 C 0.727 0.1799 0.4338   0.694621
 C 0.7439 0.0959 0.491   -0.203691
 C 0.667 0.1129 0.6362   -0.234356
 C 0.5608 0.1212 0.6569   0.737491
 C 0.4529 0.273 0.4338   0.694616
 C 0.352 0.2561 0.491   -0.203689
 C 0.4459 0.333 0.6362   -0.234361
 C 0.5604 0.4392 0.6569   0.737508
 C 0.8201 0.5471 0.4338   0.694607
 C 0.9041 0.648 0.491   -0.203691
 C 0.8871 0.5541 0.6362   -0.234367
 C 0.8788 0.4396 0.6569   0.737507
 C 0.5471 0.8201 0.0662   0.694621
 C 0.648 0.9041 0.009   -0.203691
 C 0.5541 0.8871 0.8638   -0.234357
 C 0.4396 0.8788 0.8431   0.737491
 C 0.1799 0.727 0.0662   0.694616
 C 0.0959 0.7439 0.009   -0.203689
 C 0.1129 0.667 0.8638   -0.234363
 C 0.1212 0.5608 0.8431   0.737509
 C 0.273 0.4529 0.0662   0.694607
 C 0.2561 0.352 0.009   -0.203691
 C 0.333 0.4459 0.8638   -0.234367
 C 0.4392 0.5604 0.8431   0.737507
 C 0.273 0.8201 0.5662   0.694621
 C 0.2561 0.9041 0.509   -0.203693
 C 0.333 0.8871 0.3638   -0.234356
 C 0.4392 0.8788 0.3431   0.737491
 C 0.5471 0.727 0.5662   0.694616
 C 0.648 0.7439 0.509   -0.203691
 C 0.5541 0.667 0.3638   -0.234361
 C 0.4396 0.5608 0.3431   0.737508
 C 0.1799 0.4529 0.5662   0.694607
 C 0.0959 0.352 0.509   -0.203693
 C 0.1129 0.4459 0.3638   -0.234366
 C 0.1212 0.5604 0.3431   0.737507
 C 0.4529 0.1799 0.9338   0.694621
 C 0.352 0.0959 0.991   -0.203693
 C 0.4459 0.1129 0.1362   -0.234357
 C 0.5604 0.1212 0.1569   0.737491
 C 0.8201 0.273 0.9338   0.694616
 C 0.9041 0.2561 0.991   -0.203691
 C 0.8871 0.333 0.1362   -0.234362
 C 0.8788 0.4392 0.1569   0.737509
 C 0.727 0.5471 0.9338   0.694607
 C 0.7439 0.648 0.991   -0.203692
 C 0.667 0.5541 0.1362   -0.234367
 C 0.5608 0.4396 0.1569   0.737507
 N 0.6508 0.0402 0.5573   -0.283257
 N 0.3894 0.3492 0.5573   -0.283254
 N 0.9598 0.6106 0.5573   -0.283255
 N 0.6106 0.9598 0.9427   -0.283257
 N 0.0402 0.6508 0.9427   -0.283254
 N 0.3492 0.3894 0.9427   -0.283255
 N 0.3492 0.9598 0.4427   -0.283257
 N 0.6106 0.6508 0.4427   -0.283254
 N 0.0402 0.3894 0.4427   -0.283255
 N 0.3894 0.0402 0.0573   -0.283257
 N 0.9598 0.3492 0.0573   -0.283253
 N 0.6508 0.6106 0.0573   -0.283255
 O 0.6358 0.183 0.4438   -0.702447
 O 0.8016 0.2409 0.3776   -0.654829
 O 0.4767 0.074 0.6051   -0.56623
 O 0.5631 0.1763 0.7244   -0.700815
 O 0.5472 0.3642 0.4438   -0.702447
 O 0.4393 0.1984 0.3776   -0.654813
 O 0.5973 0.5233 0.6051   -0.566227
 O 0.6132 0.4369 0.7244   -0.700852
 O 0.817 0.4528 0.4438   -0.702417
 O 0.7591 0.5607 0.3776   -0.654805
 O 0.926 0.4027 0.6051   -0.566228
 O 0.8237 0.3868 0.7244   -0.700844
 O 0.4528 0.817 0.0562   -0.702447
 O 0.5607 0.7591 0.1224   -0.654829
 O 0.4027 0.926 0.8949   -0.56623
 O 0.3868 0.8237 0.7756   -0.700815
 O 0.183 0.6358 0.0562   -0.702447
 O 0.2409 0.8016 0.1224   -0.654813
 O 0.074 0.4767 0.8949   -0.566227
 O 0.1763 0.5631 0.7756   -0.700852
 O 0.3642 0.5472 0.0562   -0.702417
 O 0.1984 0.4393 0.1224   -0.654805
 O 0.5233 0.5973 0.8949   -0.566228
 O 0.4369 0.6132 0.7756   -0.700844
 O 0.3642 0.817 0.5562   -0.702447
 O 0.1984 0.7591 0.6224   -0.654829
 O 0.5233 0.926 0.3949   -0.56623
 O 0.4369 0.8237 0.2756   -0.700815
 O 0.4528 0.6358 0.5562   -0.702447
 O 0.5607 0.8016 0.6224   -0.654813
 O 0.4027 0.4767 0.3949   -0.566227
 O 0.3868 0.5631 0.2756   -0.700852
 O 0.183 0.5472 0.5562   -0.702417
 O 0.2409 0.4393 0.6224   -0.654805
 O 0.074 0.5973 0.3949   -0.566228
 O 0.1763 0.6132 0.2756   -0.700844
 O 0.5472 0.183 0.9438   -0.702447
 O 0.4393 0.2409 0.8776   -0.654829
 O 0.5973 0.074 0.1051   -0.56623
 O 0.6132 0.1763 0.2244   -0.700815
 O 0.817 0.3642 0.9438   -0.702447
 O 0.7591 0.1984 0.8776   -0.654813
 O 0.926 0.5233 0.1051   -0.566227
 O 0.8237 0.4369 0.2244   -0.700852
 O 0.6358 0.4528 0.9438   -0.702417
 O 0.8016 0.5607 0.8776   -0.654805
 O 0.4767 0.4027 0.1051   -0.566228
 O 0.5631 0.3868 0.2244   -0.700844
