{'_ref': 'TBD', '_srcid': 'CAKYAQ_clean', 'submitters': [{'name': 'Dalar Nazarian Jeff Camp and David Sholl', 'email': 'dalar@gatech.edu jcamp6@gatech.edu'}], '_method': 'VASP DFT with PBE;DDEC'}
data_CuH14(C9O2)2
_symmetry_space_group_name_H-M   'P 1'
_cell_length_a   10.04330046
_cell_length_b   10.04329993
_cell_length_c   11.73400000
_cell_angle_alpha   100.24100026
_cell_angle_beta   100.24099971
_cell_angle_gamma   97.68239885
_symmetry_Int_Tables_number   1
_chemical_formula_structural   CuH14(C9O2)2
_chemical_formula_sum   'Cu2 H28 C36 O8'
_cell_volume   1129.35238719
_cell_formula_units_Z   2
loop_
 _symmetry_equiv_pos_site_id
 _symmetry_equiv_pos_as_xyz
  1  'x, y, z'
loop_
 _atom_site_label
 _atom_site_fract_x
 _atom_site_fract_y
 _atom_site_fract_z
 _atom_site_charge
 Cu 0.94289 0.94289 0.075   0.870121
 Cu 0.05711 0.05711 0.925   0.87013
 H 0.3112 0.4408 0.063   0.106704
 H 0.3012 0.56 0.438   0.110866
 H 0.1066 0.465 0.0925   0.093203
 H 0.0712 0.6124 0.1262   0.11582
 H 0.0306 0.342 0.2163   0.122048
 H 0.0382 0.4186 0.3465   0.127303
 H 0.0858 0.5002 0.2546   0.123319
 H 0.5592 0.6888 0.937   0.106704
 H 0.44 0.6988 0.562   0.110874
 H 0.535 0.8934 0.9075   0.093203
 H 0.3876 0.9288 0.8738   0.11582
 H 0.658 0.9694 0.7837   0.122048
 H 0.5814 0.9618 0.6535   0.127303
 H 0.4998 0.9142 0.7454   0.123319
 H 0.6888 0.5592 0.937   0.106701
 H 0.6988 0.44 0.562   0.110868
 H 0.8934 0.535 0.9075   0.093203
 H 0.9288 0.3876 0.8738   0.115821
 H 0.9694 0.658 0.7837   0.122048
 H 0.9618 0.5814 0.6535   0.127308
 H 0.9142 0.4998 0.7454   0.123319
 H 0.4408 0.3112 0.063   0.106701
 H 0.56 0.3012 0.438   0.110876
 H 0.465 0.1066 0.0925   0.093203
 H 0.6124 0.0712 0.1262   0.115821
 H 0.342 0.0306 0.2163   0.122048
 H 0.4186 0.0382 0.3465   0.127308
 H 0.5002 0.0858 0.2546   0.123319
 C 0.2389 0.6137 0.0394   0.127518
 C 0.3316 0.5224 0.0376   -0.150475
 C 0.2315 0.3849 0.3165   0.13669
 C 0.3253 0.4769 0.4068   -0.199392
 C 0.0968 0.5488 0.066   -0.238869
 C 0.0821 0.4143 0.2799   -0.354856
 C 0.3863 0.7611 0.9606   0.127518
 C 0.4776 0.6684 0.9624   -0.150476
 C 0.6151 0.7685 0.6835   0.136691
 C 0.5231 0.6747 0.5932   -0.199394
 C 0.4512 0.9032 0.934   -0.238868
 C 0.5857 0.9179 0.7201   -0.354857
 C 0.7611 0.3863 0.9606   0.127518
 C 0.6684 0.4776 0.9624   -0.150472
 C 0.7685 0.6151 0.6835   0.136692
 C 0.6747 0.5231 0.5932   -0.199394
 C 0.9032 0.4512 0.934   -0.238879
 C 0.9179 0.5857 0.7201   -0.354859
 C 0.6137 0.2389 0.0394   0.127518
 C 0.5224 0.3316 0.0376   -0.150473
 C 0.3849 0.2315 0.3165   0.136692
 C 0.4769 0.3253 0.4068   -0.199392
 C 0.5488 0.0968 0.066   -0.238879
 C 0.4143 0.0821 0.2799   -0.354859
 C 0.1638 0.1638 0.1706   0.703194
 C 0.2625 0.2625 0.2701   -0.211818
 C 0.45 0.45 0.4511   0.074591
 C 0.8362 0.8362 0.8294   0.703194
 C 0.7375 0.7375 0.7299   -0.211818
 C 0.55 0.55 0.5489   0.074604
 C 0.1664 0.8336 0.0   0.686635
 C 0.265 0.735 0.0   -0.209233
 C 0.4514 0.5486 0.0   0.068686
 C 0.8336 0.1664 0.0   0.686635
 C 0.735 0.265 0.0   -0.209233
 C 0.5486 0.4514 0.0   0.068653
 O 0.08058 0.82382 0.064   -0.557212
 O 0.17618 0.91942 0.936   -0.557213
 O 0.91942 0.17618 0.936   -0.557212
 O 0.82382 0.08058 0.064   -0.557212
 O 0.0782 0.0782 0.1961   -0.556137
 O 0.1752 0.1752 0.0682   -0.55137
 O 0.9218 0.9218 0.8039   -0.556137
 O 0.8248 0.8248 0.9318   -0.551369
