{'_ref': 'TBD', '_srcid': 'CAKYAQ_clean', 'submitters': [{'name': 'Dalar Nazarian Jeff Camp and David Sholl', 'email': 'dalar@gatech.edu jcamp6@gatech.edu'}], '_method': 'VASP DFT with PBE;DDEC'}
data_CuH17C18N3O5
_symmetry_space_group_name_H-M   'P 1'
_cell_length_a   10.04820050
_cell_length_b   17.00759954
_cell_length_c   17.00760000
_cell_angle_alpha   64.85830104
_cell_angle_beta   72.81829884
_cell_angle_gamma   72.81829950
_symmetry_Int_Tables_number   1
_chemical_formula_structural   CuH17C18N3O5
_chemical_formula_sum   'Cu4 H68 C72 N12 O20'
_cell_volume   2464.75935077
_cell_formula_units_Z   4
loop_
 _symmetry_equiv_pos_site_id
 _symmetry_equiv_pos_as_xyz
  1  'x, y, z'
loop_
 _atom_site_label
 _atom_site_fract_x
 _atom_site_fract_y
 _atom_site_fract_z
 _atom_site_charge
 Cu 0.3876 0.4611 0.5389   0.862632
 Cu 0.6124 0.5389 0.4611   0.862608
 Cu 0.1124 0.9611 0.0389   0.862633
 Cu 0.8876 0.0389 0.9611   0.862609
 H 0.0582 0.6929 0.5317   0.09619
 H 0.914 0.8258 0.5358   0.120264
 H 0.2574 0.9338 0.4612   0.085974
 H 0.4019 0.8029 0.4511   0.108272
 H 0.9585 0.5023 0.5559   0.277427
 H 0.1162 0.2116 0.7302   0.095685
 H 0.8213 0.3259 0.7323   0.096417
 H 0.7172 0.5317 0.6929   0.095295
 H 0.7244 0.5358 0.8258   0.121961
 H 0.3476 0.4612 0.9338   0.086295
 H 0.3441 0.4511 0.8029   0.107977
 H 0.9833 0.5559 0.5023   0.277924
 H 0.942 0.7302 0.2116   0.095384
 H 0.1205 0.7323 0.3259   0.096444
 H 0.9418 0.3071 0.4683   0.09619
 H 0.086 0.1742 0.4642   0.120263
 H 0.7426 0.0662 0.5388   0.085978
 H 0.5981 0.1971 0.5489   0.108273
 H 0.0415 0.4977 0.4441   0.277427
 H 0.8838 0.7884 0.2698   0.095685
 H 0.1787 0.6741 0.2677   0.096417
 H 0.2828 0.4683 0.3071   0.095295
 H 0.2756 0.4642 0.1742   0.12196
 H 0.6524 0.5388 0.0662   0.086299
 H 0.6559 0.5489 0.1971   0.107977
 H 0.0167 0.4441 0.4977   0.277924
 H 0.058 0.2698 0.7884   0.095384
 H 0.8795 0.2677 0.6741   0.096444
 H 0.111 0.5034 0.4966   0.193479
 H 0.1998 0.2817 0.7183   0.087739
 H 0.8363 0.3708 0.6292   0.104495
 H 0.889 0.4966 0.5034   0.193479
 H 0.8002 0.7183 0.2817   0.087739
 H 0.1637 0.6292 0.3708   0.104495
 H 0.4418 0.9683 0.8071   0.09619
 H 0.586 0.9642 0.6742   0.120266
 H 0.2426 0.0388 0.5662   0.085975
 H 0.0981 0.0489 0.6971   0.108272
 H 0.5415 0.9441 0.9977   0.277427
 H 0.3838 0.7698 0.2884   0.095685
 H 0.6787 0.7677 0.1741   0.096416
 H 0.7828 0.8071 0.9683   0.095294
 H 0.7756 0.6742 0.9642   0.121962
 H 0.1524 0.5662 0.0388   0.086296
 H 0.1559 0.6971 0.0489   0.107976
 H 0.5167 0.9977 0.9441   0.277924
 H 0.558 0.2884 0.7698   0.095383
 H 0.3795 0.1741 0.7677   0.096442
 H 0.5582 0.0317 0.1929   0.096189
 H 0.414 0.0358 0.3258   0.120265
 H 0.7574 0.9612 0.4338   0.085979
 H 0.9019 0.9511 0.3029   0.108272
 H 0.4585 0.0559 0.0023   0.277427
 H 0.6162 0.2302 0.7116   0.095685
 H 0.3213 0.2323 0.8259   0.096416
 H 0.2172 0.1929 0.0317   0.095295
 H 0.2244 0.3258 0.0358   0.121961
 H 0.8476 0.4338 0.9612   0.0863
 H 0.8441 0.3029 0.9511   0.107976
 H 0.4833 0.0023 0.0559   0.277924
 H 0.442 0.7116 0.2302   0.095383
 H 0.6205 0.8259 0.2323   0.096443
 H 0.389 0.0034 0.9966   0.193479
 H 0.3002 0.7817 0.2183   0.087738
 H 0.6637 0.8708 0.1292   0.104495
 H 0.611 0.9966 0.0034   0.193479
 H 0.6998 0.2183 0.7817   0.087738
 H 0.3363 0.1292 0.8708   0.104494
 C 0.24428 0.73442 0.48982   -0.11819
 C 0.09904 0.74196 0.51596   -0.03976
 C 0.0133 0.8208 0.5192   -0.157544
 C 0.0712 0.8914 0.4988   0.177524
 C 0.2173 0.8852 0.4742   -0.137091
 C 0.30293 0.80717 0.46897   -0.035605
 C 0.33863 0.64757 0.48917   0.65068
 C 0.53148 0.48982 0.73442   -0.11808
 C 0.64304 0.51596 0.74196   -0.039548
 C 0.6467 0.5192 0.8208   -0.160866
 C 0.5386 0.4988 0.8914   0.179712
 C 0.4233 0.4742 0.8852   -0.139453
 C 0.42093 0.46897 0.80717   -0.033561
 C 0.52463 0.48917 0.64757   0.651606
 C 0.75572 0.26558 0.51018   -0.11819
 C 0.90096 0.25804 0.48404   -0.039759
 C 0.9867 0.1792 0.4808   -0.157545
 C 0.9288 0.1086 0.5012   0.177514
 C 0.7827 0.1148 0.5258   -0.137089
 C 0.69707 0.19283 0.53103   -0.035606
 C 0.66137 0.35243 0.51083   0.65068
 C 0.46852 0.51018 0.26558   -0.11808
 C 0.35696 0.48404 0.25804   -0.039547
 C 0.3533 0.4808 0.1792   -0.160867
 C 0.4614 0.5012 0.1086   0.179702
 C 0.5767 0.5258 0.1148   -0.139451
 C 0.57907 0.53103 0.19283   -0.033561
 C 0.47537 0.51083 0.35243   0.651606
 C 0.1019 0.3927 0.6073   0.542178
 C 0.038 0.4651 0.5349   -0.687908
 C 0.101 0.2657 0.7343   -0.165952
 C 0.887 0.3252 0.6748   -0.193786
 C 0.8981 0.6073 0.3927   0.542178
 C 0.962 0.5349 0.4651   -0.687914
 C 0.899 0.7343 0.2657   -0.165952
 C 0.113 0.6748 0.3252   -0.193785
 C 0.25572 0.01018 0.76558   -0.118191
 C 0.40096 0.98404 0.75804   -0.03976
 C 0.4867 0.9808 0.6792   -0.157544
 C 0.4288 0.0012 0.6086   0.177525
 C 0.2827 0.0258 0.6148   -0.137092
 C 0.19707 0.03103 0.69283   -0.035605
 C 0.16137 0.01083 0.85243   0.65068
 C 0.96852 0.76558 0.01018   -0.118081
 C 0.85696 0.75804 0.98404   -0.039547
 C 0.8533 0.6792 0.9808   -0.160866
 C 0.9614 0.6086 0.0012   0.179712
 C 0.0767 0.6148 0.0258   -0.139453
 C 0.07907 0.69283 0.03103   -0.03356
 C 0.97537 0.85243 0.01083   0.651608
 C 0.74428 0.98982 0.23442   -0.118191
 C 0.59904 0.01596 0.24196   -0.039759
 C 0.5133 0.0192 0.3208   -0.157545
 C 0.5712 0.9988 0.3914   0.177514
 C 0.7173 0.9742 0.3852   -0.13709
 C 0.80293 0.96897 0.30717   -0.035605
 C 0.83863 0.98917 0.14757   0.65068
 C 0.03148 0.23442 0.98982   -0.118081
 C 0.14304 0.24196 0.01596   -0.039546
 C 0.1467 0.3208 0.0192   -0.160867
 C 0.0386 0.3914 0.9988   0.179702
 C 0.9233 0.3852 0.9742   -0.139451
 C 0.92093 0.30717 0.96897   -0.033561
 C 0.02463 0.14757 0.98917   0.651608
 C 0.3981 0.8927 0.1073   0.542178
 C 0.462 0.9651 0.0349   -0.687908
 C 0.399 0.7657 0.2343   -0.165954
 C 0.613 0.8252 0.1748   -0.193782
 C 0.6019 0.1073 0.8927   0.542178
 C 0.538 0.0349 0.9651   -0.687915
 C 0.601 0.2343 0.7657   -0.165954
 C 0.387 0.1748 0.8252   -0.193782
 N 0.97182 0.96998 0.50558   -0.135726
 N 0.55262 0.50558 0.96998   -0.135569
 N 0.02818 0.03002 0.49442   -0.135627
 N 0.44738 0.49442 0.03002   -0.13548
 N 0.033 0.3324 0.6676   -0.111373
 N 0.967 0.6676 0.3324   -0.111374
 N 0.52818 0.99442 0.53002   -0.135726
 N 0.94738 0.53002 0.99442   -0.135569
 N 0.47182 0.00558 0.46998   -0.135628
 N 0.05262 0.46998 0.00558   -0.13548
 N 0.467 0.8324 0.1676   -0.111374
 N 0.533 0.1676 0.8324   -0.111374
 O 0.27962 0.58223 0.52133   -0.589962
 O 0.42698 0.45765 0.64719   -0.560059
 O 0.61682 0.52133 0.58223   -0.589527
 O 0.46818 0.64719 0.45765   -0.55914
 O 0.72038 0.41777 0.47867   -0.589959
 O 0.57302 0.54235 0.35281   -0.560056
 O 0.38318 0.47867 0.41777   -0.589529
 O 0.53182 0.35281 0.54235   -0.559142
 O 0.2175 0.3906 0.6094   -0.502929
 O 0.7825 0.6094 0.3906   -0.502926
 O 0.22038 0.97867 0.91777   -0.589962
 O 0.07302 0.85281 0.04235   -0.56006
 O 0.88318 0.91777 0.97867   -0.589528
 O 0.03182 0.04235 0.85281   -0.55914
 O 0.77962 0.02133 0.08223   -0.589959
 O 0.92698 0.14719 0.95765   -0.560058
 O 0.11682 0.08223 0.02133   -0.58953
 O 0.96818 0.95765 0.14719   -0.559142
 O 0.2825 0.8906 0.1094   -0.502928
 O 0.7175 0.1094 0.8906   -0.502925
