{'_ref': 'TBD', '_srcid': 'CAKYAQ_clean', 'submitters': [{'name': 'Dalar Nazarian Jeff Camp and David Sholl', 'email': 'dalar@gatech.edu jcamp6@gatech.edu'}], '_method': 'VASP DFT with PBE;DDEC'}
data_Zn2H15C25N3O8
_symmetry_space_group_name_H-M   'P 1'
_cell_length_a   10.92899956
_cell_length_b   16.59399972
_cell_length_c   18.27696556
_cell_angle_alpha   116.99794194
_cell_angle_beta   107.39641366
_cell_angle_gamma   90.00000012
_symmetry_Int_Tables_number   1
_chemical_formula_structural   Zn2H15C25N3O8
_chemical_formula_sum   'Zn8 H60 C100 N12 O32'
_cell_volume   2782.18461746
_cell_formula_units_Z   4
loop_
 _symmetry_equiv_pos_site_id
 _symmetry_equiv_pos_as_xyz
  1  'x, y, z'
loop_
 _atom_site_label
 _atom_site_fract_x
 _atom_site_fract_y
 _atom_site_fract_z
 _atom_site_charge
 Zn 0.22335 0.43468 0.64924   0.89645
 Zn 0.78911 0.63058 0.15342   1.073636
 Zn 0.77665 0.78544 0.35076   0.89742
 Zn 0.21089 0.47716 0.84658   1.073392
 Zn 0.42589 0.93468 0.64924   0.897252
 Zn 0.36431 0.13058 0.15342   1.073885
 Zn 0.57411 0.28544 0.35076   0.897
 Zn 0.63569 0.97716 0.84658   1.073519
 H 0.4439 0.1996 0.7084   0.076375
 H 0.6832 0.2678 0.949   0.105525
 H 0.5284 0.4608 0.8944   0.107859
 H 0.5785 0.6311 0.641   0.137808
 H 0.5035 0.5944 0.7362   0.130529
 H 0.2755 0.3781 0.3674   0.123373
 H 0.0885 0.2683 0.2706   0.116085
 H 0.9511 0.2266 0.326   0.136985
 H 0.9955 0.2965 0.4722   0.073043
 H 0.5163 0.5737 0.4778   0.109959
 H 0.4425 0.4726 0.4172   0.099146
 H 0.2887 0.4815 0.2998   0.107403
 H 0.107 0.5337 0.2426   0.117202
 H 0.1362 0.7205 0.484   0.09493
 H 0.3114 0.6663 0.5408   0.109096
 H 0.5561 0.4912 0.2916   0.076284
 H 0.3168 0.3188 0.051   0.105498
 H 0.4716 0.5664 0.1056   0.107587
 H 0.4215 0.9901 0.359   0.138097
 H 0.4965 0.8582 0.2638   0.129919
 H 0.7245 0.0107 0.6326   0.122448
 H 0.9115 0.9977 0.7294   0.116377
 H 0.0489 0.9006 0.674   0.137077
 H 0.0045 0.8243 0.5278   0.072088
 H 0.4837 0.0959 0.5222   0.110742
 H 0.5575 0.0554 0.5828   0.099351
 H 0.7113 0.1817 0.7002   0.107161
 H 0.893 0.2911 0.7574   0.117035
 H 0.8638 0.2365 0.516   0.095082
 H 0.6886 0.1255 0.4592   0.108064
 H 0.2645 0.6996 0.7084   0.076799
 H 0.2658 0.7678 0.949   0.104715
 H 0.366 0.9608 0.8944   0.107557
 H 0.0625 0.1311 0.641   0.138099
 H 0.2327 0.0944 0.7362   0.129281
 H 0.0919 0.8781 0.3674   0.12274
 H 0.1821 0.7683 0.2706   0.115957
 H 0.3749 0.7266 0.326   0.137984
 H 0.4767 0.7965 0.4722   0.07178
 H 0.9615 0.0737 0.4778   0.110766
 H 0.9747 0.9726 0.4172   0.099066
 H 0.0111 0.9815 0.2998   0.107621
 H 0.1356 0.0337 0.2426   0.117979
 H 0.3478 0.2205 0.484   0.094707
 H 0.2294 0.1663 0.5408   0.10882
 H 0.7355 0.9912 0.2916   0.076502
 H 0.7342 0.8188 0.051   0.10465
 H 0.634 0.0664 0.1056   0.107777
 H 0.9375 0.4901 0.359   0.138668
 H 0.7673 0.3582 0.2638   0.129455
 H 0.9081 0.5107 0.6326   0.122627
 H 0.8179 0.4977 0.7294   0.116027
 H 0.6251 0.4006 0.674   0.137609
 H 0.5233 0.3243 0.5278   0.071524
 H 0.0385 0.5959 0.5222   0.110295
 H 0.0253 0.5554 0.5828   0.099503
 H 0.9889 0.6817 0.7002   0.108248
 H 0.8644 0.7911 0.7574   0.118
 H 0.6522 0.7365 0.516   0.094759
 H 0.7706 0.6255 0.4592   0.109478
 C 0.48739 0.24369 0.76578   0.012975
 C 0.56676 0.21806 0.82352   -0.190753
 C 0.63206 0.28466 0.90912   0.034848
 C 0.6206 0.3774 0.9352   -0.128106
 C 0.5389 0.3999 0.8768   0.025966
 C 0.47217 0.33467 0.79274   -0.177995
 C 0.6959 0.4505 0.0266   0.632931
 C 0.38088 0.36238 0.73096   0.676994
 C 0.57694 0.11964 0.79648   0.710285
 C 0.5103 0.5858 0.6238   -0.117886
 C 0.4676 0.5657 0.6758   0.055307
 C 0.34239 0.47529 0.54518   0.169709
 C 0.23413 0.40293 0.47506   0.185284
 C 0.2163 0.3622 0.388   -0.178505
 C 0.1057 0.2956 0.3304   0.035207
 C 0.0239 0.2713 0.3628   -0.18042
 C 0.0515 0.3141 0.4506   0.179699
 C 0.4386 0.5327 0.4618   -0.056346
 C 0.31832 0.56832 0.42504   0.04217
 C 0.2569 0.5293 0.337   -0.145305
 C 0.14757 0.56027 0.30254   -0.001737
 C 0.09995 0.63035 0.3575   -0.200613
 C 0.16531 0.67091 0.44662   -0.012552
 C 0.27102 0.63982 0.48064   -0.147879
 C 0.98085 0.66285 0.3199   0.701112
 C 0.51261 0.47791 0.23422   0.012983
 C 0.43324 0.39454 0.17648   -0.190486
 C 0.36794 0.37554 0.09088   0.034613
 C 0.3794 0.4422 0.0648   -0.127586
 C 0.4611 0.5231 0.1232   0.025753
 C 0.52783 0.54193 0.20726   -0.178085
 C 0.3041 0.4239 0.9734   0.6329
 C 0.61912 0.63142 0.26904   0.677619
 C 0.42306 0.32316 0.20352   0.710313
 C 0.4897 0.962 0.3762   -0.118804
 C 0.5324 0.8899 0.3242   0.057432
 C 0.65761 0.93011 0.45482   0.170297
 C 0.76587 0.92787 0.52494   0.18453
 C 0.7837 0.9742 0.612   -0.176241
 C 0.8943 0.9652 0.6696   0.033432
 C 0.9761 0.9085 0.6372   -0.179532
 C 0.9485 0.8635 0.5494   0.181258
 C 0.5614 0.0709 0.5382   -0.057315
 C 0.68168 0.14328 0.57496   0.042291
 C 0.7431 0.1923 0.663   -0.144641
 C 0.85243 0.25773 0.69746   -0.001742
 C 0.90005 0.27285 0.6425   -0.199973
 C 0.83469 0.22429 0.55338   -0.013837
 C 0.72898 0.15918 0.51936   -0.146675
 C 0.01915 0.34295 0.6801   0.701579
 C 0.27839 0.74369 0.76578   0.01317
 C 0.25676 0.71806 0.82352   -0.191882
 C 0.27706 0.78466 0.90912   0.036598
 C 0.3146 0.8774 0.9352   -0.127921
 C 0.3379 0.8999 0.8768   0.026203
 C 0.32057 0.83467 0.79274   -0.178271
 C 0.3307 0.9505 0.0266   0.632314
 C 0.35008 0.86238 0.73096   0.677318
 C 0.21954 0.61964 0.79648   0.710333
 C 0.1135 0.0858 0.6238   -0.120192
 C 0.2082 0.0657 0.6758   0.059164
 C 0.20279 0.97529 0.54518   0.169861
 C 0.24093 0.90293 0.47506   0.185854
 C 0.1717 0.8622 0.388   -0.177689
 C 0.2247 0.7956 0.3304   0.034251
 C 0.3389 0.7713 0.3628   -0.181351
 C 0.3991 0.8141 0.4506   0.182438
 C 0.0232 0.0327 0.4618   -0.05765
 C 0.10672 0.06832 0.42504   0.043349
 C 0.0801 0.0293 0.337   -0.14436
 C 0.15497 0.06027 0.30254   -0.00379
 C 0.25755 0.13035 0.3575   -0.198537
 C 0.28131 0.17091 0.44662   -0.013273
 C 0.20962 0.13982 0.48064   -0.148319
 C 0.33905 0.16285 0.3199   0.701002
 C 0.72161 0.97791 0.23422   0.01328
 C 0.74324 0.89454 0.17648   -0.192204
 C 0.72294 0.87554 0.09088   0.036587
 C 0.6854 0.9422 0.0648   -0.127575
 C 0.6621 0.0231 0.1232   0.025525
 C 0.67943 0.04193 0.20726   -0.177472
 C 0.6693 0.9239 0.9734   0.631273
 C 0.64992 0.13142 0.26904   0.677008
 C 0.78046 0.82316 0.20352   0.710488
 C 0.8865 0.462 0.3762   -0.121841
 C 0.7918 0.3899 0.3242   0.059682
 C 0.79721 0.43011 0.45482   0.169573
 C 0.75907 0.42787 0.52494   0.184853
 C 0.8283 0.4742 0.612   -0.177212
 C 0.7753 0.4652 0.6696   0.034201
 C 0.6611 0.4085 0.6372   -0.180126
 C 0.6009 0.3635 0.5494   0.181902
 C 0.9768 0.5709 0.5382   -0.057594
 C 0.89328 0.64328 0.57496   0.043906
 C 0.9199 0.6923 0.663   -0.145703
 C 0.84503 0.75773 0.69746   -0.003736
 C 0.74245 0.77285 0.6425   -0.200697
 C 0.71869 0.72429 0.55338   -0.011288
 C 0.79038 0.65918 0.51936   -0.149766
 C 0.66095 0.84295 0.6801   0.702202
 N 0.43332 0.52652 0.53984   0.028207
 N 0.36408 0.49698 0.62756   -0.369471
 N 0.15423 0.38013 0.50846   -0.350517
 N 0.56668 0.98668 0.46016   0.028681
 N 0.63592 0.86942 0.37244   -0.37121
 N 0.84577 0.87167 0.49154   -0.3521
 N 0.10652 0.02652 0.53984   0.028797
 N 0.26348 0.99698 0.62756   -0.370823
 N 0.35423 0.88013 0.50846   -0.352422
 N 0.89348 0.48668 0.46016   0.02957
 N 0.73652 0.36942 0.37244   -0.370977
 N 0.64577 0.37167 0.49154   -0.351683
 O 0.68067 0.53227 0.04334   -0.61308
 O 0.7413 0.4289 0.087   -0.606257
 O 0.35704 0.31744 0.65188   -0.567422
 O 0.3321 0.4348 0.7642   -0.634423
 O 0.54253 0.06293 0.71666   -0.622748
 O 0.61854 0.09854 0.85728   -0.59688
 O 0.93765 0.72535 0.3701   -0.575792
 O 0.93201 0.62181 0.23742   -0.631096
 O 0.31933 0.48893 0.95666   -0.613122
 O 0.2587 0.3419 0.913   -0.606173
 O 0.64296 0.66556 0.34812   -0.56768
 O 0.6679 0.6706 0.2358   -0.634811
 O 0.45747 0.34627 0.28334   -0.622511
 O 0.38146 0.24126 0.14272   -0.596977
 O 0.06235 0.35525 0.6299   -0.575481
 O 0.06799 0.38439 0.76258   -0.632018
 O 0.36267 0.03227 0.04334   -0.613014
 O 0.3457 0.9289 0.087   -0.606185
 O 0.29484 0.81744 0.65188   -0.567911
 O 0.4321 0.9348 0.7642   -0.635142
 O 0.17413 0.56293 0.71666   -0.622762
 O 0.23874 0.59854 0.85728   -0.596763
 O 0.43245 0.22535 0.3701   -0.575837
 O 0.30541 0.12181 0.23742   -0.631516
 O 0.63733 0.98893 0.95666   -0.61227
 O 0.6543 0.8419 0.913   -0.605776
 O 0.70516 0.16556 0.34812   -0.568416
 O 0.5679 0.1706 0.2358   -0.634295
 O 0.82587 0.84627 0.28334   -0.622631
 O 0.76126 0.74126 0.14272   -0.597034
 O 0.56755 0.85525 0.6299   -0.576921
 O 0.69459 0.88439 0.76258   -0.631145
