{'_ref': 'TBD', '_srcid': 'CAKYAQ_clean', 'submitters': [{'name': 'Dalar Nazarian Jeff Camp and David Sholl', 'email': 'dalar@gatech.edu jcamp6@gatech.edu'}], '_method': 'VASP DFT with PBE;DDEC'}
data_Cd2HC9NO8
_symmetry_space_group_name_H-M   'P 1'
_cell_length_a   8.39890029
_cell_length_b   8.53499983
_cell_length_c   11.48830000
_cell_angle_alpha   89.32500183
_cell_angle_beta   69.01399747
_cell_angle_gamma   67.26899901
_symmetry_Int_Tables_number   1
_chemical_formula_structural   Cd2HC9NO8
_chemical_formula_sum   'Cd4 H2 C18 N2 O16'
_cell_volume   701.47951852
_cell_formula_units_Z   2
loop_
 _symmetry_equiv_pos_site_id
 _symmetry_equiv_pos_as_xyz
  1  'x, y, z'
loop_
 _atom_site_label
 _atom_site_fract_x
 _atom_site_fract_y
 _atom_site_fract_z
 _atom_site_charge
 Cd 0.23633 0.80077 0.88986   1.159667
 Cd 0.14802 0.43842 0.59229   1.154931
 Cd 0.76367 0.19923 0.11014   1.159671
 Cd 0.85198 0.56158 0.40771   1.154959
 H 0.2856 0.1671 0.14   0.133614
 H 0.7144 0.8329 0.86   0.133614
 C 0.2829 0.703 0.1518   0.593858
 C 0.2798 0.5437 0.0962   0.128508
 C 0.2886 0.4008 0.1579   -0.200289
 C 0.3113 0.3844 0.2827   0.765724
 C 0.2763 0.2653 0.102   0.029241
 C 0.25 0.2764 0.9889   -0.069637
 C 0.2337 0.1245 0.9357   0.677822
 C 0.2409 0.4233 0.9337   0.100403
 C 0.1998 0.4549 0.817   0.619377
 C 0.7171 0.297 0.8482   0.593859
 C 0.7202 0.4563 0.9038   0.128506
 C 0.7114 0.5992 0.8421   -0.200288
 C 0.6887 0.6156 0.7173   0.765724
 C 0.7237 0.7347 0.898   0.029241
 C 0.75 0.7236 0.0111   -0.069638
 C 0.7663 0.8755 0.0643   0.677821
 C 0.7591 0.5767 0.0663   0.100401
 C 0.8002 0.5451 0.183   0.619373
 N 0.2603 0.5521 0.9857   -0.324614
 N 0.7397 0.4479 0.0143   -0.324614
 O 0.2716 0.8251 0.0883   -0.601128
 O 0.2916 0.7016 0.2578   -0.597606
 O 0.1615 0.4248 0.3812   -0.684283
 O 0.4713 0.3241 0.2825   -0.564858
 O 0.0806 0.1128 0.9819   -0.627954
 O 0.3778 0.0083 0.8575   -0.56391
 O 0.1618 0.346 0.773   -0.529178
 O 0.1988 0.5882 0.7714   -0.599708
 O 0.7284 0.1749 0.9117   -0.601127
 O 0.7084 0.2984 0.7422   -0.597602
 O 0.8385 0.5752 0.6188   -0.684283
 O 0.5287 0.6759 0.7175   -0.564855
 O 0.9194 0.8872 0.0181   -0.627954
 O 0.6222 0.9917 0.1425   -0.563903
 O 0.8382 0.654 0.227   -0.529179
 O 0.8012 0.4118 0.2286   -0.599708
