{'_ref': 'TBD', '_srcid': 'CAKYAQ_clean', 'submitters': [{'name': 'Dalar Nazarian Jeff Camp and David Sholl', 'email': 'dalar@gatech.edu jcamp6@gatech.edu'}], '_method': 'VASP DFT with PBE;DDEC'}
data_Zn2H27C34N6(O4F3)2
_symmetry_space_group_name_H-M   'P 1'
_cell_length_a   11.02100000
_cell_length_b   18.56099969
_cell_length_c   20.57100000
_cell_angle_alpha   90.00000000
_cell_angle_beta   90.00000000
_cell_angle_gamma   105.82200048
_symmetry_Int_Tables_number   1
_chemical_formula_structural   Zn2H27C34N6(O4F3)2
_chemical_formula_sum   'Zn8 H108 C136 N24 O32 F24'
_cell_volume   4048.5920767
_cell_formula_units_Z   4
loop_
 _symmetry_equiv_pos_site_id
 _symmetry_equiv_pos_as_xyz
  1  'x, y, z'
loop_
 _atom_site_label
 _atom_site_fract_x
 _atom_site_fract_y
 _atom_site_fract_z
 _atom_site_charge
 Zn 0.9546 0.57798 0.89601   0.968064
 Zn 0.04949 0.16619 0.35227   0.893082
 Zn 0.0454 0.92202 0.39601   0.968064
 Zn 0.95051 0.33381 0.85227   0.893082
 Zn 0.0454 0.42202 0.10399   0.968064
 Zn 0.95051 0.83381 0.64773   0.893082
 Zn 0.9546 0.07798 0.60399   0.968064
 Zn 0.04949 0.66619 0.14773   0.893082
 H 0.9288 0.4719 0.7714   0.070475
 H 0.0862 0.6854 0.7864   0.120806
 H 0.0924 0.6525 0.6714   0.121294
 H 0.0075 0.5364 0.6043   0.071166
 H 0.9006 0.4737 0.6372   0.061262
 H 0.0475 0.4109 0.6703   0.09112
 H 0.1584 0.4755 0.6419   0.080084
 H 0.962 0.3881 0.5623   0.073039
 H 0.082 0.4475 0.5361   0.070219
 H 0.0743 0.31 0.5909   0.112574
 H 0.2022 0.3717 0.5803   0.087972
 H 0.0101 0.2209 0.4939   0.103605
 H 0.2122 0.3371 0.3532   0.12296
 H 0.235 0.4193 0.4484   0.133402
 H 0.8439 0.046 0.4226   0.110621
 H 0.7859 0.1757 0.2821   0.120816
 H 0.5811 0.0979 0.3162   0.146154
 H 0.613 0.953 0.4286   0.092472
 H 0.5069 0.9793 0.3927   0.106677
 H 0.5208 0.0729 0.4721   0.071433
 H 0.6262 0.0459 0.5082   0.090372
 H 0.6361 0.3612 0.8562   0.110842
 H 0.4675 0.2606 0.8784   0.09648
 H 0.592 0.2533 0.059   0.102186
 H 0.369 0.0946 0.1037   0.102084
 H 0.2754 0.1133 0.1994   0.099422
 H 0.3153 0.2856 0.0352   0.105017
 H 0.0712 0.0281 0.2714   0.070475
 H 0.9138 0.8146 0.2864   0.120806
 H 0.9076 0.8475 0.1714   0.121294
 H 0.9925 0.9636 0.1043   0.071166
 H 0.0994 0.0263 0.1372   0.061262
 H 0.9525 0.0891 0.1703   0.09112
 H 0.8416 0.0245 0.1419   0.080084
 H 0.038 0.1119 0.0623   0.073039
 H 0.918 0.0525 0.0361   0.070219
 H 0.9257 0.19 0.0909   0.112574
 H 0.7978 0.1283 0.0803   0.087973
 H 0.9899 0.2791 0.9939   0.103605
 H 0.7878 0.1629 0.8532   0.12296
 H 0.765 0.0807 0.9484   0.133402
 H 0.1561 0.454 0.9226   0.110621
 H 0.2141 0.3243 0.7821   0.120817
 H 0.4189 0.4021 0.8162   0.146154
 H 0.387 0.547 0.9286   0.092472
 H 0.4931 0.5207 0.8927   0.106677
 H 0.4792 0.4271 0.9721   0.071433
 H 0.3738 0.4541 0.0082   0.090371
 H 0.3639 0.1388 0.3562   0.110842
 H 0.5325 0.2394 0.3784   0.09648
 H 0.408 0.2467 0.559   0.102186
 H 0.631 0.4054 0.6037   0.102084
 H 0.7246 0.3867 0.6994   0.099422
 H 0.6847 0.2144 0.5352   0.105016
 H 0.0712 0.5281 0.2286   0.070475
 H 0.9138 0.3146 0.2136   0.120806
 H 0.9076 0.3475 0.3286   0.121294
 H 0.9925 0.4636 0.3957   0.071166
 H 0.0994 0.5263 0.3628   0.061262
 H 0.9525 0.5891 0.3297   0.09112
 H 0.8416 0.5245 0.3581   0.080084
 H 0.038 0.6119 0.4377   0.073039
 H 0.918 0.5525 0.4639   0.07022
 H 0.9257 0.69 0.4091   0.112574
 H 0.7978 0.6283 0.4197   0.087972
 H 0.9899 0.7791 0.5061   0.103605
 H 0.7878 0.6629 0.6468   0.122961
 H 0.765 0.5807 0.5516   0.133402
 H 0.1561 0.954 0.5774   0.110621
 H 0.2141 0.8243 0.7179   0.120816
 H 0.4189 0.9021 0.6838   0.146154
 H 0.387 0.047 0.5714   0.092472
 H 0.4931 0.0207 0.6073   0.106677
 H 0.4792 0.9271 0.5279   0.071433
 H 0.3738 0.9541 0.4918   0.090371
 H 0.3639 0.6388 0.1438   0.110842
 H 0.5325 0.7394 0.1216   0.09648
 H 0.408 0.7467 0.941   0.102186
 H 0.631 0.9054 0.8963   0.102084
 H 0.7246 0.8867 0.8006   0.099422
 H 0.6847 0.7144 0.9648   0.105017
 H 0.9288 0.9719 0.7286   0.070475
 H 0.0862 0.1854 0.7136   0.120806
 H 0.0924 0.1525 0.8286   0.121294
 H 0.0075 0.0364 0.8957   0.071166
 H 0.9006 0.9737 0.8628   0.061262
 H 0.0475 0.9109 0.8297   0.09112
 H 0.1584 0.9755 0.8581   0.080084
 H 0.962 0.8881 0.9377   0.073039
 H 0.082 0.9475 0.9639   0.07022
 H 0.0743 0.81 0.9091   0.112574
 H 0.2022 0.8717 0.9197   0.087973
 H 0.0101 0.7209 0.0061   0.103605
 H 0.2122 0.8371 0.1468   0.122961
 H 0.235 0.9193 0.0516   0.133402
 H 0.8439 0.546 0.0774   0.110621
 H 0.7859 0.6757 0.2179   0.120817
 H 0.5811 0.5979 0.1838   0.146154
 H 0.613 0.453 0.0714   0.092472
 H 0.5069 0.4793 0.1073   0.106677
 H 0.5208 0.5729 0.0279   0.071433
 H 0.6262 0.5459 0.9918   0.090371
 H 0.6361 0.8612 0.6438   0.110842
 H 0.4675 0.7606 0.6216   0.09648
 H 0.592 0.7533 0.441   0.102186
 H 0.369 0.5946 0.3963   0.102084
 H 0.2754 0.6133 0.3006   0.099422
 H 0.3153 0.7856 0.4648   0.105016
 C 0.9705 0.5213 0.7614   0.192425
 C 0.0561 0.6378 0.7685   0.052266
 C 0.0594 0.6198 0.7052   -0.165815
 C 0.9884 0.5021 0.6407   -0.013624
 C 0.0704 0.4483 0.6362   -0.163906
 C 0.0514 0.4101 0.5695   -0.146013
 C 0.1167 0.3526 0.5642   -0.020844
 C 0.0635 0.2597 0.4705   0.168032
 C 0.174 0.3241 0.3935   0.037018
 C 0.1881 0.3694 0.4461   -0.157529
 C 0.8045 0.0684 0.3917   0.15943
 C 0.7718 0.1396 0.3146   0.024722
 C 0.6589 0.0969 0.3332   -0.157762
 C 0.5825 0.9962 0.4189   -0.030823
 C 0.5511 0.0296 0.4816   -0.150566
 C 0.8261 0.4333 0.9257   0.691922
 C 0.7196 0.3679 0.9445   -0.087504
 C 0.6282 0.3394 0.8972   -0.067105
 C 0.5266 0.2794 0.9107   -0.125255
 C 0.5108 0.2468 0.9714   0.045634
 C 0.6016 0.2746 0.0178   -0.08139
 C 0.7076 0.3339 0.0048   -0.106176
 C 0.8092 0.354 0.055   0.631425
 C 0.4013 0.1776 0.9897   -0.294309
 C 0.2899 0.1642 0.9416   0.693744
 C 0.4574 0.1091 0.987   0.691716
 C 0.3485 0.1875 0.0576   0.076954
 C 0.3376 0.136 0.1084   -0.175403
 C 0.2802 0.1471 0.1654   -0.028577
 C 0.2293 0.207 0.174   -0.135377
 C 0.1509 0.2086 0.2348   0.683501
 C 0.2424 0.26 0.1246   -0.006034
 C 0.1995 0.33 0.1301   0.680926
 C 0.3038 0.2495 0.0677   -0.152814
 C 0.0295 0.9787 0.2614   0.192425
 C 0.9439 0.8622 0.2685   0.052266
 C 0.9406 0.8802 0.2052   -0.165815
 C 0.0116 0.9979 0.1407   -0.013624
 C 0.9296 0.0517 0.1362   -0.163906
 C 0.9486 0.0899 0.0695   -0.146013
 C 0.8833 0.1474 0.0642   -0.020844
 C 0.9365 0.2403 0.9705   0.168032
 C 0.826 0.1759 0.8935   0.037018
 C 0.8119 0.1306 0.9461   -0.157529
 C 0.1955 0.4316 0.8917   0.15943
 C 0.2282 0.3604 0.8146   0.024722
 C 0.3411 0.4031 0.8332   -0.157762
 C 0.4175 0.5038 0.9189   -0.030823
 C 0.4489 0.4704 0.9816   -0.150566
 C 0.1739 0.0667 0.4257   0.691922
 C 0.2804 0.1321 0.4445   -0.087504
 C 0.3718 0.1606 0.3972   -0.067105
 C 0.4734 0.2206 0.4107   -0.125255
 C 0.4892 0.2532 0.4714   0.045634
 C 0.3984 0.2254 0.5178   -0.08139
 C 0.2924 0.1661 0.5048   -0.106176
 C 0.1908 0.146 0.555   0.631425
 C 0.5987 0.3224 0.4897   -0.294309
 C 0.7101 0.3358 0.4416   0.693744
 C 0.5426 0.3909 0.487   0.691716
 C 0.6515 0.3125 0.5576   0.076954
 C 0.6624 0.364 0.6084   -0.175403
 C 0.7198 0.3529 0.6654   -0.028577
 C 0.7707 0.293 0.674   -0.135377
 C 0.8491 0.2914 0.7348   0.683501
 C 0.7576 0.24 0.6246   -0.006034
 C 0.8005 0.17 0.6301   0.680926
 C 0.6962 0.2505 0.5677   -0.152814
 C 0.0295 0.4787 0.2386   0.192425
 C 0.9439 0.3622 0.2315   0.052266
 C 0.9406 0.3802 0.2948   -0.165815
 C 0.0116 0.4979 0.3593   -0.013624
 C 0.9296 0.5517 0.3638   -0.163906
 C 0.9486 0.5899 0.4305   -0.146013
 C 0.8833 0.6474 0.4358   -0.020844
 C 0.9365 0.7403 0.5295   0.168032
 C 0.826 0.6759 0.6065   0.037018
 C 0.8119 0.6306 0.5539   -0.157529
 C 0.1955 0.9316 0.6083   0.15943
 C 0.2282 0.8604 0.6854   0.024722
 C 0.3411 0.9031 0.6668   -0.157762
 C 0.4175 0.0038 0.5811   -0.030823
 C 0.4489 0.9704 0.5184   -0.150566
 C 0.1739 0.5667 0.0743   0.691922
 C 0.2804 0.6321 0.0555   -0.087504
 C 0.3718 0.6606 0.1028   -0.067105
 C 0.4734 0.7206 0.0893   -0.125255
 C 0.4892 0.7532 0.0286   0.045634
 C 0.3984 0.7254 0.9822   -0.08139
 C 0.2924 0.6661 0.9952   -0.106176
 C 0.1908 0.646 0.945   0.631425
 C 0.5987 0.8224 0.0103   -0.294309
 C 0.7101 0.8358 0.0584   0.693744
 C 0.5426 0.8909 0.013   0.691716
 C 0.6515 0.8125 0.9424   0.076954
 C 0.6624 0.864 0.8916   -0.175403
 C 0.7198 0.8529 0.8346   -0.028577
 C 0.7707 0.793 0.826   -0.135377
 C 0.8491 0.7914 0.7652   0.683501
 C 0.7576 0.74 0.8754   -0.006034
 C 0.8005 0.67 0.8699   0.680926
 C 0.6962 0.7505 0.9323   -0.152814
 C 0.9705 0.0213 0.7386   0.192425
 C 0.0561 0.1378 0.7315   0.052266
 C 0.0594 0.1198 0.7948   -0.165815
 C 0.9884 0.0021 0.8593   -0.013624
 C 0.0704 0.9483 0.8638   -0.163906
 C 0.0514 0.9101 0.9305   -0.146013
 C 0.1167 0.8526 0.9358   -0.020844
 C 0.0635 0.7597 0.0295   0.168032
 C 0.174 0.8241 0.1065   0.037018
 C 0.1881 0.8694 0.0539   -0.157529
 C 0.8045 0.5684 0.1083   0.15943
 C 0.7718 0.6396 0.1854   0.024722
 C 0.6589 0.5969 0.1668   -0.157762
 C 0.5825 0.4962 0.0811   -0.030823
 C 0.5511 0.5296 0.0184   -0.150566
 C 0.8261 0.9333 0.5743   0.691922
 C 0.7196 0.8679 0.5555   -0.087504
 C 0.6282 0.8394 0.6028   -0.067105
 C 0.5266 0.7794 0.5893   -0.125255
 C 0.5108 0.7468 0.5286   0.045634
 C 0.6016 0.7746 0.4822   -0.08139
 C 0.7076 0.8339 0.4952   -0.106176
 C 0.8092 0.854 0.445   0.631425
 C 0.4013 0.6776 0.5103   -0.294309
 C 0.2899 0.6642 0.5584   0.693744
 C 0.4574 0.6091 0.513   0.691716
 C 0.3485 0.6875 0.4424   0.076954
 C 0.3376 0.636 0.3916   -0.175403
 C 0.2802 0.6471 0.3346   -0.028577
 C 0.2293 0.707 0.326   -0.135377
 C 0.1509 0.7086 0.2652   0.683501
 C 0.2424 0.76 0.3754   -0.006034
 C 0.1995 0.83 0.3699   0.680926
 C 0.3038 0.7495 0.4323   -0.152814
 N 0.9984 0.571 0.803   -0.394333
 N 0.0053 0.5445 0.6998   0.021488
 N 0.1201 0.3277 0.4949   0.042529
 N 0.0938 0.2553 0.4094   -0.413444
 N 0.8635 0.1217 0.3509   -0.396622
 N 0.6793 0.0515 0.3819   0.052104
 N 0.0016 0.929 0.303   -0.394333
 N 0.9947 0.9555 0.1998   0.021488
 N 0.8799 0.1723 0.9949   0.042529
 N 0.9062 0.2447 0.9094   -0.413444
 N 0.1365 0.3783 0.8509   -0.396622
 N 0.3207 0.4485 0.8819   0.052104
 N 0.0016 0.429 0.197   -0.394333
 N 0.9947 0.4555 0.3002   0.021488
 N 0.8799 0.6723 0.5051   0.042529
 N 0.9062 0.7447 0.5906   -0.413444
 N 0.1365 0.8783 0.6491   -0.396622
 N 0.3207 0.9485 0.6181   0.052104
 N 0.9984 0.071 0.697   -0.394333
 N 0.0053 0.0445 0.8002   0.021488
 N 0.1201 0.8277 0.0051   0.042529
 N 0.0938 0.7553 0.0906   -0.413444
 N 0.8635 0.6217 0.1491   -0.396622
 N 0.6793 0.5515 0.1181   0.052104
 O 0.9195 0.4238 0.89568   -0.587461
 O 0.8156 0.4978 0.93693   -0.561244
 O 0.9038 0.4069 0.04262   -0.59287
 O 0.8027 0.3121 0.1024   -0.596095
 O 0.1613 0.167 0.2793   -0.630019
 O 0.0685 0.2389 0.2351   -0.589918
 O 0.2568 0.3802 0.1643   -0.6025
 O 0.1068 0.3319 0.0943   -0.638331
 O 0.0805 0.0762 0.39568   -0.587461
 O 0.1844 0.0022 0.43693   -0.561244
 O 0.0962 0.0931 0.54262   -0.59287
 O 0.1973 0.1879 0.6024   -0.596095
 O 0.8387 0.333 0.7793   -0.630019
 O 0.9315 0.2611 0.7351   -0.589918
 O 0.7432 0.1198 0.6643   -0.6025
 O 0.8932 0.1681 0.5943   -0.638331
 O 0.0805 0.5762 0.10432   -0.587461
 O 0.1844 0.5022 0.06307   -0.561244
 O 0.0962 0.5931 0.95738   -0.59287
 O 0.1973 0.6879 0.8976   -0.596095
 O 0.8387 0.833 0.7207   -0.630019
 O 0.9315 0.7611 0.7649   -0.589918
 O 0.7432 0.6198 0.8357   -0.6025
 O 0.8932 0.6681 0.9057   -0.638331
 O 0.9195 0.9238 0.60432   -0.587461
 O 0.8156 0.9978 0.56307   -0.561244
 O 0.9038 0.9069 0.45738   -0.59287
 O 0.8027 0.8121 0.3976   -0.596095
 O 0.1613 0.667 0.2207   -0.630019
 O 0.0685 0.7389 0.2649   -0.589918
 O 0.2568 0.8802 0.3357   -0.6025
 O 0.1068 0.8319 0.4057   -0.638331
 F 0.2527 0.2249 0.93114   -0.179738
 F 0.1899 0.1116 0.9648   -0.212859
 F 0.3158 0.1389 0.88339   -0.205154
 F 0.511 0.105 0.9288   -0.223009
 F 0.3676 0.0441 0.9932   -0.224943
 F 0.5419 0.1113 0.0313   -0.166172
 F 0.7473 0.2751 0.43114   -0.179738
 F 0.8101 0.3884 0.4648   -0.212859
 F 0.6842 0.3611 0.38339   -0.205154
 F 0.489 0.395 0.4288   -0.223009
 F 0.6324 0.4559 0.4932   -0.224943
 F 0.4581 0.3887 0.5313   -0.166172
 F 0.7473 0.7751 0.06886   -0.179738
 F 0.8101 0.8884 0.0352   -0.212859
 F 0.6842 0.8611 0.11661   -0.205154
 F 0.489 0.895 0.0712   -0.223009
 F 0.6324 0.9559 0.0068   -0.224943
 F 0.4581 0.8887 0.9687   -0.166172
 F 0.2527 0.7249 0.56886   -0.179738
 F 0.1899 0.6116 0.5352   -0.212859
 F 0.3158 0.6389 0.61661   -0.205154
 F 0.511 0.605 0.5712   -0.223009
 F 0.3676 0.5441 0.5068   -0.224943
 F 0.5419 0.6113 0.4687   -0.166172
