{'_ref': 'TBD', '_srcid': 'CAKYAQ_clean', 'submitters': [{'name': 'Dalar Nazarian Jeff Camp and David Sholl', 'email': 'dalar@gatech.edu jcamp6@gatech.edu'}], '_method': 'VASP DFT with PBE;DDEC'}
data_Nd2P3H30C27(NO5)3
_symmetry_space_group_name_H-M   'P 1'
_cell_length_a   7.13100000
_cell_length_b   20.89099969
_cell_length_c   27.84500000
_cell_angle_alpha   107.85299888
_cell_angle_beta   90.00000000
_cell_angle_gamma   90.00000000
_symmetry_Int_Tables_number   1
_chemical_formula_structural   Nd2P3H30C27(NO5)3
_chemical_formula_sum   'Nd8 P12 H120 C108 N12 O60'
_cell_volume   3948.42296277
_cell_formula_units_Z   4
loop_
 _symmetry_equiv_pos_site_id
 _symmetry_equiv_pos_as_xyz
  1  'x, y, z'
loop_
 _atom_site_label
 _atom_site_fract_x
 _atom_site_fract_y
 _atom_site_fract_z
 _atom_site_charge
 Nd 0.87579 0.9094 0.66026   2.396819
 Nd 0.08219 0.74538 0.20476   2.306914
 Nd 0.37579 0.0906 0.83974   2.396819
 Nd 0.58219 0.25462 0.29524   2.306914
 Nd 0.12421 0.0906 0.33974   2.39682
 Nd 0.91781 0.25462 0.79524   2.306914
 Nd 0.62421 0.9094 0.16026   2.39682
 Nd 0.41781 0.74538 0.70476   2.306914
 P 0.9551 0.91773 0.27221   1.723613
 P 0.9189 0.74832 0.67741   1.555011
 P 0.3804 0.8626 0.62461   1.692297
 P 0.4551 0.08227 0.22779   1.723613
 P 0.4189 0.25168 0.82259   1.555011
 P 0.8804 0.1374 0.87539   1.692297
 P 0.0449 0.08227 0.72779   1.723613
 P 0.0811 0.25168 0.32259   1.555011
 P 0.6196 0.1374 0.37539   1.692297
 P 0.5449 0.91773 0.77221   1.723613
 P 0.5811 0.74832 0.17741   1.55501
 P 0.1196 0.8626 0.12461   1.692297
 H 0.6465 0.9873 0.3233   0.285075
 H 0.8181 0.6193 0.6855   0.285763
 H 0.022 0.6184 0.6868   0.29088
 H 0.0772 0.793 0.5477   0.281294
 H 0.1636 0.7646 0.5838   0.260169
 H 0.8776 0.9013 0.3487   0.149783
 H 0.7466 0.8573 0.3059   0.137353
 H 0.4322 0.9812 0.3825   0.099065
 H 0.4432 0.9033 0.3564   0.074779
 H 0.5542 0.836 0.4034   0.076578
 H 0.684 0.8231 0.4765   0.06235
 H 0.8194 0.0179 0.5223   0.09301
 H 0.6919 0.0306 0.4495   0.109039
 H 0.8235 0.6532 0.6142   0.146833
 H 0.0428 0.6548 0.6179   0.133622
 H 0.0316 0.5329 0.6107   0.087284
 H 0.8115 0.5331 0.6107   0.08514
 H 0.6414 0.4927 0.6731   0.098985
 H 0.64 0.4293 0.728   0.095677
 H 0.1983 0.4065 0.7117   0.100427
 H 0.1978 0.473 0.6592   0.098504
 H 0.9938 0.7629 0.3791   0.115597
 H 0.9592 0.7481 0.4578   0.107975
 H 0.2995 0.6805 0.5214   0.07835
 H 0.0811 0.6795 0.5144   0.087774
 H 0.4557 0.791 0.5439   0.158982
 H 0.3217 0.8485 0.539   0.181569
 H 0.4807 0.6779 0.4503   0.092376
 H 0.5221 0.6964 0.3728   0.099997
 H 0.4522 0.7483 0.2748   0.431526
 H 0.1465 0.0127 0.1767   0.285075
 H 0.3181 0.3807 0.8145   0.285763
 H 0.522 0.3816 0.8132   0.290881
 H 0.5772 0.207 0.9523   0.281294
 H 0.6636 0.2354 0.9162   0.260169
 H 0.3776 0.0987 0.1513   0.149783
 H 0.2466 0.1427 0.1941   0.137353
 H 0.9322 0.0188 0.1175   0.099065
 H 0.9432 0.0967 0.1436   0.074779
 H 0.0542 0.164 0.0966   0.076578
 H 0.184 0.1769 0.0235   0.06235
 H 0.3194 0.9821 0.9777   0.09301
 H 0.1919 0.9694 0.0505   0.109039
 H 0.3235 0.3468 0.8858   0.146833
 H 0.5428 0.3452 0.8821   0.133622
 H 0.5316 0.4671 0.8893   0.087284
 H 0.3115 0.4669 0.8893   0.08514
 H 0.1414 0.5073 0.8269   0.098985
 H 0.14 0.5707 0.772   0.095677
 H 0.6983 0.5935 0.7883   0.100427
 H 0.6978 0.527 0.8408   0.098503
 H 0.4938 0.2371 0.1209   0.115597
 H 0.4592 0.2519 0.0422   0.107975
 H 0.7995 0.3195 0.9786   0.07835
 H 0.5811 0.3205 0.9856   0.087774
 H 0.9557 0.209 0.9561   0.158982
 H 0.8217 0.1515 0.961   0.181569
 H 0.9807 0.3221 0.0497   0.092376
 H 0.0221 0.3036 0.1272   0.099997
 H 0.9522 0.2517 0.2252   0.431526
 H 0.3535 0.0127 0.6767   0.285075
 H 0.1819 0.3807 0.3145   0.285763
 H 0.978 0.3816 0.3132   0.29088
 H 0.9228 0.207 0.4523   0.281294
 H 0.8364 0.2354 0.4162   0.260169
 H 0.1224 0.0987 0.6513   0.149783
 H 0.2534 0.1427 0.6941   0.137353
 H 0.5678 0.0188 0.6175   0.099065
 H 0.5568 0.0967 0.6436   0.074779
 H 0.4458 0.164 0.5966   0.076578
 H 0.316 0.1769 0.5235   0.06235
 H 0.1806 0.9821 0.4777   0.09301
 H 0.3081 0.9694 0.5505   0.109039
 H 0.1765 0.3468 0.3858   0.146833
 H 0.9572 0.3452 0.3821   0.133622
 H 0.9684 0.4671 0.3893   0.087276
 H 0.1885 0.4669 0.3893   0.085131
 H 0.3586 0.5073 0.3269   0.098985
 H 0.36 0.5707 0.272   0.095677
 H 0.8017 0.5935 0.2883   0.100428
 H 0.8022 0.527 0.3408   0.098502
 H 0.0062 0.2371 0.6209   0.115597
 H 0.0408 0.2519 0.5422   0.107975
 H 0.7005 0.3195 0.4786   0.078346
 H 0.9189 0.3205 0.4856   0.087771
 H 0.5443 0.209 0.4561   0.158982
 H 0.6783 0.1515 0.461   0.181569
 H 0.5193 0.3221 0.5497   0.092372
 H 0.4779 0.3036 0.6272   0.099998
 H 0.5478 0.2517 0.7252   0.431526
 H 0.8535 0.9873 0.8233   0.285075
 H 0.6819 0.6193 0.1855   0.285763
 H 0.478 0.6184 0.1868   0.290881
 H 0.4228 0.793 0.0477   0.281294
 H 0.3364 0.7646 0.0838   0.260169
 H 0.6224 0.9013 0.8487   0.149783
 H 0.7534 0.8573 0.8059   0.137353
 H 0.0678 0.9812 0.8825   0.099065
 H 0.0568 0.9033 0.8564   0.074779
 H 0.9458 0.836 0.9034   0.076578
 H 0.816 0.8231 0.9765   0.06235
 H 0.6806 0.0179 0.0223   0.09301
 H 0.8081 0.0306 0.9495   0.109039
 H 0.6765 0.6532 0.1142   0.146833
 H 0.4572 0.6548 0.1179   0.133622
 H 0.4684 0.5329 0.1107   0.087276
 H 0.6885 0.5331 0.1107   0.085131
 H 0.8586 0.4927 0.1731   0.098985
 H 0.86 0.4293 0.228   0.095677
 H 0.3017 0.4065 0.2117   0.100428
 H 0.3022 0.473 0.1592   0.098502
 H 0.5062 0.7629 0.8791   0.115597
 H 0.5408 0.7481 0.9578   0.107975
 H 0.2005 0.6805 0.0214   0.078346
 H 0.4189 0.6795 0.0144   0.087771
 H 0.0443 0.791 0.0439   0.158982
 H 0.1783 0.8485 0.039   0.181569
 H 0.0193 0.6779 0.9503   0.092372
 H 0.9779 0.6964 0.8728   0.099998
 H 0.0478 0.7483 0.7748   0.431526
 C 0.8037 0.9013 0.3195   -0.476032
 C 0.5171 0.9431 0.3725   -0.0183
 C 0.6099 0.9348 0.4194   0.077886
 C 0.6078 0.8727 0.4273   -0.172884
 C 0.6861 0.8649 0.4712   -0.055303
 C 0.7665 0.9193 0.5068   -0.141311
 C 0.7668 0.981 0.4984   -0.027079
 C 0.6896 0.9887 0.4548   -0.114531
 C 0.8481 0.9112 0.5551   0.676917
 C 0.9282 0.6616 0.6376   -0.494167
 C 0.9214 0.5406 0.6322   -0.053412
 C 0.9206 0.4915 0.6626   -0.009169
 C 0.7538 0.4769 0.6821   -0.15395
 C 0.7529 0.439 0.715   -0.024316
 C 0.9212 0.4152 0.7287   -0.14808
 C 0.0869 0.4258 0.7055   -0.020388
 C 0.0861 0.4647 0.6735   -0.149607
 C 0.9238 0.3785 0.7669   0.664371
 C 0.2819 0.7438 0.3192   0.678983
 C 0.2624 0.7323 0.3694   -0.163242
 C 0.0932 0.747 0.3938   0.013189
 C 0.0727 0.7378 0.4408   -0.147432
 C 0.2194 0.7136 0.4623   0.033966
 C 0.194 0.7053 0.5141   -0.062111
 C 0.345 0.8171 0.5577   -0.50812
 C 0.384 0.6965 0.4365   -0.152425
 C 0.4086 0.7067 0.3898   -0.013394
 C 0.3037 0.0987 0.1805   -0.476032
 C 0.0171 0.0569 0.1275   -0.0183
 C 0.1099 0.0652 0.0806   0.077886
 C 0.1078 0.1273 0.0727   -0.172884
 C 0.1861 0.1351 0.0288   -0.055303
 C 0.2665 0.0807 0.9932   -0.141311
 C 0.2668 0.019 0.0016   -0.027079
 C 0.1896 0.0113 0.0452   -0.114531
 C 0.3481 0.0888 0.9449   0.676917
 C 0.4282 0.3384 0.8624   -0.494167
 C 0.4214 0.4594 0.8678   -0.053412
 C 0.4206 0.5085 0.8374   -0.009169
 C 0.2538 0.5231 0.8179   -0.15395
 C 0.2529 0.561 0.785   -0.024316
 C 0.4212 0.5848 0.7713   -0.148081
 C 0.5869 0.5742 0.7945   -0.020388
 C 0.5861 0.5353 0.8265   -0.149607
 C 0.4238 0.6215 0.7331   0.664371
 C 0.7819 0.2562 0.1808   0.678983
 C 0.7624 0.2677 0.1306   -0.163242
 C 0.5932 0.253 0.1062   0.013189
 C 0.5727 0.2622 0.0592   -0.147432
 C 0.7194 0.2864 0.0377   0.033966
 C 0.694 0.2947 0.9859   -0.062111
 C 0.845 0.1829 0.9423   -0.50812
 C 0.884 0.3035 0.0635   -0.152425
 C 0.9086 0.2933 0.1102   -0.013394
 C 0.1963 0.0987 0.6805   -0.476032
 C 0.4829 0.0569 0.6275   -0.0183
 C 0.3901 0.0652 0.5806   0.077886
 C 0.3922 0.1273 0.5727   -0.172884
 C 0.3139 0.1351 0.5288   -0.055303
 C 0.2335 0.0807 0.4932   -0.141311
 C 0.2332 0.019 0.5016   -0.027079
 C 0.3104 0.0113 0.5452   -0.114531
 C 0.1519 0.0888 0.4449   0.676917
 C 0.0718 0.3384 0.3624   -0.494167
 C 0.0786 0.4594 0.3678   -0.053406
 C 0.0794 0.5085 0.3374   -0.00917
 C 0.2462 0.5231 0.3179   -0.153949
 C 0.2471 0.561 0.285   -0.024316
 C 0.0788 0.5848 0.2713   -0.14808
 C 0.9131 0.5742 0.2945   -0.020388
 C 0.9139 0.5353 0.3265   -0.149606
 C 0.0762 0.6215 0.2331   0.664371
 C 0.7181 0.2562 0.6808   0.678983
 C 0.7376 0.2677 0.6306   -0.163242
 C 0.9068 0.253 0.6062   0.01319
 C 0.9273 0.2622 0.5592   -0.147432
 C 0.7806 0.2864 0.5377   0.033965
 C 0.806 0.2947 0.4859   -0.062109
 C 0.655 0.1829 0.4423   -0.508121
 C 0.616 0.3035 0.5635   -0.152423
 C 0.5914 0.2933 0.6102   -0.013394
 C 0.6963 0.9013 0.8195   -0.476032
 C 0.9829 0.9431 0.8725   -0.0183
 C 0.8901 0.9348 0.9194   0.077886
 C 0.8922 0.8727 0.9273   -0.172884
 C 0.8139 0.8649 0.9712   -0.055303
 C 0.7335 0.9193 0.0068   -0.141311
 C 0.7332 0.981 0.9984   -0.027079
 C 0.8104 0.9887 0.9548   -0.114531
 C 0.6519 0.9112 0.0551   0.676917
 C 0.5718 0.6616 0.1376   -0.494167
 C 0.5786 0.5406 0.1322   -0.053406
 C 0.5794 0.4915 0.1626   -0.009171
 C 0.7462 0.4769 0.1821   -0.153949
 C 0.7471 0.439 0.215   -0.024316
 C 0.5788 0.4152 0.2287   -0.14808
 C 0.4131 0.4258 0.2055   -0.020388
 C 0.4139 0.4647 0.1735   -0.149606
 C 0.5762 0.3785 0.2669   0.664371
 C 0.2181 0.7438 0.8192   0.678983
 C 0.2376 0.7323 0.8694   -0.163242
 C 0.4068 0.747 0.8938   0.01319
 C 0.4273 0.7378 0.9408   -0.147432
 C 0.2806 0.7136 0.9623   0.033965
 C 0.306 0.7053 0.0141   -0.062109
 C 0.155 0.8171 0.0577   -0.508121
 C 0.116 0.6965 0.9365   -0.152423
 C 0.0914 0.7067 0.8898   -0.013394
 N 0.6535 0.9537 0.33505   -0.221002
 N 0.9219 0.6121 0.6662   -0.047171
 N 0.18 0.7717 0.55383   -0.027811
 N 0.1535 0.0463 0.16495   -0.221002
 N 0.4219 0.3879 0.8338   -0.047172
 N 0.68 0.2283 0.94617   -0.027811
 N 0.3465 0.0463 0.66495   -0.221002
 N 0.0781 0.3879 0.3338   -0.047173
 N 0.82 0.2283 0.44617   -0.027811
 N 0.8465 0.9537 0.83505   -0.221002
 N 0.5781 0.6121 0.1662   -0.047173
 N 0.32 0.7717 0.05383   -0.027811
 O 0.8762 0.9632 0.59126   -0.636839
 O 0.8738 0.8525 0.55728   -0.736736
 O 0.0679 0.9797 0.29863   -0.98334
 O 0.0818 0.8572 0.25501   -0.953862
 O 0.826 0.9296 0.2327   -1.032629
 O 0.9349 0.7898 0.64171   -0.967519
 O 0.7372 0.758 0.70615   -0.964505
 O 0.0851 0.7569 0.71347   -0.947764
 O 0.7712 0.3662 0.78549   -0.776631
 O 0.0772 0.3574 0.7787   -0.734653
 O 0.4532 0.7438 0.3031   -0.501532
 O 0.1419 0.7528 0.29633   -0.576787
 O 0.5612 0.9007 0.6283   -0.94194
 O 0.2127 0.909 0.64029   -0.973998
 O 0.3843 0.8057 0.64755   -1.09574
 O 0.3762 0.0368 0.90874   -0.636839
 O 0.3738 0.1475 0.94272   -0.736736
 O 0.5679 0.0203 0.20137   -0.98334
 O 0.5818 0.1428 0.24499   -0.953862
 O 0.326 0.0704 0.2673   -1.032629
 O 0.4349 0.2102 0.85829   -0.967519
 O 0.2372 0.242 0.79385   -0.964505
 O 0.5851 0.2431 0.78653   -0.947764
 O 0.2712 0.6338 0.71451   -0.776631
 O 0.5772 0.6426 0.7213   -0.734653
 O 0.9532 0.2562 0.1969   -0.501532
 O 0.6419 0.2472 0.20367   -0.576787
 O 0.0612 0.0993 0.8717   -0.94194
 O 0.7127 0.091 0.85971   -0.973998
 O 0.8843 0.1943 0.85245   -1.09574
 O 0.1238 0.0368 0.40874   -0.636839
 O 0.1262 0.1475 0.44272   -0.736736
 O 0.9321 0.0203 0.70137   -0.98334
 O 0.9182 0.1428 0.74499   -0.953862
 O 0.174 0.0704 0.7673   -1.032629
 O 0.0651 0.2102 0.35829   -0.967519
 O 0.2628 0.242 0.29385   -0.964505
 O 0.9149 0.2431 0.28653   -0.947764
 O 0.2288 0.6338 0.21451   -0.776631
 O 0.9228 0.6426 0.2213   -0.734653
 O 0.5468 0.2562 0.6969   -0.501532
 O 0.8581 0.2472 0.70367   -0.576787
 O 0.4388 0.0993 0.3717   -0.94194
 O 0.7873 0.091 0.35971   -0.973998
 O 0.6157 0.1943 0.35245   -1.09574
 O 0.6238 0.9632 0.09126   -0.636839
 O 0.6262 0.8525 0.05728   -0.736736
 O 0.4321 0.9797 0.79863   -0.98334
 O 0.4182 0.8572 0.75501   -0.953862
 O 0.674 0.9296 0.7327   -1.032629
 O 0.5651 0.7898 0.14171   -0.967519
 O 0.7628 0.758 0.20615   -0.964505
 O 0.4149 0.7569 0.21347   -0.947764
 O 0.7288 0.3662 0.28549   -0.776631
 O 0.4228 0.3574 0.2787   -0.734653
 O 0.0468 0.7438 0.8031   -0.501532
 O 0.3581 0.7528 0.79633   -0.576787
 O 0.9388 0.9007 0.1283   -0.94194
 O 0.2873 0.909 0.14029   -0.973998
 O 0.1157 0.8057 0.14755   -1.09574
