{'_ref': 'TBD', '_srcid': 'CAKYAQ_clean', 'submitters': [{'name': 'Dalar Nazarian Jeff Camp and David Sholl', 'email': 'dalar@gatech.edu jcamp6@gatech.edu'}], '_method': 'VASP DFT with PBE;DDEC'}
data_ZnAg3H27C51(NO)6
_symmetry_space_group_name_H-M   'P 1'
_cell_length_a   15.64900000
_cell_length_b   15.64900040
_cell_length_c   16.47200000
_cell_angle_alpha   90.00000000
_cell_angle_beta   90.00000000
_cell_angle_gamma   119.99999916
_symmetry_Int_Tables_number   1
_chemical_formula_structural   ZnAg3H27C51(NO)6
_chemical_formula_sum   'Zn2 Ag6 H54 C102 N12 O12'
_cell_volume   3493.41484184
_cell_formula_units_Z   2
loop_
 _symmetry_equiv_pos_site_id
 _symmetry_equiv_pos_as_xyz
  1  'x, y, z'
loop_
 _atom_site_label
 _atom_site_fract_x
 _atom_site_fract_y
 _atom_site_fract_z
 _atom_site_charge
 Zn 0.33333 0.66666 0.32355   1.026809
 Zn 0.66667 0.33334 0.67645   1.026809
 Ag 0.40766 0.27051 0.76786   0.5377
 Ag 0.86285 0.59234 0.76786   0.537687
 Ag 0.72949 0.13715 0.76786   0.537694
 Ag 0.59234 0.72949 0.23214   0.5377
 Ag 0.13715 0.40766 0.23214   0.537687
 Ag 0.27051 0.86285 0.23214   0.537694
 H 0.5312 0.5632 0.2844   0.133967
 H 0.3188 0.5268 0.0993   0.110534
 H 0.3189 0.4411 0.9815   0.102913
 H 0.4647 0.3347 0.098   0.104125
 H 0.4773 0.4264 0.2079   0.091401
 H 0.5011 0.6685 0.5256   0.101413
 H 0.6003 0.6709 0.6299   0.100767
 H 0.7328 0.5814 0.4772   0.089503
 H 0.6271 0.5726 0.3735   0.103815
 H 0.032 0.4688 0.2844   0.133968
 H 0.208 0.6812 0.0993   0.110536
 H 0.1222 0.6811 0.9815   0.102913
 H 0.87 0.5353 0.098   0.104125
 H 0.9491 0.5227 0.2079   0.091401
 H 0.1674 0.4989 0.5256   0.101413
 H 0.0706 0.3997 0.6299   0.100767
 H 0.8486 0.2672 0.4772   0.089504
 H 0.9455 0.3729 0.3735   0.103816
 H 0.4368 0.968 0.2844   0.133964
 H 0.4732 0.792 0.0993   0.110538
 H 0.5589 0.8778 0.9815   0.102913
 H 0.6653 0.13 0.098   0.104126
 H 0.5736 0.0509 0.2079   0.091401
 H 0.3315 0.8326 0.5256   0.101413
 H 0.3291 0.9294 0.6299   0.100768
 H 0.4186 0.1514 0.4772   0.089504
 H 0.4274 0.0545 0.3735   0.103815
 H 0.4688 0.4368 0.7156   0.133967
 H 0.6812 0.4732 0.9007   0.110534
 H 0.6811 0.5589 0.0185   0.102913
 H 0.5353 0.6653 0.902   0.104126
 H 0.5227 0.5736 0.7921   0.0914
 H 0.4989 0.3315 0.4744   0.101413
 H 0.3997 0.3291 0.3701   0.100767
 H 0.2672 0.4186 0.5228   0.089503
 H 0.3729 0.4274 0.6265   0.103816
 H 0.968 0.5312 0.7156   0.133968
 H 0.792 0.3188 0.9007   0.110537
 H 0.8778 0.3189 0.0185   0.102913
 H 0.13 0.4647 0.902   0.104126
 H 0.0509 0.4773 0.7921   0.091401
 H 0.8326 0.5011 0.4744   0.101413
 H 0.9294 0.6003 0.3701   0.100768
 H 0.1514 0.7328 0.5228   0.089504
 H 0.0545 0.6271 0.6265   0.103816
 H 0.5632 0.032 0.7156   0.133964
 H 0.5268 0.208 0.9007   0.110538
 H 0.4411 0.1222 0.0185   0.102914
 H 0.3347 0.87 0.902   0.104127
 H 0.4264 0.9491 0.7921   0.091401
 H 0.6685 0.1674 0.4744   0.101413
 H 0.6709 0.0706 0.3701   0.100768
 H 0.5814 0.8486 0.5228   0.089504
 H 0.5726 0.9455 0.6265   0.103816
 C 0.4787 0.6134 0.3763   0.424467
 C 0.4785 0.5723 0.2977   -0.584703
 C 0.405 0.546 0.2417   0.427887
 C 0.4014 0.4871 0.1687   -0.064078
 C 0.3511 0.4905 0.0991   -0.077211
 C 0.3501 0.4377 0.0285   -0.099437
 C 0.3939 0.3834 0.0297   -0.042972
 C 0.4379 0.376 0.0968   -0.102158
 C 0.4429 0.4296 0.163   -0.076401
 C 0.3947 0.337 0.9554   0.345945
 C 0.555 0.618 0.4396   -0.056862
 C 0.5477 0.6495 0.5158   -0.077537
 C 0.6085 0.6533 0.5778   -0.082369
 C 0.6802 0.631 0.5624   -0.051808
 C 0.6857 0.5996 0.4878   -0.061642
 C 0.6216 0.5937 0.425   -0.090036
 C 0.7477 0.6427 0.6245   0.376395
 C 0.1347 0.5213 0.3763   0.424471
 C 0.0938 0.5215 0.2977   -0.584705
 C 0.141 0.595 0.2417   0.427893
 C 0.0857 0.5986 0.1687   -0.064072
 C 0.1394 0.6489 0.0991   -0.077209
 C 0.0876 0.6499 0.0285   -0.099439
 C 0.9895 0.6061 0.0297   -0.042971
 C 0.9381 0.5621 0.0968   -0.102158
 C 0.9867 0.5571 0.163   -0.076403
 C 0.9423 0.6053 0.9554   0.345944
 C 0.063 0.445 0.4396   -0.056865
 C 0.1018 0.4523 0.5158   -0.077531
 C 0.0448 0.3915 0.5778   -0.082375
 C 0.9508 0.3198 0.5624   -0.051807
 C 0.9139 0.3143 0.4878   -0.061643
 C 0.9721 0.3784 0.425   -0.090034
 C 0.895 0.2523 0.6245   0.376401
 C 0.3866 0.8653 0.3763   0.424478
 C 0.4277 0.9062 0.2977   -0.584704
 C 0.454 0.859 0.2417   0.427919
 C 0.5129 0.9143 0.1687   -0.064073
 C 0.5095 0.8606 0.0991   -0.077205
 C 0.5623 0.9124 0.0285   -0.099441
 C 0.6166 0.0105 0.0297   -0.042969
 C 0.624 0.0619 0.0968   -0.102158
 C 0.5704 0.0133 0.163   -0.076402
 C 0.663 0.0577 0.9554   0.345944
 C 0.382 0.937 0.4396   -0.056863
 C 0.3505 0.8982 0.5158   -0.077528
 C 0.3467 0.9552 0.5778   -0.082376
 C 0.369 0.0492 0.5624   -0.051803
 C 0.4004 0.0861 0.4878   -0.061641
 C 0.4063 0.0279 0.425   -0.090034
 C 0.3573 0.105 0.6245   0.376395
 C 0.5213 0.3866 0.6237   0.424467
 C 0.5215 0.4277 0.7023   -0.584703
 C 0.595 0.454 0.7583   0.427887
 C 0.5986 0.5129 0.8313   -0.064078
 C 0.6489 0.5095 0.9009   -0.077211
 C 0.6499 0.5623 0.9715   -0.099437
 C 0.6061 0.6166 0.9703   -0.042972
 C 0.5621 0.624 0.9032   -0.102158
 C 0.5571 0.5704 0.837   -0.076401
 C 0.6053 0.663 0.0446   0.345945
 C 0.445 0.382 0.5604   -0.056861
 C 0.4523 0.3505 0.4842   -0.077537
 C 0.3915 0.3467 0.4222   -0.082369
 C 0.3198 0.369 0.4376   -0.051808
 C 0.3143 0.4004 0.5122   -0.061641
 C 0.3784 0.4063 0.575   -0.090036
 C 0.2523 0.3573 0.3755   0.376394
 C 0.8653 0.4787 0.6237   0.424471
 C 0.9062 0.4785 0.7023   -0.584705
 C 0.859 0.405 0.7583   0.427893
 C 0.9143 0.4014 0.8313   -0.064072
 C 0.8606 0.3511 0.9009   -0.077209
 C 0.9124 0.3501 0.9715   -0.099439
 C 0.0105 0.3939 0.9703   -0.042971
 C 0.0619 0.4379 0.9032   -0.102158
 C 0.0133 0.4429 0.837   -0.076403
 C 0.0577 0.3947 0.0446   0.345944
 C 0.937 0.555 0.5604   -0.056865
 C 0.8982 0.5477 0.4842   -0.077531
 C 0.9552 0.6085 0.4222   -0.082374
 C 0.0492 0.6802 0.4376   -0.051807
 C 0.0861 0.6857 0.5122   -0.061643
 C 0.0279 0.6216 0.575   -0.090034
 C 0.105 0.7477 0.3755   0.376401
 C 0.6134 0.1347 0.6237   0.424478
 C 0.5723 0.0938 0.7023   -0.584704
 C 0.546 0.141 0.7583   0.427919
 C 0.4871 0.0857 0.8313   -0.064073
 C 0.4905 0.1394 0.9009   -0.077205
 C 0.4377 0.0876 0.9715   -0.099441
 C 0.3834 0.9895 0.9703   -0.042969
 C 0.376 0.9381 0.9032   -0.102158
 C 0.4296 0.9867 0.837   -0.076402
 C 0.337 0.9423 0.0446   0.345944
 C 0.618 0.063 0.5604   -0.056863
 C 0.6495 0.1018 0.4842   -0.077528
 C 0.6533 0.0448 0.4222   -0.082376
 C 0.631 0.9508 0.4376   -0.051803
 C 0.5996 0.9139 0.5122   -0.061641
 C 0.5937 0.9721 0.575   -0.090034
 C 0.6427 0.895 0.3755   0.376395
 N 0.798 0.6455 0.6769   -0.451195
 N 0.3977 0.2936 0.899   -0.463133
 N 0.8475 0.202 0.6769   -0.451198
 N 0.8959 0.6023 0.899   -0.46313
 N 0.3545 0.1525 0.6769   -0.45119
 N 0.7064 0.1041 0.899   -0.463129
 N 0.202 0.3545 0.3231   -0.451195
 N 0.6023 0.7064 0.101   -0.463133
 N 0.1525 0.798 0.3231   -0.451198
 N 0.1041 0.3977 0.101   -0.46313
 N 0.6455 0.8475 0.3231   -0.45119
 N 0.2936 0.8959 0.101   -0.463129
 O 0.4237 0.6418 0.3981   -0.47363
 O 0.3332 0.562 0.2456   -0.537909
 O 0.2181 0.5763 0.3981   -0.473628
 O 0.2288 0.6668 0.2456   -0.537955
 O 0.3582 0.7819 0.3981   -0.473636
 O 0.438 0.7712 0.2456   -0.538002
 O 0.5763 0.3582 0.6019   -0.47363
 O 0.6668 0.438 0.7544   -0.537909
 O 0.7819 0.4237 0.6019   -0.473628
 O 0.7712 0.3332 0.7544   -0.537955
 O 0.6418 0.2181 0.6019   -0.473636
 O 0.562 0.2288 0.7544   -0.538002
