{'_ref': 'TBD', '_srcid': 'CAKYAQ_clean', 'submitters': [{'name': 'Dalar Nazarian Jeff Camp and David Sholl', 'email': 'dalar@gatech.edu jcamp6@gatech.edu'}], '_method': 'VASP DFT with PBE;DDEC'}
data_CuH8C12(NO2)2
_symmetry_space_group_name_H-M   'P 1'
_cell_length_a   9.07180000
_cell_length_b   9.07179978
_cell_length_c   16.89100000
_cell_angle_alpha   90.00000000
_cell_angle_beta   90.00000000
_cell_angle_gamma   120.00000081
_symmetry_Int_Tables_number   1
_chemical_formula_structural   CuH8C12(NO2)2
_chemical_formula_sum   'Cu3 H24 C36 N6 O12'
_cell_volume   1203.85148677
_cell_formula_units_Z   3
loop_
 _symmetry_equiv_pos_site_id
 _symmetry_equiv_pos_as_xyz
  1  'x, y, z'
loop_
 _atom_site_label
 _atom_site_fract_x
 _atom_site_fract_y
 _atom_site_fract_z
 _atom_site_charge
 Cu 0.54223 0.0 0.0   0.823898
 Cu 0.45777 0.45777 0.33333   0.824939
 Cu 0.0 0.54223 0.66667   0.824938
 H 0.0817 0.7754 0.2282   0.111633
 H 0.9879 0.5856 0.335   0.13334
 H 0.1507 0.47 0.3757   0.084049
 H 0.4787 0.7043 0.2071   0.076316
 H 0.6937 0.9183 0.56153   0.111591
 H 0.5977 0.0121 0.66833   0.133422
 H 0.3193 0.8493 0.70903   0.084101
 H 0.2256 0.5213 0.54043   0.076253
 H 0.2246 0.3063 0.89487   0.111539
 H 0.4144 0.4023 0.00167   0.133326
 H 0.53 0.6807 0.04237   0.084175
 H 0.2957 0.7744 0.87377   0.076283
 H 0.3063 0.2246 0.7718   0.111633
 H 0.4023 0.4144 0.665   0.13334
 H 0.6807 0.53 0.6243   0.084049
 H 0.7744 0.2957 0.7929   0.076316
 H 0.7754 0.0817 0.43847   0.11159
 H 0.5856 0.9879 0.33167   0.133422
 H 0.47 0.1507 0.29097   0.084101
 H 0.7043 0.4787 0.45957   0.076253
 H 0.9183 0.6937 0.10513   0.111539
 H 0.0121 0.5977 0.99833   0.133327
 H 0.8493 0.3193 0.95763   0.084175
 H 0.5213 0.2256 0.12623   0.076284
 C 0.3477 0.8706 0.1338   0.649597
 C 0.2881 0.7581 0.2064   -0.206202
 C 0.1436 0.7245 0.2446   0.057693
 C 0.0884 0.6126 0.3087   -0.165345
 C 0.1862 0.543 0.3324   0.142348
 C 0.3795 0.6809 0.2336   0.198085
 C 0.5229 0.6523 0.46713   0.649716
 C 0.47 0.7119 0.53973   -0.20659
 C 0.5809 0.8564 0.57793   0.057929
 C 0.5242 0.9116 0.64203   -0.16544
 C 0.3568 0.8138 0.66573   0.14265
 C 0.3014 0.6205 0.56693   0.198331
 C 0.1294 0.4771 0.80047   0.649605
 C 0.2419 0.53 0.87307   -0.206258
 C 0.2755 0.4191 0.91127   0.057756
 C 0.3874 0.4758 0.97537   -0.165353
 C 0.457 0.6432 0.99907   0.142291
 C 0.3191 0.6986 0.90027   0.197902
 C 0.4771 0.1294 0.8662   0.649597
 C 0.53 0.2419 0.7936   -0.206202
 C 0.4191 0.2755 0.7554   0.057693
 C 0.4758 0.3874 0.6913   -0.165344
 C 0.6432 0.457 0.6676   0.142349
 C 0.6986 0.3191 0.7664   0.198085
 C 0.8706 0.3477 0.53287   0.649716
 C 0.7581 0.2881 0.46027   -0.20659
 C 0.7245 0.1436 0.42207   0.057929
 C 0.6126 0.0884 0.35797   -0.165439
 C 0.543 0.1862 0.33427   0.14265
 C 0.6809 0.3795 0.43307   0.198331
 C 0.6523 0.5229 0.19953   0.649604
 C 0.7119 0.47 0.12693   -0.206257
 C 0.8564 0.5809 0.08873   0.057756
 C 0.9116 0.5242 0.02463   -0.165352
 C 0.8138 0.3568 0.000929999999997   0.142291
 C 0.6205 0.3014 0.09973   0.197901
 N 0.3314 0.5766 0.295   -0.33106
 N 0.2452 0.6686 0.62833   -0.331351
 N 0.4234 0.7548 0.96167   -0.330894
 N 0.7548 0.4234 0.705   -0.33106
 N 0.5766 0.3314 0.37167   -0.331352
 N 0.6686 0.2452 0.03833   -0.330894
 O 0.2474 0.91 0.1025   -0.578991
 O 0.4925 0.9122 0.1088   -0.583944
 O 0.6626 0.7526 0.43583   -0.578921
 O 0.4197 0.5075 0.44213   -0.583824
 O 0.09 0.3374 0.76917   -0.578995
 O 0.0878 0.5803 0.77547   -0.583652
 O 0.3374 0.09 0.8975   -0.578991
 O 0.5803 0.0878 0.8912   -0.583944
 O 0.91 0.2474 0.56417   -0.578921
 O 0.9122 0.4925 0.55787   -0.583824
 O 0.7526 0.6626 0.23083   -0.578996
 O 0.5075 0.4197 0.22453   -0.583653
