{'_ref': 'TBD', '_srcid': 'CAKYAQ_clean', 'submitters': [{'name': 'Dalar Nazarian Jeff Camp and David Sholl', 'email': 'dalar@gatech.edu jcamp6@gatech.edu'}], '_method': 'VASP DFT with PBE;DDEC'}
data_YH6(C2O)6
_symmetry_space_group_name_H-M   'P 1'
_cell_length_a   10.74710015
_cell_length_b   10.74709962
_cell_length_c   18.76100000
_cell_angle_alpha   73.81239776
_cell_angle_beta   73.81239858
_cell_angle_gamma   64.50239952
_symmetry_Int_Tables_number   1
_chemical_formula_structural   YH6(C2O)6
_chemical_formula_sum   'Y4 H24 C48 O24'
_cell_volume   1846.52979042
_cell_formula_units_Z   4
loop_
 _symmetry_equiv_pos_site_id
 _symmetry_equiv_pos_as_xyz
  1  'x, y, z'
loop_
 _atom_site_label
 _atom_site_fract_x
 _atom_site_fract_y
 _atom_site_fract_z
 _atom_site_charge
 Y 0.56503 0.43719 0.39565   2.092285
 Y 0.56281 0.43497 0.10435   2.092285
 Y 0.43497 0.56281 0.60435   2.092285
 Y 0.43719 0.56503 0.89565   2.092285
 H 0.2018 0.4566 0.4093   0.106343
 H 0.8976 0.5106 0.2699   0.101004
 H 0.9897 0.5677 0.609   0.107204
 H 0.7998 0.6164 0.0647   0.09338
 H 0.0171 0.6235 0.0113   0.094934
 H 0.1163 0.5149 0.2161   0.109724
 H 0.5434 0.7982 0.0907   0.106343
 H 0.4894 0.1024 0.2301   0.101004
 H 0.4323 0.0103 0.891   0.107204
 H 0.3836 0.2002 0.4353   0.093376
 H 0.3765 0.9829 0.4887   0.094934
 H 0.4851 0.8837 0.2839   0.109724
 H 0.7982 0.5434 0.5907   0.106342
 H 0.1024 0.4894 0.7301   0.101004
 H 0.0103 0.4323 0.391   0.107204
 H 0.2002 0.3836 0.9353   0.09338
 H 0.9829 0.3765 0.9887   0.094934
 H 0.8837 0.4851 0.7839   0.109724
 H 0.4566 0.2018 0.9093   0.106342
 H 0.5106 0.8976 0.7699   0.101004
 H 0.5677 0.9897 0.109   0.107204
 H 0.6164 0.7998 0.5647   0.093376
 H 0.6235 0.0171 0.5113   0.094934
 H 0.5149 0.1163 0.7161   0.109724
 C 0.6891 0.5433 0.2069   0.788567
 C 0.1158 0.5148 0.5112   -0.137758
 C 0.0912 0.5658 0.107   -0.140745
 C 0.2384 0.554 0.0711   0.790216
 C 0.8272 0.5596 0.1728   -0.174673
 C 0.2406 0.529 0.5233   0.776148
 C 0.1206 0.4742 0.4459   -0.053602
 C 0.9223 0.5315 0.2177   -0.038954
 C 0.9943 0.5405 0.5651   -0.05791
 C 0.8638 0.595 0.0953   -0.054028
 C 0.9942 0.5984 0.0634   -0.037493
 C 0.0529 0.5341 0.1855   -0.056583
 C 0.4567 0.3109 0.2931   0.788567
 C 0.4852 0.8842 0.9888   -0.137758
 C 0.4342 0.9088 0.393   -0.140746
 C 0.446 0.7616 0.4289   0.790217
 C 0.4404 0.1728 0.3272   -0.174671
 C 0.471 0.7594 0.9767   0.776148
 C 0.5258 0.8794 0.0541   -0.053603
 C 0.4685 0.0777 0.2823   -0.038955
 C 0.4595 0.0057 0.9349   -0.05791
 C 0.405 0.1362 0.4047   -0.054027
 C 0.4016 0.0058 0.4366   -0.037492
 C 0.4659 0.9471 0.3145   -0.056583
 C 0.3109 0.4567 0.7931   0.788567
 C 0.8842 0.4852 0.4888   -0.137759
 C 0.9088 0.4342 0.893   -0.140745
 C 0.7616 0.446 0.9289   0.790216
 C 0.1728 0.4404 0.8272   -0.174673
 C 0.7594 0.471 0.4767   0.776148
 C 0.8794 0.5258 0.5541   -0.053599
 C 0.0777 0.4685 0.7823   -0.038954
 C 0.0057 0.4595 0.4349   -0.057907
 C 0.1362 0.405 0.9047   -0.054028
 C 0.0058 0.4016 0.9366   -0.037493
 C 0.9471 0.4659 0.8145   -0.056583
 C 0.5433 0.6891 0.7069   0.788567
 C 0.5148 0.1158 0.0112   -0.137759
 C 0.5658 0.0912 0.607   -0.140746
 C 0.554 0.2384 0.5711   0.790217
 C 0.5596 0.8272 0.6728   -0.174671
 C 0.529 0.2406 0.0233   0.776148
 C 0.4742 0.1206 0.9459   -0.0536
 C 0.5315 0.9223 0.7177   -0.038955
 C 0.5405 0.9943 0.0651   -0.057907
 C 0.595 0.8638 0.5953   -0.054027
 C 0.5984 0.9942 0.5634   -0.037491
 C 0.5341 0.0529 0.6855   -0.056583
 O 0.6605 0.5151 0.27707   -0.707753
 O 0.6119 0.5597 0.16298   -0.729794
 O 0.3519 0.4967 0.476   -0.751939
 O 0.3266 0.5086 0.1127   -0.680719
 O 0.2285 0.5719 0.5814   -0.696974
 O 0.2611 0.5913 0.000680000000003   -0.740882
 O 0.4849 0.3395 0.22293   -0.707753
 O 0.4403 0.3881 0.33702   -0.729794
 O 0.5033 0.6481 0.024   -0.751939
 O 0.4914 0.6734 0.3873   -0.68072
 O 0.4281 0.7715 0.9186   -0.696974
 O 0.4087 0.7389 0.49932   -0.740881
 O 0.3395 0.4849 0.72293   -0.707753
 O 0.3881 0.4403 0.83702   -0.729794
 O 0.6481 0.5033 0.524   -0.751939
 O 0.6734 0.4914 0.8873   -0.680719
 O 0.7715 0.4281 0.4186   -0.696974
 O 0.7389 0.4087 0.99932   -0.740882
 O 0.5151 0.6605 0.77707   -0.707753
 O 0.5597 0.6119 0.66298   -0.729794
 O 0.4967 0.3519 0.976   -0.751939
 O 0.5086 0.3266 0.6127   -0.68072
 O 0.5719 0.2285 0.0814   -0.696974
 O 0.5913 0.2611 0.50068   -0.740881
