{'_ref': 'TBD', '_srcid': 'CAKYAQ_clean', 'submitters': [{'name': 'Dalar Nazarian Jeff Camp and David Sholl', 'email': 'dalar@gatech.edu jcamp6@gatech.edu'}], '_method': 'VASP DFT with PBE;DDEC'}
data_YH6(C2O)6
_symmetry_space_group_name_H-M   'P 1'
_cell_length_a   10.04629971
_cell_length_b   10.42649987
_cell_length_c   12.73850000
_cell_angle_alpha   109.09500248
_cell_angle_beta   95.26200040
_cell_angle_gamma   118.27499846
_symmetry_Int_Tables_number   1
_chemical_formula_structural   YH6(C2O)6
_chemical_formula_sum   'Y2 H12 C24 O12'
_cell_volume   1060.5628381
_cell_formula_units_Z   2
loop_
 _symmetry_equiv_pos_site_id
 _symmetry_equiv_pos_as_xyz
  1  'x, y, z'
loop_
 _atom_site_label
 _atom_site_fract_x
 _atom_site_fract_y
 _atom_site_fract_z
 _atom_site_charge
 Y 0.52661 0.9781 0.69776   2.035596
 Y 0.47339 0.0219 0.30224   2.035596
 H 0.9313 0.8674 0.8011   0.104784
 H 0.8713 0.1213 0.0826   0.111399
 H 0.695 0.5491 0.9081   0.10567
 H 0.3197 0.2405 0.9722   0.085438
 H 0.9414 0.0623 0.6744   0.107596
 H 0.8553 0.9828 0.3376   0.107345
 H 0.0687 0.1326 0.1989   0.104783
 H 0.1287 0.8787 0.9174   0.111397
 H 0.305 0.4509 0.0919   0.105669
 H 0.6803 0.7595 0.0278   0.085438
 H 0.0586 0.9377 0.3256   0.107596
 H 0.1447 0.0172 0.6624   0.107345
 C 0.88 0.9926 0.9297   -0.106141
 C 0.9587 0.921 0.8815   -0.058739
 C 0.9229 0.072 0.0489   -0.048085
 C 0.7508 0.9841 0.8525   0.690956
 C 0.5094 0.3729 0.9277   -0.11345
 C 0.6163 0.5289 0.945   -0.06129
 C 0.3925 0.3448 0.9832   -0.056493
 C 0.5153 0.2338 0.8478   0.686499
 C 0.8775 0.0277 0.5074   -0.164952
 C 0.965 0.0374 0.6044   -0.035193
 C 0.9133 0.9899 0.4028   -0.043636
 C 0.7412 0.0517 0.5138   0.807846
 C 0.12 0.0074 0.0703   -0.106145
 C 0.0413 0.079 0.1185   -0.058729
 C 0.0771 0.928 0.9511   -0.048074
 C 0.2492 0.0159 0.1475   0.690957
 C 0.4906 0.6271 0.0723   -0.11345
 C 0.3837 0.4711 0.055   -0.061289
 C 0.6075 0.6552 0.0168   -0.056492
 C 0.4847 0.7662 0.1522   0.6865
 C 0.1225 0.9723 0.4926   -0.164954
 C 0.035 0.9626 0.3956   -0.035188
 C 0.0867 0.0101 0.5972   -0.04363
 C 0.2588 0.9483 0.4862   0.807846
 O 0.696 0.8875 0.7467   -0.73161
 O 0.7002 0.073 0.8912   -0.644714
 O 0.6156 0.2602 0.7911   -0.646957
 O 0.4214 0.0954 0.838   -0.663395
 O 0.7125 0.085 0.6098   -0.70692
 O 0.663 0.0326 0.4221   -0.761567
 O 0.304 0.1125 0.2533   -0.73161
 O 0.2998 0.927 0.1088   -0.644714
 O 0.3844 0.7398 0.2089   -0.646957
 O 0.5786 0.9046 0.162   -0.663395
 O 0.2875 0.915 0.3902   -0.70692
 O 0.337 0.9674 0.5779   -0.761567
