{'_ref': 'TBD', '_srcid': 'CAKYAQ_clean', 'submitters': [{'name': 'Dalar Nazarian Jeff Camp and David Sholl', 'email': 'dalar@gatech.edu jcamp6@gatech.edu'}], '_method': 'VASP DFT with PBE;DDEC'}
data_YH6(C2O)6
_symmetry_space_group_name_H-M   'P 1'
_cell_length_a   10.01489964
_cell_length_b   10.18720010
_cell_length_c   11.83470000
_cell_angle_alpha   67.76999862
_cell_angle_beta   72.89499800
_cell_angle_gamma   64.32799741
_symmetry_Int_Tables_number   1
_chemical_formula_structural   YH6(C2O)6
_chemical_formula_sum   'Y2 H12 C24 O12'
_cell_volume   995.001977048
_cell_formula_units_Z   2
loop_
 _symmetry_equiv_pos_site_id
 _symmetry_equiv_pos_as_xyz
  1  'x, y, z'
loop_
 _atom_site_label
 _atom_site_fract_x
 _atom_site_fract_y
 _atom_site_fract_z
 _atom_site_charge
 Y 0.95287 0.23054 0.80247   2.03011
 Y 0.04713 0.76946 0.19753   2.030108
 H 0.4406 0.4941 0.7043   0.105992
 H 0.7461 0.4081 0.4111   0.109326
 H 0.321 0.8935 0.5472   0.1052
 H 0.4479 0.2101 0.5613   0.091586
 H 0.6249 0.8572 0.1691   0.105676
 H 0.6239 0.1077 0.8144   0.107222
 H 0.5594 0.5059 0.2957   0.10599
 H 0.2539 0.5919 0.5889   0.109325
 H 0.679 0.1065 0.4528   0.105199
 H 0.5521 0.7899 0.4387   0.091585
 H 0.3751 0.1428 0.8309   0.105676
 H 0.3761 0.8923 0.1856   0.107222
 C 0.614 0.4391 0.5709   -0.105861
 C 0.4652 0.496 0.6217   -0.060935
 C 0.6467 0.4449 0.4476   -0.046269
 C 0.7364 0.3723 0.6466   0.690857
 C 0.3584 0.0643 0.5649   -0.108536
 C 0.3928 0.9367 0.528   -0.061924
 C 0.4684 0.126 0.5365   -0.067345
 C 0.2117 0.1265 0.6412   0.68655
 C 0.6485 0.9804 0.9903   -0.160862
 C 0.5751 0.9148 0.1012   -0.041302
 C 0.5738 0.0646 0.8893   -0.039158
 C 0.8074 0.9648 0.9811   0.808584
 C 0.386 0.5609 0.4291   -0.105865
 C 0.5348 0.504 0.3783   -0.060924
 C 0.3533 0.5551 0.5524   -0.046258
 C 0.2636 0.6277 0.3534   0.690858
 C 0.6416 0.9357 0.4351   -0.108537
 C 0.6072 0.0633 0.472   -0.06192
 C 0.5316 0.874 0.4635   -0.06734
 C 0.7883 0.8735 0.3588   0.68655
 C 0.3515 0.0196 0.0097   -0.160864
 C 0.4249 0.0852 0.8988   -0.041296
 C 0.4262 0.9354 0.1107   -0.039153
 C 0.1926 0.0352 0.0189   0.808585
 O 0.7034 0.3862 0.7534   -0.730804
 O 0.8687 0.3034 0.6057   -0.639516
 O 0.1357 0.0426 0.7001   -0.636904
 O 0.1694 0.2583 0.6494   -0.675368
 O 0.8662 0.0379 0.8814   -0.708818
 O 0.8711 0.8822 0.0731   -0.757517
 O 0.2966 0.6138 0.2466   -0.730804
 O 0.1313 0.6966 0.3943   -0.639516
 O 0.8643 0.9574 0.2999   -0.636904
 O 0.8306 0.7417 0.3506   -0.675368
 O 0.1338 0.9621 0.1186   -0.708818
 O 0.1289 0.1178 0.9269   -0.757517
