{'_ref': 'TBD', '_srcid': 'CAKYAQ_clean', 'submitters': [{'name': 'Dalar Nazarian Jeff Camp and David Sholl', 'email': 'dalar@gatech.edu jcamp6@gatech.edu'}], '_method': 'VASP DFT with PBE;DDEC'}
data_SmH6(C2O)6
_symmetry_space_group_name_H-M   'P 1'
_cell_length_a   9.90979950
_cell_length_b   10.53139956
_cell_length_c   11.06190000
_cell_angle_alpha   77.71099779
_cell_angle_beta   76.63800151
_cell_angle_gamma   66.32000156
_symmetry_Int_Tables_number   1
_chemical_formula_structural   SmH6(C2O)6
_chemical_formula_sum   'Sm2 H12 C24 O12'
_cell_volume   1019.26580236
_cell_formula_units_Z   2
loop_
 _symmetry_equiv_pos_site_id
 _symmetry_equiv_pos_as_xyz
  1  'x, y, z'
loop_
 _atom_site_label
 _atom_site_fract_x
 _atom_site_fract_y
 _atom_site_fract_z
 _atom_site_charge
 Sm 0.94398 0.22639 0.82287   2.196184
 Sm 0.05602 0.77361 0.17713   2.196179
 H 0.6513 0.861 0.1471   0.098506
 H 0.5969 0.117 0.8225   0.108792
 H 0.4382 0.4123 0.7065   0.110285
 H 0.7381 0.5043 0.4265   0.121853
 H 0.3136 0.919 0.5073   0.112625
 H 0.4534 0.1827 0.6078   0.091352
 H 0.3487 0.139 0.8529   0.098507
 H 0.4031 0.883 0.1775   0.108792
 H 0.5618 0.5877 0.2935   0.110286
 H 0.2619 0.4957 0.5735   0.121854
 H 0.6864 0.081 0.4927   0.112625
 H 0.5466 0.8173 0.3922   0.091353
 C 0.6487 0.9872 0.9818   -0.163995
 C 0.5911 0.9168 0.088   -0.042702
 C 0.5581 0.0699 0.894   -0.035515
 C 0.8086 0.9744 0.9648   0.840859
 C 0.6058 0.4486 0.5791   -0.099184
 C 0.463 0.4472 0.6234   -0.067334
 C 0.6431 0.5022 0.4559   -0.056285
 C 0.7203 0.3897 0.6648   0.68321
 C 0.3584 0.0635 0.5661   -0.100734
 C 0.3884 0.9525 0.5038   -0.061969
 C 0.4716 0.1098 0.5639   -0.063941
 C 0.2074 0.1286 0.6443   0.680222
 C 0.3513 0.0128 0.0182   -0.163996
 C 0.4089 0.0832 0.912   -0.042698
 C 0.4419 0.9301 0.106   -0.03551
 C 0.1914 0.0256 0.0352   0.840859
 C 0.3942 0.5514 0.4209   -0.099184
 C 0.537 0.5528 0.3766   -0.067333
 C 0.3569 0.4978 0.5441   -0.056284
 C 0.2797 0.6103 0.3352   0.68321
 C 0.6416 0.9365 0.4339   -0.100735
 C 0.6116 0.0475 0.4962   -0.061967
 C 0.5284 0.8902 0.4361   -0.063938
 C 0.7926 0.8714 0.3557   0.680222
 O 0.8563 0.0442 0.8707   -0.732168
 O 0.8805 0.898 0.0484   -0.832714
 O 0.8531 0.3798 0.6242   -0.679394
 O 0.6812 0.3484 0.7798   -0.76451
 O 0.1729 0.2448 0.6793   -0.677217
 O 0.1195 0.0612 0.675   -0.666232
 O 0.1437 0.9558 0.1293   -0.732168
 O 0.1195 0.102 0.9516   -0.832714
 O 0.1469 0.6202 0.3758   -0.679394
 O 0.3188 0.6516 0.2202   -0.76451
 O 0.8271 0.7552 0.3207   -0.677217
 O 0.8805 0.9388 0.325   -0.666232
