{'_ref': 'TBD', '_srcid': 'CAKYAQ_clean', 'submitters': [{'name': 'Dalar Nazarian Jeff Camp and David Sholl', 'email': 'dalar@gatech.edu jcamp6@gatech.edu'}], '_method': 'VASP DFT with PBE;DDEC'}
data_ErH6(C2O)6
_symmetry_space_group_name_H-M   'P 1'
_cell_length_a   8.57759959
_cell_length_b   10.19499965
_cell_length_c   10.91150000
_cell_angle_alpha   66.67199802
_cell_angle_beta   69.42500083
_cell_angle_gamma   78.11300195
_symmetry_Int_Tables_number   1
_chemical_formula_structural   ErH6(C2O)6
_chemical_formula_sum   'Er2 H12 C24 O12'
_cell_volume   817.821850497
_cell_formula_units_Z   2
loop_
 _symmetry_equiv_pos_site_id
 _symmetry_equiv_pos_as_xyz
  1  'x, y, z'
loop_
 _atom_site_label
 _atom_site_fract_x
 _atom_site_fract_y
 _atom_site_fract_z
 _atom_site_charge
 Er 0.34667 0.56606 0.84658   1.486903
 Er 0.65333 0.43394 0.15342   1.48691
 H 0.795 0.3713 0.515   0.106398
 H 0.9351 0.6586 0.6166   0.085679
 H 0.2887 0.1784 0.0221   0.099334
 H 0.7644 0.028 0.995   0.119786
 H 0.8533 0.8764 0.7263   0.09186
 H 0.2858 0.9492 0.4184   0.118684
 H 0.205 0.6287 0.485   0.106394
 H 0.0649 0.3414 0.3834   0.085676
 H 0.7113 0.8216 0.9779   0.099336
 H 0.2356 0.972 0.005   0.1198
 H 0.1467 0.1236 0.2737   0.091859
 H 0.7142 0.0508 0.5816   0.118681
 C 0.6622 0.5401 0.667   0.62917
 C 0.8375 0.5182 0.581   -0.09699
 C 0.8771 0.4224 0.5091   -0.060574
 C 0.9622 0.5945 0.5695   -0.048758
 C 0.5639 0.2557 0.0203   0.71788
 C 0.5301 0.124 0.0074   -0.089416
 C 0.374 0.1069 0.0126   -0.059436
 C 0.6587 0.0171 0.9964   -0.049783
 C 0.1717 0.78 0.6843   0.638633
 C 0.0824 0.8941 0.59   -0.113395
 C 0.9132 0.9263 0.6348   -0.046549
 C 0.1712 0.9693 0.4518   -0.038926
 C 0.3378 0.4599 0.333   0.629172
 C 0.1625 0.4818 0.419   -0.097002
 C 0.1229 0.5776 0.4909   -0.060542
 C 0.0378 0.4055 0.4305   -0.048726
 C 0.4361 0.7443 0.9797   0.71788
 C 0.4699 0.876 0.9926   -0.089418
 C 0.626 0.8931 0.9874   -0.059428
 C 0.3413 0.9829 0.0036   -0.049779
 C 0.8283 0.22 0.3157   0.638634
 C 0.9176 0.1059 0.41   -0.113397
 C 0.0868 0.0737 0.3652   -0.046544
 C 0.8288 0.0307 0.5482   -0.038922
 O 0.6316 0.6192 0.7396   -0.533875
 O 0.5471 0.4801 0.6697   -0.527428
 O 0.4798 0.3705 0.9763   -0.669189
 O 0.6686 0.2451 0.0794   -0.597571
 O 0.3269 0.7503 0.6364   -0.55865
 O 0.0908 0.711 0.809   -0.603827
 O 0.3684 0.3808 0.2604   -0.533876
 O 0.4529 0.5199 0.3303   -0.527429
 O 0.5202 0.6295 0.0237   -0.66919
 O 0.3314 0.7549 0.9206   -0.59757
 O 0.6731 0.2497 0.3636   -0.558651
 O 0.9092 0.289 0.191   -0.603827
