{'_ref': 'TBD', '_srcid': 'CAKYAQ_clean', 'submitters': [{'name': 'Dalar Nazarian Jeff Camp and David Sholl', 'email': 'dalar@gatech.edu jcamp6@gatech.edu'}], '_method': 'VASP DFT with PBE;DDEC'}
data_CdH4(C2O)4
_symmetry_space_group_name_H-M   'P 1'
_cell_length_a   12.44980049
_cell_length_b   13.81569480
_cell_length_c   14.57897565
_cell_angle_alpha   71.09308764
_cell_angle_beta   64.72420221
_cell_angle_gamma   63.21994064
_symmetry_Int_Tables_number   1
_chemical_formula_structural   CdH4(C2O)4
_chemical_formula_sum   'Cd6 H24 C48 O24'
_cell_volume   1997.23858929
_cell_formula_units_Z   6
loop_
 _symmetry_equiv_pos_site_id
 _symmetry_equiv_pos_as_xyz
  1  'x, y, z'
loop_
 _atom_site_label
 _atom_site_fract_x
 _atom_site_fract_y
 _atom_site_fract_z
 _atom_site_charge
 Cd 0.64242 0.95375 0.38997   1.120688
 Cd 0.98614 0.54625 0.11003   1.121595
 Cd 0.35758 0.04625 0.61003   1.120706
 Cd 0.01386 0.45375 0.88997   1.12156
 Cd 0.71735 0.75 0.25   1.299393
 Cd 0.28265 0.25 0.75   1.299453
 H 0.19434 0.69955 0.75993   0.110062
 H 0.30172 0.83675 0.65377   0.105317
 H 0.93949 0.83267 0.05392   0.106297
 H 0.63277 0.57777 0.49319   0.110287
 H 0.52634 0.44025 0.59988   0.119438
 H 0.91391 0.12746 0.12684   0.114041
 H 0.65382 0.80045 0.74007   0.110216
 H 0.79225 0.66325 0.84623   0.10574
 H 0.82607 0.66733 0.44608   0.106204
 H 0.70373 0.92223 0.00681   0.111265
 H 0.56647 0.05975 0.90012   0.119023
 H 0.1682 0.37254 0.37316   0.114287
 H 0.80566 0.30045 0.24007   0.110051
 H 0.6981 0.16322 0.34635   0.105125
 H 0.06016 0.16746 0.94655   0.106276
 H 0.36723 0.42223 0.50681   0.110258
 H 0.47366 0.55975 0.40012   0.119443
 H 0.08621 0.87264 0.87304   0.113806
 H 0.34618 0.19955 0.25993   0.110233
 H 0.20768 0.33678 0.15365   0.1057
 H 0.17393 0.33267 0.55392   0.106184
 H 0.29627 0.07777 0.99319   0.111264
 H 0.43345 0.94029 0.09977   0.118835
 H 0.83188 0.62736 0.62696   0.114246
 C 0.535 0.7964 0.505   0.725213
 C 0.4722 0.7141 0.5687   -0.106102
 C 0.2929 0.6721 0.6995   -0.089797
 C 0.8299 0.9571 0.2049   0.69977
 C 0.9196 0.9782 0.0988   -0.074068
 C 0.3522 0.7474 0.6414   -0.067327
 C 0.2855 0.4827 0.7423   0.702806
 C 0.3539 0.5639 0.6837   -0.066054
 C 0.9667 0.908 0.0296   -0.075999
 C 0.534 0.605 0.5534   -0.068214
 C 0.4754 0.5299 0.6113   -0.08958
 C 0.9527 0.07 0.0696   -0.086388
 C 0.8364 0.7036 0.995   0.726952
 C 0.755 0.7859 0.9313   -0.109372
 C 0.6645 0.8279 0.8005   -0.08619
 C 0.9919 0.5429 0.2951   0.700366
 C 0.9966 0.5218 0.4012   -0.07101
 C 0.741 0.7526 0.8586   -0.069176
 C 0.5105 0.0173 0.7577   0.703098
 C 0.6015 0.9361 0.8163   -0.070777
 C 0.9043 0.592 0.4704   -0.079583
 C 0.6924 0.895 0.9466   -0.067444
 C 0.6166 0.9701 0.8887   -0.087492
 C 0.0923 0.43 0.4304   -0.084918
 C 0.465 0.2036 0.495   0.725248
 C 0.5278 0.2859 0.4313   -0.106337
 C 0.7071 0.3279 0.3005   -0.089833
 C 0.1701 0.0429 0.7951   0.6998
 C 0.0804 0.0218 0.9012   -0.074208
 C 0.6478 0.2526 0.3586   -0.066957
 C 0.7145 0.5173 0.2577   0.702813
 C 0.6461 0.4361 0.3163   -0.066038
 C 0.0333 0.092 0.9704   -0.075758
 C 0.466 0.395 0.4466   -0.068145
 C 0.5246 0.4701 0.3887   -0.089609
 C 0.0473 0.93 0.9304   -0.085642
 C 0.1636 0.2964 0.005   0.726915
 C 0.245 0.2141 0.0687   -0.109469
 C 0.3355 0.1721 0.1995   -0.086148
 C 0.0081 0.4571 0.7049   0.70036
 C 0.0034 0.4782 0.5988   -0.071049
 C 0.259 0.2474 0.1414   -0.069074
 C 0.4895 0.9827 0.2423   0.703118
 C 0.3985 0.0639 0.1837   -0.070815
 C 0.0957 0.408 0.5296   -0.079645
 C 0.3076 0.105 0.0534   -0.067625
 C 0.3834 0.0299 0.1113   -0.087083
 C 0.9077 0.57 0.5696   -0.084939
 O 0.49221 0.88728 0.5337   -0.634472
 O 0.63058 0.77314 0.4251   -0.66896
 O 0.1813 0.5147 0.8119   -0.634175
 O 0.8029 0.873 0.2326   -0.672068
 O 0.3408 0.3891 0.7151   -0.648321
 O 0.7814 0.0258 0.2628   -0.582746
 O 0.91319 0.61272 0.9663   -0.634998
 O 0.82882 0.72686 0.0749   -0.669142
 O 0.5079 0.9853 0.6881   -0.632404
 O 0.9085 0.627 0.2674   -0.675037
 O 0.445 0.1109 0.7849   -0.648912
 O 0.07 0.4742 0.2372   -0.581562
 O 0.50779 0.11272 0.4663   -0.634474
 O 0.36942 0.22686 0.5749   -0.668963
 O 0.8187 0.4853 0.1881   -0.634189
 O 0.1971 0.127 0.7674   -0.672055
 O 0.6592 0.6109 0.2849   -0.648302
 O 0.2186 0.9742 0.7372   -0.582796
 O 0.08681 0.38728 0.0337   -0.634983
 O 0.17118 0.27314 0.9251   -0.669154
 O 0.4921 0.0147 0.3119   -0.632419
 O 0.0915 0.373 0.7326   -0.675
 O 0.555 0.8891 0.2151   -0.648918
 O 0.93 0.5258 0.7628   -0.581537
