{'_ref': 'TBD', '_srcid': 'CAKYAQ_clean', 'submitters': [{'name': 'Dalar Nazarian Jeff Camp and David Sholl', 'email': 'dalar@gatech.edu jcamp6@gatech.edu'}], '_method': 'VASP DFT with PBE;DDEC'}
data_TiH4C4NO8
_symmetry_space_group_name_H-M   'P 1'
_cell_length_a   8.93100000
_cell_length_b   8.93100010
_cell_length_c   10.89300000
_cell_angle_alpha   90.00000000
_cell_angle_beta   90.00000000
_cell_angle_gamma   119.99999962
_symmetry_Int_Tables_number   1
_chemical_formula_structural   TiH4C4NO8
_chemical_formula_sum   'Ti3 H12 C12 N3 O24'
_cell_volume   752.451168108
_cell_formula_units_Z   3
loop_
 _symmetry_equiv_pos_site_id
 _symmetry_equiv_pos_as_xyz
  1  'x, y, z'
loop_
 _atom_site_label
 _atom_site_fract_x
 _atom_site_fract_y
 _atom_site_fract_z
 _atom_site_charge
 Ti 0.0 0.5 0.16667   1.596827
 Ti 0.5 0.0 0.83333   1.596827
 Ti 0.5 0.5 0.5   1.59716
 H 0.89386 0.91389 0.88361   0.416015
 H 0.10614 0.08611 0.88361   0.416015
 H 0.97997 0.08611 0.78306   0.416027
 H 0.02003 0.91389 0.78306   0.416028
 H 0.02003 0.10614 0.55028   0.416059
 H 0.97997 0.89386 0.55028   0.416059
 H 0.10614 0.02003 0.44972   0.416057
 H 0.89386 0.97997 0.44972   0.416057
 H 0.08611 0.97997 0.21694   0.416029
 H 0.91389 0.02003 0.21694   0.416029
 H 0.91389 0.89386 0.11639   0.416014
 H 0.08611 0.10614 0.11639   0.416014
 C 0.30837 0.61674 0.33333   0.53476
 C 0.21025 0.4205 0.33333   0.536382
 C 0.30837 0.69163 0.0   0.534632
 C 0.21025 0.78975 0.0   0.536389
 C 0.38326 0.69163 0.66667   0.534757
 C 0.5795 0.78975 0.66667   0.536382
 C 0.69163 0.38326 0.33333   0.53476
 C 0.78975 0.5795 0.33333   0.536382
 C 0.69163 0.30837 0.0   0.534632
 C 0.78975 0.21025 0.0   0.536389
 C 0.61674 0.30837 0.66667   0.534757
 C 0.4205 0.21025 0.66667   0.536382
 N 0.0 0.0 0.83333   -0.783401
 N 0.0 0.0 0.5   -0.783549
 N 0.0 0.0 0.16667   -0.783401
 O 0.23713 0.68651 0.27615   -0.566899
 O 0.07538 0.34811 0.27009   -0.588016
 O 0.44938 0.76287 0.94282   -0.566883
 O 0.27273 0.92462 0.93676   -0.588002
 O 0.31349 0.55062 0.60948   -0.567035
 O 0.65189 0.72727 0.60342   -0.588036
 O 0.76287 0.31349 0.27615   -0.566898
 O 0.92462 0.65189 0.27009   -0.588015
 O 0.55062 0.23713 0.94282   -0.566882
 O 0.72727 0.07538 0.93676   -0.588001
 O 0.68651 0.44938 0.60948   -0.567034
 O 0.34811 0.27273 0.60342   -0.588035
 O 0.55062 0.31349 0.39052   -0.567036
 O 0.72727 0.65189 0.39658   -0.588035
 O 0.68651 0.23713 0.72385   -0.566899
 O 0.34811 0.07538 0.72991   -0.588015
 O 0.76287 0.44938 0.05718   -0.566883
 O 0.92462 0.27273 0.06324   -0.588002
 O 0.44938 0.68651 0.39052   -0.567035
 O 0.27273 0.34811 0.39658   -0.588034
 O 0.31349 0.76287 0.72385   -0.566898
 O 0.65189 0.92462 0.72991   -0.588014
 O 0.23713 0.55062 0.05718   -0.566882
 O 0.07538 0.72727 0.06324   -0.588001
