{'_ref': 'TBD', '_srcid': 'CAKYAQ_clean', 'submitters': [{'name': 'Dalar Nazarian Jeff Camp and David Sholl', 'email': 'dalar@gatech.edu jcamp6@gatech.edu'}], '_method': 'VASP DFT with PBE;DDEC'}
data_TiH4C4NO8
_symmetry_space_group_name_H-M   'P 1'
_cell_length_a   8.93900000
_cell_length_b   8.93899993
_cell_length_c   10.89300000
_cell_angle_alpha   90.00000000
_cell_angle_beta   90.00000000
_cell_angle_gamma   120.00000027
_symmetry_Int_Tables_number   1
_chemical_formula_structural   TiH4C4NO8
_chemical_formula_sum   'Ti3 H12 C12 N3 O24'
_cell_volume   753.79977789
_cell_formula_units_Z   3
loop_
 _symmetry_equiv_pos_site_id
 _symmetry_equiv_pos_as_xyz
  1  'x, y, z'
loop_
 _atom_site_label
 _atom_site_fract_x
 _atom_site_fract_y
 _atom_site_fract_z
 _atom_site_charge
 Ti 0.0 0.5 0.16667   1.597054
 Ti 0.5 0.0 0.83333   1.597054
 Ti 0.5 0.5 0.5   1.597186
 H 0.89568 0.91131 0.88379   0.418846
 H 0.10432 0.08869 0.88379   0.418846
 H 0.98437 0.08869 0.78288   0.418812
 H 0.01563 0.91131 0.78288   0.418812
 H 0.01563 0.10432 0.55046   0.418847
 H 0.98437 0.89568 0.55046   0.418847
 H 0.10432 0.01563 0.44954   0.418845
 H 0.89568 0.98437 0.44954   0.418845
 H 0.08869 0.98437 0.21712   0.418814
 H 0.91131 0.01563 0.21712   0.418814
 H 0.91131 0.89568 0.11621   0.418844
 H 0.08869 0.10432 0.11621   0.418844
 C 0.30825 0.6165 0.33333   0.536984
 C 0.21049 0.42098 0.33333   0.539443
 C 0.30825 0.69175 0.0   0.536955
 C 0.21049 0.78951 0.0   0.539527
 C 0.3835 0.69175 0.66667   0.536981
 C 0.57902 0.78951 0.66667   0.539444
 C 0.69175 0.3835 0.33333   0.536984
 C 0.78951 0.57902 0.33333   0.539443
 C 0.69175 0.30825 0.0   0.536954
 C 0.78951 0.21049 0.0   0.539527
 C 0.6165 0.30825 0.66667   0.53698
 C 0.42098 0.21049 0.66667   0.539444
 N 0.0 0.0 0.83333   -0.791749
 N 0.0 0.0 0.5   -0.791823
 N 0.0 0.0 0.16667   -0.791749
 O 0.23704 0.68604 0.27635   -0.568689
 O 0.07611 0.3486 0.27013   -0.58968
 O 0.449 0.76296 0.94302   -0.568674
 O 0.27249 0.92389 0.9368   -0.589724
 O 0.31396 0.551 0.60968   -0.568704
 O 0.6514 0.72751 0.60346   -0.589695
 O 0.76296 0.31396 0.27635   -0.568688
 O 0.92389 0.6514 0.27013   -0.589679
 O 0.551 0.23704 0.94302   -0.568673
 O 0.72751 0.07611 0.9368   -0.589723
 O 0.68604 0.449 0.60968   -0.568704
 O 0.3486 0.27249 0.60346   -0.589694
 O 0.551 0.31396 0.39032   -0.568705
 O 0.72751 0.6514 0.39654   -0.589695
 O 0.68604 0.23704 0.72365   -0.568689
 O 0.3486 0.07611 0.72987   -0.589679
 O 0.76296 0.449 0.05698   -0.568675
 O 0.92389 0.27249 0.0632   -0.589723
 O 0.449 0.68604 0.39032   -0.568704
 O 0.27249 0.3486 0.39654   -0.589694
 O 0.31396 0.76296 0.72365   -0.568688
 O 0.6514 0.92389 0.72987   -0.589678
 O 0.23704 0.551 0.05698   -0.568674
 O 0.07611 0.72751 0.0632   -0.589722
