{'_ref': 'TBD', '_srcid': 'CAKYAQ_clean', 'submitters': [{'name': 'Dalar Nazarian Jeff Camp and David Sholl', 'email': 'dalar@gatech.edu jcamp6@gatech.edu'}], '_method': 'VASP DFT with PBE;DDEC'}
data_Cu2H8C5(IN)2
_symmetry_space_group_name_H-M   'P 1'
_cell_length_a   7.51770000
_cell_length_b   18.12000000
_cell_length_c   18.11999973
_cell_angle_alpha   120.00000050
_cell_angle_beta   90.00000000
_cell_angle_gamma   90.00000000
_symmetry_Int_Tables_number   1
_chemical_formula_structural   Cu2H8C5(IN)2
_chemical_formula_sum   'Cu12 H48 C30 I12 N12'
_cell_volume   2137.62736488
_cell_formula_units_Z   6
loop_
 _symmetry_equiv_pos_site_id
 _symmetry_equiv_pos_as_xyz
  1  'x, y, z'
loop_
 _atom_site_label
 _atom_site_fract_x
 _atom_site_fract_y
 _atom_site_fract_z
 _atom_site_charge
 Cu 0.96138 0.47942 0.41915   0.167806
 Cu 0.294713 0.06027 0.47942   0.167986
 Cu 0.628047 0.58085 0.06027   0.168012
 Cu 0.96138 0.52058 0.58085   0.167805
 Cu 0.294713 0.93973 0.52058   0.167985
 Cu 0.628047 0.41915 0.93973   0.168011
 Cu 0.705287 0.58085 0.52058   0.167977
 Cu 0.03862 0.06027 0.58085   0.167831
 Cu 0.371953 0.47942 0.06027   0.16801
 Cu 0.705287 0.41915 0.47942   0.167976
 Cu 0.03862 0.93973 0.41915   0.16783
 Cu 0.371953 0.52058 0.93973   0.168009
 H 0.1201 0.329 0.2679   0.122153
 H 0.453433 0.0611 0.329   0.121738
 H 0.786767 0.7321 0.0611   0.121905
 H 0.1201 0.671 0.7321   0.122153
 H 0.453433 0.9389 0.671   0.121738
 H 0.786767 0.2679 0.9389   0.121904
 H 0.546567 0.7321 0.671   0.121805
 H 0.8799 0.0611 0.7321   0.122216
 H 0.213233 0.329 0.0611   0.121992
 H 0.546567 0.2679 0.329   0.121805
 H 0.8799 0.9389 0.2679   0.122216
 H 0.213233 0.671 0.9389   0.121992
 H 0.9608 0.3601 0.2361   0.151203
 H 0.294133 0.124 0.3601   0.151092
 H 0.627467 0.7639 0.124   0.151461
 H 0.9608 0.6399 0.7639   0.151203
 H 0.294133 0.876 0.6399   0.151092
 H 0.627467 0.2361 0.876   0.151461
 H 0.705867 0.7639 0.6399   0.151117
 H 0.0392 0.124 0.7639   0.151238
 H 0.372533 0.3601 0.124   0.151512
 H 0.705867 0.2361 0.3601   0.151117
 H 0.0392 0.876 0.2361   0.151238
 H 0.372533 0.6399 0.876   0.151512
 H 0.1099 0.573 0.3415   0.072197
 H 0.443233 0.2315 0.573   0.072296
 H 0.776567 0.6585 0.2315   0.072495
 H 0.1099 0.427 0.6585   0.072197
 H 0.443233 0.7685 0.427   0.072296
 H 0.776567 0.3415 0.7685   0.072495
 H 0.556767 0.6585 0.427   0.072299
 H 0.8901 0.2315 0.6585   0.072211
 H 0.223433 0.573 0.2315   0.0725
 H 0.556767 0.3415 0.573   0.072299
 H 0.8901 0.7685 0.3415   0.072211
 H 0.223433 0.427 0.7685   0.0725
 H 0.9839 0.5131 0.2671   0.046562
 H 0.317233 0.246 0.5131   0.046674
 H 0.650567 0.7329 0.246   0.046245
 H 0.9839 0.4869 0.7329   0.046562
 H 0.317233 0.754 0.4869   0.046674
 H 0.650567 0.2671 0.754   0.046245
 H 0.682767 0.7329 0.4869   0.046662
 H 0.0161 0.246 0.7329   0.046553
 H 0.349433 0.5131 0.246   0.046238
 H 0.682767 0.2671 0.5131   0.046662
 H 0.0161 0.754 0.2671   0.046553
 H 0.349433 0.4869 0.754   0.046238
 C 0.0882 0.366 0.2457   -0.041619
 C 0.421533 0.1203 0.366   -0.040874
 C 0.754867 0.7543 0.1203   -0.04196
 C 0.0882 0.634 0.7543   -0.041618
 C 0.421533 0.8797 0.634   -0.040874
 C 0.754867 0.2457 0.8797   -0.041959
 C 0.578467 0.7543 0.634   -0.040858
 C 0.9118 0.1203 0.7543   -0.041625
 C 0.245133 0.366 0.1203   -0.042067
 C 0.578467 0.2457 0.366   -0.040858
 C 0.9118 0.8797 0.2457   -0.041626
 C 0.245133 0.634 0.8797   -0.042066
 C 0.1667 0.3308 0.1654   -0.08635
 C 0.500033 0.1654 0.3308   -0.08683
 C 0.833367 0.8346 0.1654   -0.086393
 C 0.1667 0.6692 0.8346   -0.086358
 C 0.500033 0.8346 0.6692   -0.086831
 C 0.833367 0.1654 0.8346   -0.0864
 C 0.1024 0.5177 0.2901   0.029528
 C 0.435733 0.2276 0.5177   0.029112
 C 0.769067 0.7099 0.2276   0.029355
 C 0.1024 0.4823 0.7099   0.029528
 C 0.435733 0.7724 0.4823   0.029112
 C 0.769067 0.2901 0.7724   0.029355
 C 0.564267 0.7099 0.4823   0.029123
 C 0.8976 0.2276 0.7099   0.029556
 C 0.230933 0.5177 0.2276   0.029375
 C 0.564267 0.2901 0.5177   0.029122
 C 0.8976 0.7724 0.2901   0.029556
 C 0.230933 0.4823 0.7724   0.029375
 I 0.62261 0.46006 0.35963   -0.159005
 I 0.955943 0.10043 0.46006   -0.159016
 I 0.289277 0.64037 0.10043   -0.15913
 I 0.62261 0.53994 0.64037   -0.159005
 I 0.955943 0.89957 0.53994   -0.159016
 I 0.289277 0.35963 0.89957   -0.159129
 I 0.044057 0.64037 0.53994   -0.158999
 I 0.37739 0.10043 0.64037   -0.159019
 I 0.710723 0.46006 0.10043   -0.159124
 I 0.044057 0.35963 0.46006   -0.158999
 I 0.37739 0.89957 0.35963   -0.159019
 I 0.710723 0.53994 0.89957   -0.159124
 N 0.1179 0.4534 0.3152   -0.345548
 N 0.451233 0.1382 0.4534   -0.345564
 N 0.784567 0.6848 0.1382   -0.345374
 N 0.1179 0.5466 0.6848   -0.345548
 N 0.451233 0.8618 0.5466   -0.345564
 N 0.784567 0.3152 0.8618   -0.345374
 N 0.548767 0.6848 0.5466   -0.34563
 N 0.8821 0.1382 0.6848   -0.345631
 N 0.215433 0.4534 0.1382   -0.34541
 N 0.548767 0.3152 0.4534   -0.34563
 N 0.8821 0.8618 0.3152   -0.345631
 N 0.215433 0.5466 0.8618   -0.34541
