{'_ref': 'TBD', '_srcid': 'CAKYAQ_clean', 'submitters': [{'name': 'Dalar Nazarian Jeff Camp and David Sholl', 'email': 'dalar@gatech.edu jcamp6@gatech.edu'}], '_method': 'VASP DFT with PBE;DDEC'}
data_CuH3(C2O)4
_symmetry_space_group_name_H-M   'P 1'
_cell_length_a   13.48069966
_cell_length_b   13.48070003
_cell_length_c   13.48070000
_cell_angle_alpha   86.55349809
_cell_angle_beta   86.55349799
_cell_angle_gamma   86.55350190
_symmetry_Int_Tables_number   1
_chemical_formula_structural   CuH3(C2O)4
_chemical_formula_sum   'Cu6 H18 C48 O24'
_cell_volume   2437.05610455
_cell_formula_units_Z   6
loop_
 _symmetry_equiv_pos_site_id
 _symmetry_equiv_pos_as_xyz
  1  'x, y, z'
loop_
 _atom_site_label
 _atom_site_fract_x
 _atom_site_fract_y
 _atom_site_fract_z
 _atom_site_charge
 Cu 0.01975 0.59171 0.01975   0.898763
 Cu 0.01975 0.01975 0.59171   0.898762
 Cu 0.59171 0.01975 0.01975   0.898761
 Cu 0.40829 0.98025 0.98025   0.898762
 Cu 0.98025 0.98025 0.40829   0.898761
 Cu 0.98025 0.40829 0.98025   0.89876
 H 0.9999 0.4415 0.6598   0.111038
 H 0.6598 0.9999 0.4415   0.111038
 H 0.4415 0.6598 0.9999   0.111038
 H 0.5585 0.000100000000003 0.3402   0.111039
 H 0.000100000000003 0.3402 0.5585   0.111039
 H 0.3402 0.5585 0.000100000000003   0.111039
 H 0.000100000000003 0.5585 0.3402   0.111038
 H 0.3402 0.000100000000003 0.5585   0.111038
 H 0.5585 0.3402 0.000100000000003   0.111038
 H 0.4415 0.9999 0.6598   0.111039
 H 0.9999 0.6598 0.4415   0.111039
 H 0.6598 0.4415 0.9999   0.111039
 H 0.0158 0.7278 0.7278   0.118094
 H 0.7278 0.0158 0.7278   0.118094
 H 0.7278 0.7278 0.0158   0.118094
 H 0.2722 0.9842 0.2722   0.118094
 H 0.9842 0.2722 0.2722   0.118094
 H 0.2722 0.2722 0.9842   0.118094
 C 0.00734 0.54835 0.81755   0.680899
 C 0.00222 0.50996 0.63906   -0.04764
 C 0.00717 0.57969 0.70955   -0.13005
 C 0.81755 0.00734 0.54835   0.680899
 C 0.63906 0.00222 0.50996   -0.04764
 C 0.70955 0.00717 0.57969   -0.130049
 C 0.54835 0.81755 0.00734   0.680899
 C 0.50996 0.63906 0.00222   -0.04764
 C 0.57969 0.70955 0.00717   -0.13005
 C 0.45165 0.99266 0.18245   0.680899
 C 0.49004 0.99778 0.36094   -0.04764
 C 0.42031 0.99283 0.29045   -0.13005
 C 0.99266 0.18245 0.45165   0.680899
 C 0.99778 0.36094 0.49004   -0.047641
 C 0.99283 0.29045 0.42031   -0.130049
 C 0.18245 0.45165 0.99266   0.680899
 C 0.36094 0.49004 0.99778   -0.047641
 C 0.29045 0.42031 0.99283   -0.130049
 C 0.99266 0.45165 0.18245   0.680899
 C 0.99778 0.49004 0.36094   -0.04764
 C 0.99283 0.42031 0.29045   -0.13005
 C 0.18245 0.99266 0.45165   0.680899
 C 0.36094 0.99778 0.49004   -0.047641
 C 0.29045 0.99283 0.42031   -0.130049
 C 0.45165 0.18245 0.99266   0.680899
 C 0.49004 0.36094 0.99778   -0.04764
 C 0.42031 0.29045 0.99283   -0.13005
 C 0.54835 0.00734 0.81755   0.680899
 C 0.50996 0.00222 0.63906   -0.04764
 C 0.57969 0.00717 0.70955   -0.13005
 C 0.00734 0.81755 0.54835   0.680899
 C 0.00222 0.63906 0.50996   -0.047641
 C 0.00717 0.70955 0.57969   -0.130049
 C 0.81755 0.54835 0.00734   0.680899
 C 0.63906 0.50996 0.00222   -0.047641
 C 0.70955 0.57969 0.00717   -0.130049
 C 0.00056 0.53856 0.53856   0.006358
 C 0.01088 0.67983 0.67983   -0.004953
 C 0.53856 0.00056 0.53856   0.006358
 C 0.67983 0.01088 0.67983   -0.004953
 C 0.53856 0.53856 0.00056   0.006358
 C 0.67983 0.67983 0.01088   -0.004953
 C 0.46144 0.99944 0.46144   0.006358
 C 0.32017 0.98912 0.32017   -0.004953
 C 0.99944 0.46144 0.46144   0.006358
 C 0.98912 0.32017 0.32017   -0.004953
 C 0.46144 0.46144 0.99944   0.006358
 C 0.32017 0.32017 0.98912   -0.004953
 O 0.02302 0.61402 0.87579   -0.560613
 O 0.9901 0.45935 0.8415   -0.562765
 O 0.87579 0.02302 0.61402   -0.560613
 O 0.8415 0.9901 0.45935   -0.562765
 O 0.61402 0.87579 0.02302   -0.560613
 O 0.45935 0.8415 0.9901   -0.562765
 O 0.38598 0.97698 0.12421   -0.560613
 O 0.54065 0.0099 0.1585   -0.562765
 O 0.97698 0.12421 0.38598   -0.560613
 O 0.0099 0.1585 0.54065   -0.562765
 O 0.12421 0.38598 0.97698   -0.560613
 O 0.1585 0.54065 0.0099   -0.562765
 O 0.97698 0.38598 0.12421   -0.560613
 O 0.0099 0.54065 0.1585   -0.562765
 O 0.12421 0.97698 0.38598   -0.560613
 O 0.1585 0.0099 0.54065   -0.562765
 O 0.38598 0.12421 0.97698   -0.560613
 O 0.54065 0.1585 0.0099   -0.562765
 O 0.61402 0.02302 0.87579   -0.560613
 O 0.45935 0.9901 0.8415   -0.562765
 O 0.02302 0.87579 0.61402   -0.560613
 O 0.9901 0.8415 0.45935   -0.562765
 O 0.87579 0.61402 0.02302   -0.560613
 O 0.8415 0.45935 0.9901   -0.562765
