{'_ref': 'TBD', '_srcid': 'CAKYAQ_clean', 'submitters': [{'name': 'Dalar Nazarian Jeff Camp and David Sholl', 'email': 'dalar@gatech.edu jcamp6@gatech.edu'}], '_method': 'VASP DFT with PBE;DDEC'}
data_YH3(C3O2)3
_symmetry_space_group_name_H-M   'P 1'
_cell_length_a   10.29000000
_cell_length_b   10.29000000
_cell_length_c   14.50000000
_cell_angle_alpha   90.00000000
_cell_angle_beta   90.00000000
_cell_angle_gamma   90.00000000
_symmetry_Int_Tables_number   1
_chemical_formula_structural   YH3(C3O2)3
_chemical_formula_sum   'Y4 H12 C36 O24'
_cell_volume   1535.31945
_cell_formula_units_Z   4
loop_
 _symmetry_equiv_pos_site_id
 _symmetry_equiv_pos_as_xyz
  1  'x, y, z'
loop_
 _atom_site_label
 _atom_site_fract_x
 _atom_site_fract_y
 _atom_site_fract_z
 _atom_site_charge
 Y 0.85085 0.14915 0.625   2.138577
 Y 0.14915 0.85085 0.125   2.138577
 Y 0.85085 0.85085 0.875   2.138578
 Y 0.14915 0.14915 0.375   2.138578
 H 0.5585 0.0762 0.3768   0.105711
 H 0.4415 0.9238 0.8768   0.105711
 H 0.9238 0.5585 0.6268   0.105711
 H 0.0762 0.4415 0.1268   0.105711
 H 0.4415 0.0762 0.6232   0.105711
 H 0.5585 0.9238 0.1232   0.105711
 H 0.0762 0.5585 0.3732   0.105711
 H 0.9238 0.4415 0.8732   0.105711
 H 0.8997 0.0 0.25   0.081565
 H 0.1003 0.0 0.75   0.081565
 H 0.0 0.8997 0.5   0.081565
 H 0.0 0.1003 0.0   0.081565
 C 0.6046 0.0449 0.3263   0.0433
 C 0.7392 0.0432 0.3276   -0.1953
 C 0.8162 0.0885 0.4098   0.796965
 C 0.3954 0.9551 0.8263   0.0433
 C 0.2608 0.9568 0.8276   -0.1953
 C 0.1838 0.9115 0.9098   0.796965
 C 0.9551 0.6046 0.5763   0.043299
 C 0.9568 0.7392 0.5776   -0.1953
 C 0.9115 0.8162 0.6598   0.796965
 C 0.0449 0.3954 0.0763   0.043299
 C 0.0432 0.2608 0.0776   -0.1953
 C 0.0885 0.1838 0.1598   0.796965
 C 0.3954 0.0449 0.6737   0.043299
 C 0.2608 0.0432 0.6724   -0.1953
 C 0.1838 0.0885 0.5902   0.796965
 C 0.6046 0.9551 0.1737   0.043299
 C 0.7392 0.9568 0.1724   -0.1953
 C 0.8162 0.9115 0.0902   0.796965
 C 0.0449 0.6046 0.4237   0.043299
 C 0.0432 0.7392 0.4224   -0.1953
 C 0.0885 0.8162 0.3402   0.796965
 C 0.9551 0.3954 0.9237   0.043299
 C 0.9568 0.2608 0.9224   -0.1953
 C 0.9115 0.1838 0.8402   0.796965
 C 0.5398 0.0 0.25   -0.198898
 C 0.3911 0.0 0.25   0.822922
 C 0.8093 0.0 0.25   0.04065
 C 0.4602 0.0 0.75   -0.198898
 C 0.6089 0.0 0.75   0.822922
 C 0.1907 0.0 0.75   0.04065
 C 0.0 0.5398 0.5   -0.198898
 C 0.0 0.3911 0.5   0.822922
 C 0.0 0.8093 0.5   0.04065
 C 0.0 0.4602 0.0   -0.198898
 C 0.0 0.6089 0.0   0.822922
 C 0.0 0.1907 0.0   0.04065
 O 0.7585 0.0955 0.4864   -0.726326
 O 0.3362 0.0725 0.3076   -0.733108
 O 0.9335 0.1127 0.3997   -0.733649
 O 0.2415 0.9045 0.9864   -0.726326
 O 0.6638 0.9275 0.8076   -0.733108
 O 0.0665 0.8873 0.8997   -0.733649
 O 0.9045 0.7585 0.7364   -0.726326
 O 0.9275 0.3362 0.5576   -0.733108
 O 0.8873 0.9335 0.6497   -0.733649
 O 0.0955 0.2415 0.2364   -0.726326
 O 0.0725 0.6638 0.0576   -0.733108
 O 0.1127 0.0665 0.1497   -0.733649
 O 0.2415 0.0955 0.5136   -0.726326
 O 0.6638 0.0725 0.6924   -0.733108
 O 0.0665 0.1127 0.6003   -0.733649
 O 0.7585 0.9045 0.0136   -0.726326
 O 0.3362 0.9275 0.1924   -0.733108
 O 0.9335 0.8873 0.1003   -0.733649
 O 0.0955 0.7585 0.2636   -0.726326
 O 0.0725 0.3362 0.4424   -0.733108
 O 0.1127 0.9335 0.3503   -0.733649
 O 0.9045 0.2415 0.7636   -0.726326
 O 0.9275 0.6638 0.9424   -0.733108
 O 0.8873 0.0665 0.8503   -0.733649
