{'_ref': 'TBD', '_srcid': 'CAKYAQ_clean', 'submitters': [{'name': 'Dalar Nazarian Jeff Camp and David Sholl', 'email': 'dalar@gatech.edu jcamp6@gatech.edu'}], '_method': 'VASP DFT with PBE;DDEC'}
data_DyH3(C3O2)3
_symmetry_space_group_name_H-M   'P 1'
_cell_length_a   10.32000000
_cell_length_b   10.32000000
_cell_length_c   14.50000000
_cell_angle_alpha   90.00000000
_cell_angle_beta   90.00000000
_cell_angle_gamma   90.00000000
_symmetry_Int_Tables_number   1
_chemical_formula_structural   DyH3(C3O2)3
_chemical_formula_sum   'Dy4 H12 C36 O24'
_cell_volume   1544.2848
_cell_formula_units_Z   4
loop_
 _symmetry_equiv_pos_site_id
 _symmetry_equiv_pos_as_xyz
  1  'x, y, z'
loop_
 _atom_site_label
 _atom_site_fract_x
 _atom_site_fract_y
 _atom_site_fract_z
 _atom_site_charge
 Dy 0.85213 0.85213 0.875   2.379052
 Dy 0.14787 0.14787 0.375   2.379052
 Dy 0.14787 0.85213 0.125   2.379052
 Dy 0.85213 0.14787 0.625   2.379052
 H 0.9285 0.4411 0.8711   0.109126
 H 0.0715 0.5589 0.3711   0.109126
 H 0.5589 0.9285 0.1211   0.109126
 H 0.4411 0.0715 0.6211   0.109126
 H 0.0715 0.4411 0.1289   0.109126
 H 0.9285 0.5589 0.6289   0.109126
 H 0.4411 0.9285 0.8789   0.109126
 H 0.5589 0.0715 0.3789   0.109126
 H 0.0 0.1029 0.0   0.078547
 H 0.0 0.8971 0.5   0.078547
 H 0.8971 0.0 0.25   0.078547
 H 0.1029 0.0 0.75   0.078547
 C 0.9569 0.3958 0.9227   0.042388
 C 0.9564 0.2609 0.9229   -0.200443
 C 0.913 0.1854 0.8389   0.840015
 C 0.0431 0.6042 0.4227   0.042388
 C 0.0436 0.7391 0.4229   -0.200443
 C 0.087 0.8146 0.3389   0.840015
 C 0.6042 0.9569 0.1727   0.042388
 C 0.7391 0.9564 0.1729   -0.200443
 C 0.8146 0.913 0.0889   0.840015
 C 0.3958 0.0431 0.6727   0.042388
 C 0.2609 0.0436 0.6729   -0.200443
 C 0.1854 0.087 0.5889   0.840015
 C 0.0431 0.3958 0.0773   0.042388
 C 0.0436 0.2609 0.0771   -0.200443
 C 0.087 0.1854 0.1611   0.840015
 C 0.9569 0.6042 0.5773   0.042388
 C 0.9564 0.7391 0.5771   -0.200443
 C 0.913 0.8146 0.6611   0.840015
 C 0.3958 0.9569 0.8273   0.042387
 C 0.2609 0.9564 0.8271   -0.200443
 C 0.1854 0.913 0.9111   0.840015
 C 0.6042 0.0431 0.3273   0.042387
 C 0.7391 0.0436 0.3271   -0.200443
 C 0.8146 0.087 0.4111   0.840015
 C 0.0 0.4627 0.0   -0.209075
 C 0.0 0.6104 0.0   0.875714
 C 0.0 0.193 0.0   0.048304
 C 0.0 0.5373 0.5   -0.209075
 C 0.0 0.3896 0.5   0.875714
 C 0.0 0.807 0.5   0.048304
 C 0.5373 0.0 0.25   -0.209075
 C 0.3896 0.0 0.25   0.875714
 C 0.807 0.0 0.25   0.048304
 C 0.4627 0.0 0.75   -0.209075
 C 0.6104 0.0 0.75   0.875714
 C 0.193 0.0 0.75   0.048304
 O 0.9048 0.2436 0.7643   -0.774688
 O 0.9291 0.6636 0.9416   -0.798698
 O 0.8904 0.0693 0.8486   -0.803971
 O 0.0952 0.7564 0.2643   -0.774688
 O 0.0709 0.3364 0.4416   -0.798698
 O 0.1096 0.9307 0.3486   -0.803971
 O 0.7564 0.9048 0.0143   -0.774688
 O 0.3364 0.9291 0.1916   -0.798698
 O 0.9307 0.8904 0.0986   -0.803971
 O 0.2436 0.0952 0.5143   -0.774688
 O 0.6636 0.0709 0.6916   -0.798698
 O 0.0693 0.1096 0.5986   -0.803971
 O 0.0952 0.2436 0.2357   -0.774688
 O 0.0709 0.6636 0.0584   -0.798698
 O 0.1096 0.0693 0.1514   -0.803971
 O 0.9048 0.7564 0.7357   -0.774688
 O 0.9291 0.3364 0.5584   -0.798698
 O 0.8904 0.9307 0.6514   -0.803971
 O 0.2436 0.9048 0.9857   -0.774688
 O 0.6636 0.9291 0.8084   -0.798698
 O 0.0693 0.8904 0.9014   -0.803971
 O 0.7564 0.0952 0.4857   -0.774688
 O 0.3364 0.0709 0.3084   -0.798698
 O 0.9307 0.1096 0.4014   -0.803971
