{'_ref': 'TBD', '_srcid': 'CAKYAQ_clean', 'submitters': [{'name': 'Dalar Nazarian Jeff Camp and David Sholl', 'email': 'dalar@gatech.edu jcamp6@gatech.edu'}], '_method': 'VASP DFT with PBE;DDEC'}
data_ErH3(C3O2)3
_symmetry_space_group_name_H-M   'P 1'
_cell_length_a   10.27000000
_cell_length_b   10.27000000
_cell_length_c   14.46000000
_cell_angle_alpha   90.00000000
_cell_angle_beta   90.00000000
_cell_angle_gamma   90.00000000
_symmetry_Int_Tables_number   1
_chemical_formula_structural   ErH3(C3O2)3
_chemical_formula_sum   'Er4 H12 C36 O24'
_cell_volume   1525.138134
_cell_formula_units_Z   4
loop_
 _symmetry_equiv_pos_site_id
 _symmetry_equiv_pos_as_xyz
  1  'x, y, z'
loop_
 _atom_site_label
 _atom_site_fract_x
 _atom_site_fract_y
 _atom_site_fract_z
 _atom_site_charge
 Er 0.35133 0.64867 0.875   1.536443
 Er 0.64867 0.35133 0.375   1.536443
 Er 0.35133 0.35133 0.625   1.536444
 Er 0.64867 0.64867 0.125   1.536444
 H 0.4249 0.0592 0.8716   0.111476
 H 0.5751 0.9408 0.3716   0.111476
 H 0.9408 0.4249 0.6216   0.111476
 H 0.0592 0.5751 0.1216   0.111476
 H 0.5751 0.0592 0.1284   0.111476
 H 0.4249 0.9408 0.6284   0.111476
 H 0.0592 0.4249 0.3784   0.111476
 H 0.9408 0.5751 0.8784   0.111476
 H 0.5 0.3992 0.0   0.086341
 H 0.5 0.6008 0.5   0.086341
 H 0.6008 0.5 0.75   0.086341
 H 0.3992 0.5 0.25   0.086341
 C 0.4122 0.3166 0.8393   0.722663
 C 0.4554 0.1046 0.9228   0.031633
 C 0.4568 0.24 0.9227   -0.16846
 C 0.5878 0.6834 0.3393   0.722663
 C 0.5446 0.8954 0.4228   0.031633
 C 0.5432 0.76 0.4227   -0.16846
 C 0.6834 0.4122 0.5893   0.722663
 C 0.8954 0.4554 0.6728   0.031632
 C 0.76 0.4568 0.6727   -0.16846
 C 0.3166 0.5878 0.0893   0.722663
 C 0.1046 0.5446 0.1728   0.031632
 C 0.24 0.5432 0.1727   -0.16846
 C 0.5878 0.3166 0.1607   0.722663
 C 0.5446 0.1046 0.0772   0.031632
 C 0.5432 0.24 0.0773   -0.16846
 C 0.4122 0.6834 0.6607   0.722663
 C 0.4554 0.8954 0.5772   0.031632
 C 0.4568 0.76 0.5773   -0.16846
 C 0.3166 0.4122 0.4107   0.722663
 C 0.1046 0.4554 0.3272   0.031632
 C 0.24 0.4568 0.3273   -0.16846
 C 0.6834 0.5878 0.9107   0.722663
 C 0.8954 0.5446 0.8272   0.031632
 C 0.76 0.5432 0.8273   -0.16846
 C 0.5 0.8897 0.0   0.745316
 C 0.5 0.0374 0.0   -0.164456
 C 0.5 0.3087 0.0   0.03434
 C 0.5 0.1103 0.5   0.745316
 C 0.5 0.9626 0.5   -0.164456
 C 0.5 0.6913 0.5   0.03434
 C 0.1103 0.5 0.75   0.745316
 C 0.9626 0.5 0.75   -0.164456
 C 0.6913 0.5 0.75   0.03434
 C 0.8897 0.5 0.25   0.745316
 C 0.0374 0.5 0.25   -0.164456
 C 0.3087 0.5 0.25   0.03434
 O 0.4277 0.8361 0.942   -0.608205
 O 0.3886 0.4331 0.8499   -0.596167
 O 0.4041 0.2583 0.7633   -0.611932
 O 0.5723 0.1639 0.442   -0.608205
 O 0.6114 0.5669 0.3499   -0.596167
 O 0.5959 0.7417 0.2633   -0.611932
 O 0.1639 0.4277 0.692   -0.608205
 O 0.5669 0.3886 0.5999   -0.596167
 O 0.7417 0.4041 0.5133   -0.611932
 O 0.8361 0.5723 0.192   -0.608205
 O 0.4331 0.6114 0.0999   -0.596167
 O 0.2583 0.5959 0.0133   -0.611932
 O 0.5723 0.8361 0.058   -0.608205
 O 0.6114 0.4331 0.1501   -0.596167
 O 0.5959 0.2583 0.2367   -0.611932
 O 0.4277 0.1639 0.558   -0.608205
 O 0.3886 0.5669 0.6501   -0.596167
 O 0.4041 0.7417 0.7367   -0.611932
 O 0.8361 0.4277 0.308   -0.608205
 O 0.4331 0.3886 0.4001   -0.596167
 O 0.2583 0.4041 0.4867   -0.611932
 O 0.1639 0.5723 0.808   -0.608205
 O 0.5669 0.6114 0.9001   -0.596167
 O 0.7417 0.5959 0.9867   -0.611932
