{'_ref': 'TBD', '_srcid': 'CAKYAQ_clean', 'submitters': [{'name': 'Dalar Nazarian Jeff Camp and David Sholl', 'email': 'dalar@gatech.edu jcamp6@gatech.edu'}], '_method': 'VASP DFT with PBE;DDEC'}
data_DyH3(C3O2)3
_symmetry_space_group_name_H-M   'P 1'
_cell_length_a   10.30870000
_cell_length_b   10.30870000
_cell_length_c   13.96700000
_cell_angle_alpha   90.00000000
_cell_angle_beta   90.00000000
_cell_angle_gamma   90.00000000
_symmetry_Int_Tables_number   1
_chemical_formula_structural   DyH3(C3O2)3
_chemical_formula_sum   'Dy4 H12 C36 O24'
_cell_volume   1484.2632529
_cell_formula_units_Z   4
loop_
 _symmetry_equiv_pos_site_id
 _symmetry_equiv_pos_as_xyz
  1  'x, y, z'
loop_
 _atom_site_label
 _atom_site_fract_x
 _atom_site_fract_y
 _atom_site_fract_z
 _atom_site_charge
 Dy 0.62549 0.62549 0.875   2.367442
 Dy 0.37451 0.37451 0.375   2.367442
 Dy 0.37451 0.62549 0.125   2.367442
 Dy 0.62549 0.37451 0.625   2.367442
 H 0.5644 0.961 0.6365   0.116338
 H 0.4356 0.039 0.1365   0.116338
 H 0.039 0.5644 0.8865   0.116338
 H 0.961 0.4356 0.3865   0.116338
 H 0.4356 0.961 0.3635   0.116338
 H 0.5644 0.039 0.8635   0.116338
 H 0.961 0.5644 0.1135   0.116338
 H 0.039 0.4356 0.6135   0.116338
 H 0.5 0.6245 0.5   0.069677
 H 0.5 0.3755 0.0   0.069677
 H 0.3755 0.5 0.75   0.069677
 H 0.6245 0.5 0.25   0.069677
 C 0.574 0.7067 0.6712   0.813421
 C 0.5368 0.7804 0.5813   -0.193367
 C 0.5383 0.916 0.5821   0.037289
 C 0.426 0.2933 0.1712   0.813421
 C 0.4632 0.2196 0.0813   -0.193367
 C 0.4617 0.084 0.0821   0.037289
 C 0.2933 0.574 0.9212   0.813421
 C 0.2196 0.5368 0.8313   -0.193367
 C 0.084 0.5383 0.8321   0.037289
 C 0.7067 0.426 0.4212   0.813421
 C 0.7804 0.4632 0.3313   -0.193367
 C 0.916 0.4617 0.3321   0.037289
 C 0.426 0.7067 0.3288   0.813421
 C 0.4632 0.7804 0.4187   -0.193367
 C 0.4617 0.916 0.4179   0.037289
 C 0.574 0.2933 0.8288   0.813421
 C 0.5368 0.2196 0.9187   -0.193367
 C 0.5383 0.084 0.9179   0.037289
 C 0.7067 0.574 0.0788   0.813421
 C 0.7804 0.5368 0.1687   -0.193367
 C 0.916 0.5383 0.1679   0.037288
 C 0.2933 0.426 0.5788   0.813421
 C 0.2196 0.4632 0.6687   -0.193367
 C 0.084 0.4617 0.6679   0.037288
 C 0.5 0.9827 0.5   -0.182368
 C 0.5 0.7147 0.5   0.054569
 C 0.5 0.1283 0.5   0.832133
 C 0.5 0.0173 0.0   -0.182368
 C 0.5 0.2853 0.0   0.054569
 C 0.5 0.8717 0.0   0.832133
 C 0.0173 0.5 0.75   -0.182368
 C 0.2853 0.5 0.75   0.054569
 C 0.8717 0.5 0.75   0.832133
 C 0.9827 0.5 0.25   -0.182368
 C 0.7147 0.5 0.25   0.054569
 C 0.1283 0.5 0.25   0.832133
 O 0.5818 0.7624 0.7482   -0.707313
 O 0.5826 0.1844 0.5529   -0.772672
 O 0.5912 0.586 0.6649   -0.864422
 O 0.4182 0.2376 0.2482   -0.707313
 O 0.4174 0.8156 0.0529   -0.772672
 O 0.4088 0.414 0.1649   -0.864422
 O 0.2376 0.5818 0.9982   -0.707313
 O 0.8156 0.5826 0.8029   -0.772672
 O 0.414 0.5912 0.9149   -0.864422
 O 0.7624 0.4182 0.4982   -0.707313
 O 0.1844 0.4174 0.3029   -0.772672
 O 0.586 0.4088 0.4149   -0.864422
 O 0.4182 0.7624 0.2518   -0.707313
 O 0.4174 0.1844 0.4471   -0.772672
 O 0.4088 0.586 0.3351   -0.864422
 O 0.5818 0.2376 0.7518   -0.707313
 O 0.5826 0.8156 0.9471   -0.772672
 O 0.5912 0.414 0.8351   -0.864422
 O 0.7624 0.5818 0.0018   -0.707313
 O 0.1844 0.5826 0.1971   -0.772672
 O 0.586 0.5912 0.0851   -0.864422
 O 0.2376 0.4182 0.5018   -0.707313
 O 0.8156 0.4174 0.6971   -0.772672
 O 0.414 0.4088 0.5851   -0.864422
