{'_ref': 'TBD', '_srcid': 'CAKYAQ_clean', 'submitters': [{'name': 'Dalar Nazarian Jeff Camp and David Sholl', 'email': 'dalar@gatech.edu jcamp6@gatech.edu'}], '_method': 'VASP DFT with PBE;DDEC'}
data_Zn4H12C24O13
_symmetry_space_group_name_H-M   'P 1'
_cell_length_a   18.30630013
_cell_length_b   18.30629982
_cell_length_c   18.30630000
_cell_angle_alpha   59.99999967
_cell_angle_beta   60.00000024
_cell_angle_gamma   59.99999855
_symmetry_Int_Tables_number   1
_chemical_formula_structural   Zn4H12C24O13
_chemical_formula_sum   'Zn8 H24 C48 O26'
_cell_volume   4337.97177049
_cell_formula_units_Z   2
loop_
 _symmetry_equiv_pos_site_id
 _symmetry_equiv_pos_as_xyz
  1  'x, y, z'
loop_
 _atom_site_label
 _atom_site_fract_x
 _atom_site_fract_y
 _atom_site_fract_z
 _atom_site_charge
 Zn 0.20664 0.38006 0.20665   1.118561
 Zn 0.38005 0.20665 0.20665   1.118538
 Zn 0.20664 0.20665 0.20665   1.118561
 Zn 0.20664 0.20665 0.38006   1.118561
 Zn 0.61995 0.79335 0.79335   1.118538
 Zn 0.79336 0.61994 0.79335   1.118561
 Zn 0.79336 0.79335 0.79335   1.118561
 Zn 0.79336 0.79335 0.61994   1.118561
 H 0.0452 0.5656 0.0452   0.115141
 H 0.5656 0.0452 0.344   0.115138
 H 0.0452 0.344 0.0452   0.115141
 H 0.344 0.0452 0.5656   0.115135
 H 0.0452 0.0452 0.344   0.115141
 H 0.5656 0.344 0.0452   0.115138
 H 0.0452 0.0452 0.5656   0.115141
 H 0.344 0.5656 0.0452   0.115134
 H 0.0452 0.344 0.5656   0.11514
 H 0.5656 0.0452 0.0452   0.115137
 H 0.0452 0.5656 0.344   0.11514
 H 0.344 0.0452 0.0452   0.115134
 H 0.4344 0.9548 0.9548   0.115137
 H 0.9548 0.4344 0.656   0.115139
 H 0.656 0.9548 0.9548   0.115133
 H 0.9548 0.656 0.4344   0.115139
 H 0.9548 0.9548 0.656   0.115139
 H 0.656 0.4344 0.9548   0.115133
 H 0.9548 0.9548 0.4344   0.115139
 H 0.4344 0.656 0.9548   0.115136
 H 0.656 0.9548 0.4344   0.115132
 H 0.9548 0.4344 0.9548   0.115139
 H 0.4344 0.9548 0.656   0.115136
 H 0.9548 0.656 0.9548   0.115139
 C 0.02683 0.53905 0.02683   -0.059672
 C 0.53905 0.02683 0.40729   -0.059679
 C 0.02683 0.40729 0.02683   -0.059673
 C 0.40729 0.02683 0.53905   -0.05968
 C 0.02683 0.02683 0.40729   -0.059673
 C 0.53905 0.40729 0.02683   -0.059679
 C 0.02683 0.02683 0.53905   -0.059673
 C 0.40729 0.53905 0.02683   -0.059681
 C 0.02683 0.40729 0.53905   -0.059672
 C 0.53905 0.02683 0.02683   -0.059679
 C 0.02683 0.53905 0.40729   -0.059673
 C 0.40729 0.02683 0.02683   -0.059681
 C 0.46095 0.97317 0.97317   -0.059681
 C 0.97317 0.46095 0.59271   -0.059674
 C 0.59271 0.97317 0.97317   -0.059683
 C 0.97317 0.59271 0.46095   -0.059675
 C 0.97317 0.97317 0.59271   -0.059675
 C 0.59271 0.46095 0.97317   -0.059683
 C 0.97317 0.97317 0.46095   -0.059675
 C 0.46095 0.59271 0.97317   -0.059681
 C 0.59271 0.97317 0.46095   -0.059683
 C 0.97317 0.46095 0.97317   -0.059675
 C 0.46095 0.97317 0.59271   -0.059681
 C 0.97317 0.59271 0.97317   -0.059675
 C 0.11144 0.38856 0.11144   0.712092
 C 0.05381 0.44619 0.05381   -0.124927
 C 0.38856 0.11144 0.38856   0.712057
 C 0.44619 0.05381 0.44619   -0.124917
 C 0.11144 0.11144 0.38856   0.712092
 C 0.05381 0.05381 0.44619   -0.124927
 C 0.38856 0.38856 0.11144   0.712057
 C 0.44619 0.44619 0.05381   -0.124917
 C 0.11144 0.38856 0.38856   0.712092
 C 0.05381 0.44619 0.44619   -0.124926
 C 0.38856 0.11144 0.11144   0.712057
 C 0.44619 0.05381 0.05381   -0.124918
 C 0.61144 0.88856 0.88856   0.712056
 C 0.55381 0.94619 0.94619   -0.124917
 C 0.88856 0.61144 0.61144   0.712091
 C 0.94619 0.55381 0.55381   -0.124926
 C 0.88856 0.88856 0.61144   0.712092
 C 0.94619 0.94619 0.55381   -0.124926
 C 0.61144 0.61144 0.88856   0.712057
 C 0.55381 0.55381 0.94619   -0.124917
 C 0.61144 0.88856 0.61144   0.712057
 C 0.55381 0.94619 0.55381   -0.124917
 C 0.88856 0.61144 0.88856   0.712092
 C 0.94619 0.55381 0.94619   -0.124926
 O 0.25 0.25 0.25   -1.274927
 O 0.75 0.75 0.75   -1.274927
 O 0.13368 0.42768 0.13368   -0.615661
 O 0.42768 0.13368 0.30496   -0.615624
 O 0.13368 0.30496 0.13368   -0.615661
 O 0.30496 0.13368 0.42768   -0.615632
 O 0.13368 0.13368 0.30496   -0.615661
 O 0.42768 0.30496 0.13368   -0.615624
 O 0.13368 0.13368 0.42768   -0.615662
 O 0.30496 0.42768 0.13368   -0.615632
 O 0.13368 0.30496 0.42768   -0.615661
 O 0.42768 0.13368 0.13368   -0.615624
 O 0.13368 0.42768 0.30496   -0.615661
 O 0.30496 0.13368 0.13368   -0.615632
 O 0.57232 0.86632 0.86632   -0.615624
 O 0.86632 0.57232 0.69504   -0.615661
 O 0.69504 0.86632 0.86632   -0.615632
 O 0.86632 0.69504 0.57232   -0.615661
 O 0.86632 0.86632 0.69504   -0.615661
 O 0.69504 0.57232 0.86632   -0.615632
 O 0.86632 0.86632 0.57232   -0.615662
 O 0.57232 0.69504 0.86632   -0.615624
 O 0.69504 0.86632 0.57232   -0.615632
 O 0.86632 0.57232 0.86632   -0.615661
 O 0.57232 0.86632 0.69504   -0.615624
 O 0.86632 0.69504 0.86632   -0.615661
