{'_ref': 'TBD', '_srcid': 'CAKYAQ_clean', 'submitters': [{'name': 'Dalar Nazarian Jeff Camp and David Sholl', 'email': 'dalar@gatech.edu jcamp6@gatech.edu'}], '_method': 'VASP DFT with PBE;DDEC'}
data_Cu5H24C30(NO2)12
_symmetry_space_group_name_H-M   'P 1'
_cell_length_a   11.58300038
_cell_length_b   11.66499954
_cell_length_c   14.15900000
_cell_angle_alpha   93.93199957
_cell_angle_beta   111.97999876
_cell_angle_gamma   110.01800030
_symmetry_Int_Tables_number   1
_chemical_formula_structural   Cu5H24C30(NO2)12
_chemical_formula_sum   'Cu5 H24 C30 N12 O24'
_cell_volume   1623.83909796
_cell_formula_units_Z   1
loop_
 _symmetry_equiv_pos_site_id
 _symmetry_equiv_pos_as_xyz
  1  'x, y, z'
loop_
 _atom_site_label
 _atom_site_fract_x
 _atom_site_fract_y
 _atom_site_fract_z
 _atom_site_charge
 Cu 0.3912 0.35341 0.35517   0.836238
 Cu 0.36843 0.91268 0.52451   0.922264
 Cu 0.6088 0.64659 0.64483   0.836234
 Cu 0.63157 0.08732 0.47549   0.922263
 Cu 0.5 0.0 0.0   0.788199
 H 0.1104 0.9654 0.3266   0.171142
 H 0.1462 0.1074 0.3761   0.143064
 H 0.2789 0.1808 0.5587   0.162885
 H 0.1741 0.1008 0.6007   0.131687
 H 0.6949 0.6 0.1651   0.168964
 H 0.7914 0.7412 0.2282   0.152115
 H 0.707 0.4349 0.2451   0.161106
 H 0.8061 0.4606 0.3656   0.142071
 H 0.9665 0.5359 0.6214   0.136422
 H 0.0023 0.5852 0.7411   0.165402
 H 0.0873 0.8944 0.7427   0.145078
 H 0.0627 0.7905 0.8088   0.158689
 H 0.8896 0.0346 0.6734   0.171143
 H 0.8538 0.8926 0.6239   0.143064
 H 0.7211 0.8192 0.4413   0.162885
 H 0.8259 0.8992 0.3993   0.131686
 H 0.3051 0.4 0.8349   0.168969
 H 0.2086 0.2588 0.7718   0.152115
 H 0.293 0.5651 0.7549   0.161106
 H 0.1939 0.5394 0.6344   0.14207
 H 0.0335 0.4641 0.3786   0.136421
 H 0.9977 0.4148 0.2589   0.165402
 H 0.9127 0.1056 0.2573   0.145079
 H 0.9373 0.2095 0.1912   0.158689
 C 0.3213 0.0791 0.3837   0.701999
 C 0.1767 0.0377 0.3856   -0.263738
 C 0.2443 0.0996 0.5772   -0.263286
 C 0.3583 0.0926 0.6679   0.691705
 C 0.0885 0.8891 0.4818   0.512792
 C 0.9295 0.6973 0.3997   0.556652
 C 0.7898 0.6566 0.2117   -0.226798
 C 0.8734 0.6622 0.1551   0.538804
 C 0.7469 0.4927 0.314   -0.260052
 C 0.6349 0.488 0.343   0.689914
 C 0.0239 0.7514 0.573   0.558159
 C 0.9604 0.5969 0.6695   -0.253719
 C 0.8129 0.5684 0.6409   0.691354
 C 0.1049 0.8198 0.761   -0.239655
 C 0.2558 0.8591 0.819   0.679654
 C 0.6787 0.9209 0.6163   0.701999
 C 0.8233 0.9623 0.6144   -0.263739
 C 0.7557 0.9004 0.4228   -0.263286
 C 0.6417 0.9074 0.3321   0.691706
 C 0.9115 0.1109 0.5182   0.512792
 C 0.0705 0.3027 0.6003   0.556652
 C 0.2102 0.3434 0.7883   -0.2268
 C 0.1266 0.3378 0.8449   0.538805
 C 0.2531 0.5073 0.686   -0.260052
 C 0.3651 0.512 0.657   0.689914
 C 0.9761 0.2486 0.427   0.558159
 C 0.0396 0.4031 0.3305   -0.253719
 C 0.1871 0.4316 0.3591   0.691354
 C 0.8951 0.1802 0.239   -0.239655
 C 0.7442 0.1409 0.181   0.679654
 N 0.1793 0.0032 0.484   -0.081509
 N 0.0015 0.8093 0.3888   -0.589606
 N 0.8306 0.6139 0.3085   0.004247
 N 0.9382 0.6596 0.4883   -0.575101
 N 0.0372 0.7214 0.6653   -0.001125
 N 0.0969 0.8702 0.5744   -0.599072
 N 0.8207 0.9968 0.516   -0.081509
 N 0.9985 0.1907 0.6112   -0.589606
 N 0.1694 0.3861 0.6915   0.004247
 N 0.0618 0.3404 0.5117   -0.575101
 N 0.9628 0.2786 0.3347   -0.001125
 N 0.9031 0.1298 0.4256   -0.599072
 O 0.3346 0.1402 0.3165   -0.518092
 O 0.4045 0.0419 0.444   -0.623604
 O 0.4222 0.0296 0.652   -0.558621
 O 0.3901 0.1542 0.7539   -0.42827
 O 0.9795 0.624 0.1958   -0.440262
 O 0.8184 0.7009 0.0611   -0.372041
 O 0.6114 0.5845 0.3535   -0.536968
 O 0.5665 0.384 0.3542   -0.571728
 O 0.7797 0.6618 0.6459   -0.618164
 O 0.7311 0.4565 0.6201   -0.501882
 O 0.3191 0.8147 0.7842   -0.525276
 O 0.309 0.9398 0.9042   -0.567933
 O 0.6654 0.8598 0.6835   -0.518092
 O 0.5955 0.9581 0.556   -0.623604
 O 0.5778 0.9704 0.348   -0.558621
 O 0.6099 0.8458 0.2461   -0.428271
 O 0.0205 0.376 0.8042   -0.440264
 O 0.1816 0.2991 0.9389   -0.372041
 O 0.3886 0.4155 0.6465   -0.53697
 O 0.4335 0.616 0.6458   -0.571729
 O 0.2203 0.3382 0.3541   -0.618164
 O 0.2689 0.5435 0.3799   -0.501885
 O 0.6809 0.1853 0.2158   -0.525278
 O 0.691 0.0602 0.0958   -0.567932
