{'_ref': 'TBD', '_srcid': 'CAKYAQ_clean', 'submitters': [{'name': 'Dalar Nazarian Jeff Camp and David Sholl', 'email': 'dalar@gatech.edu jcamp6@gatech.edu'}], '_method': 'VASP DFT with PBE;DDEC'}
data_Zn2H30C41(N2O7)2
_symmetry_space_group_name_H-M   'P 1'
_cell_length_a   9.00560000
_cell_length_b   10.72629998
_cell_length_c   12.98990000
_cell_angle_alpha   104.04699768
_cell_angle_beta   90.00000000
_cell_angle_gamma   90.00000000
_symmetry_Int_Tables_number   1
_chemical_formula_structural   Zn2H30C41(N2O7)2
_chemical_formula_sum   'Zn2 H30 C41 N4 O14'
_cell_volume   1217.26053799
_cell_formula_units_Z   1
loop_
 _symmetry_equiv_pos_site_id
 _symmetry_equiv_pos_as_xyz
  1  'x, y, z'
loop_
 _atom_site_label
 _atom_site_fract_x
 _atom_site_fract_y
 _atom_site_fract_z
 _atom_site_charge
 Zn 0.61926 0.5 0.0   0.859574
 Zn 0.93446 0.0 0.5   0.874827
 H 0.7758 0.1795 0.3868   0.085346
 H 0.6028 0.17 0.2563   0.156319
 H 0.6195 0.7875 0.2013   0.155837
 H 0.7745 0.8101 0.3407   0.077059
 H 0.5117 0.1153 0.0773   0.07047
 H 0.3773 0.1081 0.1534   0.087084
 H 0.3026 0.8216 0.0297   0.083134
 H 0.2003 0.9291 0.0983   0.083077
 H 0.9003 0.8088 0.8439   0.148893
 H 0.7077 0.6808 0.866   0.073346
 H 0.8879 0.619 0.1183   0.072405
 H 0.089 0.7424 0.1021   0.148698
 H 0.3115 0.2957 0.7557   0.096265
 H 0.9924 0.407 0.5831   0.12054
 H 0.2377 0.6676 0.7826   0.101609
 H 0.7758 0.8205 0.6132   0.085405
 H 0.6028 0.83 0.7437   0.156348
 H 0.6195 0.2125 0.7987   0.155832
 H 0.7745 0.1899 0.6593   0.077115
 H 0.5117 0.8847 0.9227   0.070467
 H 0.3773 0.8919 0.8466   0.087062
 H 0.3026 0.1784 0.9703   0.083122
 H 0.2003 0.0709 0.9017   0.083059
 H 0.9003 0.1912 0.1561   0.148878
 H 0.7077 0.3192 0.134   0.073378
 H 0.8879 0.381 0.8817   0.072406
 H 0.089 0.2576 0.8979   0.148695
 H 0.3115 0.7043 0.2443   0.096243
 H 0.9924 0.593 0.4169   0.120615
 H 0.2377 0.3324 0.2174   0.101587
 C 0.7422 0.0993 0.3494   0.230186
 C 0.6408 0.0949 0.2698   -0.341754
 C 0.5963 0.9747 0.2096   0.364017
 C 0.6487 0.8692 0.2384   -0.294687
 C 0.7432 0.8836 0.3209   0.192302
 C 0.4376 0.0589 0.0958   0.053466
 C 0.2433 0.8968 0.0285   0.040926
 C 0.0183 0.7884 0.9697   0.369927
 C 0.9011 0.7696 0.9004   -0.293705
 C 0.7857 0.6932 0.9143   0.194951
 C 0.8914 0.6569 0.0611   0.201862
 C 0.0125 0.7313 0.0525   -0.32107
 C 0.4217 0.5235 0.8567   0.664779
 C 0.2957 0.4876 0.7798   -0.145734
 C 0.2591 0.361 0.7361   0.03805
 C 0.1454 0.3308 0.6637   -0.139375
 C 0.0683 0.4275 0.6329   -0.090458
 C 0.2159 0.5822 0.7509   -0.098962
 C 0.1041 0.1914 0.6168   0.669974
 C 0.1047 0.5549 0.6765   0.293554
 C 0.7422 0.9007 0.6506   0.230185
 C 0.6408 0.9051 0.7302   -0.341759
 C 0.5963 0.0253 0.7904   0.364015
 C 0.6487 0.1308 0.7616   -0.294681
 C 0.7432 0.1164 0.6791   0.192302
 C 0.4376 0.9411 0.9042   0.053472
 C 0.2433 0.1032 0.9715   0.040935
 C 0.0183 0.2116 0.0303   0.369922
 C 0.9011 0.2304 0.0996   -0.293712
 C 0.7857 0.3068 0.0857   0.194941
 C 0.8914 0.3431 0.9389   0.201851
 C 0.0125 0.2687 0.9475   -0.321081
 C 0.4217 0.4765 0.1433   0.664763
 C 0.2957 0.5124 0.2202   -0.145738
 C 0.2591 0.639 0.2639   0.038062
 C 0.1454 0.6692 0.3363   -0.139353
 C 0.0683 0.5725 0.3671   -0.090478
 C 0.2159 0.4178 0.2491   -0.098929
 C 0.1041 0.8086 0.3832   0.669971
 C 0.1047 0.4451 0.3235   0.29359
 C 0.341 0.0 0.0   -0.024958
 N 0.7948 0.9976 0.3762   -0.379727
 N 0.7795 0.6356 0.9938   -0.385021
 N 0.7948 0.0024 0.6238   -0.379721
 N 0.7795 0.3644 0.0062   -0.385017
 O 0.444 0.6351 0.9013   -0.585618
 O 0.5035 0.4332 0.872   -0.607566
 O 0.0139 0.1721 0.5402   -0.604124
 O 0.1535 0.1091 0.6546   -0.578677
 O 0.1289 0.8633 0.9513   -0.238675
 O 0.5062 0.9545 0.1258   -0.230591
 O 0.0294 0.65 0.6473   -0.39312
 O 0.444 0.3649 0.0987   -0.585621
 O 0.5035 0.5668 0.128   -0.607568
 O 0.0139 0.8279 0.4598   -0.604137
 O 0.1535 0.8909 0.3454   -0.578677
 O 0.1289 0.1367 0.0487   -0.238678
 O 0.5062 0.0455 0.8742   -0.230592
 O 0.0294 0.35 0.3527   -0.393133
