{'_ref': 'TBD', '_srcid': 'CAKYAQ_clean', 'submitters': [{'name': 'Dalar Nazarian Jeff Camp and David Sholl', 'email': 'dalar@gatech.edu jcamp6@gatech.edu'}], '_method': 'VASP DFT with PBE;DDEC'}
data_CdH5C9N7
_symmetry_space_group_name_H-M   'P 1'
_cell_length_a   13.16800000
_cell_length_b   15.89100000
_cell_length_c   24.39000000
_cell_angle_alpha   90.00000000
_cell_angle_beta   90.00000000
_cell_angle_gamma   90.00000000
_symmetry_Int_Tables_number   1
_chemical_formula_structural   CdH5C9N7
_chemical_formula_sum   'Cd16 H80 C144 N112'
_cell_volume   5103.67306032
_cell_formula_units_Z   16
loop_
 _symmetry_equiv_pos_site_id
 _symmetry_equiv_pos_as_xyz
  1  'x, y, z'
loop_
 _atom_site_label
 _atom_site_fract_x
 _atom_site_fract_y
 _atom_site_fract_z
 _atom_site_charge
 Cd 0.89816 0.98623 0.72754   0.852781
 Cd 0.78599 0.11054 0.47529   0.858849
 Cd 0.60184 0.48623 0.77246   0.852781
 Cd 0.71401 0.61054 0.02471   0.858849
 Cd 0.89816 0.51377 0.27246   0.852781
 Cd 0.78599 0.38946 0.52471   0.858848
 Cd 0.60184 0.01377 0.22754   0.852781
 Cd 0.71401 0.88946 0.97529   0.858848
 Cd 0.10184 0.01377 0.27246   0.852781
 Cd 0.21401 0.88946 0.52471   0.858849
 Cd 0.39816 0.51377 0.22754   0.852781
 Cd 0.28599 0.38946 0.97529   0.858849
 Cd 0.10184 0.48623 0.72754   0.852781
 Cd 0.21401 0.61054 0.47529   0.858849
 Cd 0.39816 0.98623 0.77246   0.852781
 Cd 0.28599 0.11054 0.02471   0.858849
 H 0.9014 0.7736 0.7533   0.080201
 H 0.6184 0.9981 0.703   0.07473
 H 0.8822 0.8344 0.0747   0.075396
 H 0.888 0.318 0.6454   0.060113
 H 0.0517 0.8335 0.095   0.130226
 H 0.1067 0.914 0.9415   0.126393
 H 0.1682 0.8727 0.0268   0.095527
 H 0.8 0.7687 0.5751   0.126519
 H 0.8612 0.6475 0.7141   0.105232
 H 0.8176 0.643 0.6228   0.098273
 H 0.5986 0.2736 0.7467   0.080201
 H 0.8816 0.4981 0.797   0.07473
 H 0.6178 0.3344 0.4253   0.075396
 H 0.612 0.818 0.8546   0.060113
 H 0.4483 0.3335 0.405   0.130226
 H 0.3933 0.414 0.5585   0.126393
 H 0.3318 0.3727 0.4732   0.095527
 H 0.7 0.2687 0.9249   0.126519
 H 0.6388 0.1475 0.7859   0.105232
 H 0.6824 0.143 0.8772   0.098273
 H 0.9014 0.7264 0.2467   0.0802
 H 0.6184 0.5019 0.297   0.07473
 H 0.8822 0.6656 0.9253   0.075397
 H 0.888 0.182 0.3546   0.060113
 H 0.0517 0.6665 0.905   0.130224
 H 0.1067 0.586 0.0585   0.126393
 H 0.1682 0.6273 0.9732   0.095527
 H 0.8 0.7313 0.4249   0.126519
 H 0.8612 0.8525 0.2859   0.105232
 H 0.8176 0.857 0.3772   0.098273
 H 0.5986 0.2264 0.2533   0.0802
 H 0.8816 0.0019 0.203   0.074731
 H 0.6178 0.1656 0.5747   0.075397
 H 0.612 0.682 0.1454   0.060113
 H 0.4483 0.1665 0.595   0.130224
 H 0.3933 0.086 0.4415   0.126393
 H 0.3318 0.1273 0.5268   0.095527
 H 0.7 0.2313 0.0751   0.126519
 H 0.6388 0.3525 0.2141   0.105232
 H 0.6824 0.357 0.1228   0.098273
 H 0.0986 0.2264 0.2467   0.080201
 H 0.3816 0.0019 0.297   0.07473
 H 0.1178 0.1656 0.9253   0.075396
 H 0.112 0.682 0.3546   0.060113
 H 0.9483 0.1665 0.905   0.130226
 H 0.8933 0.086 0.0585   0.126393
 H 0.8318 0.1273 0.9732   0.095528
 H 0.2 0.2313 0.4249   0.12652
 H 0.1388 0.3525 0.2859   0.105232
 H 0.1824 0.357 0.3772   0.098273
 H 0.4014 0.7264 0.2533   0.080201
 H 0.1184 0.5019 0.203   0.07473
 H 0.3822 0.6656 0.5747   0.075396
 H 0.388 0.182 0.1454   0.060113
 H 0.5517 0.6665 0.595   0.130226
 H 0.6067 0.586 0.4415   0.126393
 H 0.6682 0.6273 0.5268   0.095528
 H 0.3 0.7313 0.0751   0.12652
 H 0.3612 0.8525 0.2141   0.105232
 H 0.3176 0.857 0.1228   0.098273
 H 0.0986 0.2736 0.7533   0.0802
 H 0.3816 0.4981 0.703   0.074731
 H 0.1178 0.3344 0.0747   0.075397
 H 0.112 0.818 0.6454   0.060113
 H 0.9483 0.3335 0.095   0.130224
 H 0.8933 0.414 0.9415   0.126393
 H 0.8318 0.3727 0.0268   0.095528
 H 0.2 0.2687 0.5751   0.12652
 H 0.1388 0.1475 0.7141   0.105232
 H 0.1824 0.143 0.6228   0.098273
 H 0.4014 0.7736 0.7467   0.0802
 H 0.1184 0.9981 0.797   0.074731
 H 0.3822 0.8344 0.4253   0.075397
 H 0.388 0.318 0.8546   0.060113
 H 0.5517 0.8335 0.405   0.130224
 H 0.6067 0.914 0.5585   0.126393
 H 0.6682 0.8727 0.4732   0.095528
 H 0.3 0.7687 0.9249   0.12652
 H 0.3612 0.6475 0.7859   0.105232
 H 0.3176 0.643 0.8772   0.098273
 C 0.8799 0.7727 0.717   0.167431
 C 0.7189 0.9694 0.81219   0.268926
 C 0.846 0.147 0.59982   0.291666
 C 0.8378 0.056 0.59607   0.291121
 C 0.8349 0.9255 0.60978   0.294075
 C 0.8433 0.8432 0.6378   0.186434
 C 0.6358 0.9892 0.7395   0.255699
 C 0.9577 0.8966 0.9602   0.169669
 C 0.8085 0.9532 0.84634   0.282709
 C 0.9135 0.9217 0.90688   0.289849
 C 0.9278 0.8509 0.0477   0.174277
 C 0.8707 0.2711 0.6246   0.287925
 C 0.0296 0.8497 0.0604   -0.185177
 C 0.0624 0.8975 0.9691   -0.156907
 C 0.0988 0.8732 0.0198   0.018871
 C 0.8209 0.7687 0.6115   -0.166885
 C 0.8576 0.6967 0.6936   -0.161904
 C 0.8301 0.6942 0.64   0.020544
 C 0.6201 0.2727 0.783   0.167431
 C 0.7811 0.4694 0.68781   0.268926
 C 0.654 0.647 0.90018   0.291666
 C 0.6622 0.556 0.90393   0.291121
 C 0.6651 0.4255 0.89022   0.294075
 C 0.6567 0.3432 0.8622   0.186434
 C 0.8642 0.4892 0.7605   0.255699
 C 0.5423 0.3966 0.5398   0.169669
 C 0.6915 0.4532 0.65366   0.282709
 C 0.5865 0.4217 0.59312   0.289849
 C 0.5722 0.3509 0.4523   0.174277
 C 0.6293 0.7711 0.8754   0.287925
 C 0.4704 0.3497 0.4396   -0.185177
 C 0.4376 0.3975 0.5309   -0.156907
 C 0.4012 0.3732 0.4802   0.018871
 C 0.6791 0.2687 0.8885   -0.166885
 C 0.6424 0.1967 0.8064   -0.161904
 C 0.6699 0.1942 0.86   0.020544
 C 0.8799 0.7273 0.283   0.167432
 C 0.7189 0.5306 0.18781   0.268926
 C 0.846 0.353 0.40018   0.291666
 C 0.8378 0.444 0.40393   0.291122
 C 0.8349 0.5745 0.39022   0.294075
 C 0.8433 0.6568 0.3622   0.186434
 C 0.6358 0.5108 0.2605   0.255699
 C 0.9577 0.6034 0.0398   0.169669
 C 0.8085 0.5468 0.15366   0.282709
 C 0.9135 0.5783 0.09312   0.289849
 C 0.9278 0.6491 0.9523   0.174277
 C 0.8707 0.2289 0.3754   0.287925
 C 0.0296 0.6503 0.9396   -0.185175
 C 0.0624 0.6025 0.0309   -0.156906
 C 0.0988 0.6268 0.9802   0.018871
 C 0.8209 0.7313 0.3885   -0.166885
 C 0.8576 0.8033 0.3064   -0.161904
 C 0.8301 0.8058 0.36   0.020544
 C 0.6201 0.2273 0.217   0.167432
 C 0.7811 0.0306 0.31219   0.268926
 C 0.654 0.853 0.09982   0.291666
 C 0.6622 0.944 0.09607   0.291122
 C 0.6651 0.0745 0.10978   0.294075
 C 0.6567 0.1568 0.1378   0.186434
 C 0.8642 0.0108 0.2395   0.255699
 C 0.5423 0.1034 0.4602   0.169669
 C 0.6915 0.0468 0.34634   0.282709
 C 0.5865 0.0783 0.40688   0.289849
 C 0.5722 0.1491 0.5477   0.174277
 C 0.6293 0.7289 0.1246   0.287925
 C 0.4704 0.1503 0.5604   -0.185175
 C 0.4376 0.1025 0.4691   -0.156906
 C 0.4012 0.1268 0.5198   0.018871
 C 0.6791 0.2313 0.1115   -0.166885
 C 0.6424 0.3033 0.1936   -0.161904
 C 0.6699 0.3058 0.14   0.020544
 C 0.1201 0.2273 0.283   0.167431
 C 0.2811 0.0306 0.18781   0.268926
 C 0.154 0.853 0.40018   0.291666
 C 0.1622 0.944 0.40393   0.291121
 C 0.1651 0.0745 0.39022   0.294075
 C 0.1567 0.1568 0.3622   0.186433
 C 0.3642 0.0108 0.2605   0.255699
 C 0.0423 0.1034 0.0398   0.169669
 C 0.1915 0.0468 0.15366   0.282709
 C 0.0865 0.0783 0.09312   0.289849
 C 0.0722 0.1491 0.9523   0.174277
 C 0.1293 0.7289 0.3754   0.287924
 C 0.9704 0.1503 0.9396   -0.185176
 C 0.9376 0.1025 0.0309   -0.156907
 C 0.9012 0.1268 0.9802   0.018871
 C 0.1791 0.2313 0.3885   -0.166885
 C 0.1424 0.3033 0.3064   -0.161904
 C 0.1699 0.3058 0.36   0.020544
 C 0.3799 0.7273 0.217   0.167431
 C 0.2189 0.5306 0.31219   0.268926
 C 0.346 0.353 0.09982   0.291666
 C 0.3378 0.444 0.09607   0.291121
 C 0.3349 0.5745 0.10978   0.294075
 C 0.3433 0.6568 0.1378   0.186433
 C 0.1358 0.5108 0.2395   0.255699
 C 0.4577 0.6034 0.4602   0.169669
 C 0.3085 0.5468 0.34634   0.282709
 C 0.4135 0.5783 0.40688   0.289849
 C 0.4278 0.6491 0.5477   0.174277
 C 0.3707 0.2289 0.1246   0.287924
 C 0.5296 0.6503 0.5604   -0.185176
 C 0.5624 0.6025 0.4691   -0.156907
 C 0.5988 0.6268 0.5198   0.018871
 C 0.3209 0.7313 0.1115   -0.166885
 C 0.3576 0.8033 0.1936   -0.161904
 C 0.3301 0.8058 0.14   0.020544
 C 0.1201 0.2727 0.717   0.167432
 C 0.2811 0.4694 0.81219   0.268926
 C 0.154 0.647 0.59982   0.291666
 C 0.1622 0.556 0.59607   0.291122
 C 0.1651 0.4255 0.60978   0.294075
 C 0.1567 0.3432 0.6378   0.186433
 C 0.3642 0.4892 0.7395   0.255699
 C 0.0423 0.3966 0.9602   0.169669
 C 0.1915 0.4532 0.84634   0.282709
 C 0.0865 0.4217 0.90688   0.289849
 C 0.0722 0.3509 0.0477   0.174277
 C 0.1293 0.7711 0.6246   0.287924
 C 0.9704 0.3497 0.0604   -0.185175
 C 0.9376 0.3975 0.9691   -0.156906
 C 0.9012 0.3732 0.0198   0.018871
 C 0.1791 0.2687 0.6115   -0.166885
 C 0.1424 0.1967 0.6936   -0.161904
 C 0.1699 0.1942 0.64   0.020544
 C 0.3799 0.7727 0.783   0.167432
 C 0.2189 0.9694 0.68781   0.268926
 C 0.346 0.147 0.90018   0.291666
 C 0.3378 0.056 0.90393   0.291122
 C 0.3349 0.9255 0.89022   0.294075
 C 0.3433 0.8432 0.8622   0.186433
 C 0.1358 0.9892 0.7605   0.255699
 C 0.4577 0.8966 0.5398   0.169669
 C 0.3085 0.9532 0.65366   0.282709
 C 0.4135 0.9217 0.59312   0.289849
 C 0.4278 0.8509 0.4523   0.174277
 C 0.3707 0.2711 0.8754   0.287924
 C 0.5296 0.8497 0.4396   -0.185175
 C 0.5624 0.8975 0.5309   -0.156906
 C 0.5988 0.8732 0.4802   0.018871
 C 0.3209 0.7687 0.8885   -0.166885
 C 0.3576 0.6967 0.8064   -0.161904
 C 0.3301 0.6942 0.86   0.020544
 N 0.732 0.9819 0.7573   -0.472006
 N 0.81 0.9352 0.55767   -0.324604
 N 0.8116 0.0204 0.54866   -0.271371
 N 0.8529 0.9994 0.63618   -0.444699
 N 0.8722 0.8463 0.69007   -0.351015
 N 0.5676 0.9823 0.77994   -0.24939
 N 0.6221 0.9699 0.82726   -0.327677
 N 0.8997 0.9514 0.82175   -0.27633
 N 0.8398 0.2757 0.57308   -0.28237
 N 0.8126 0.9344 0.89985   -0.473157
 N 0.8261 0.194 0.55662   -0.316197
 N 0.89 0.8744 0.99901   -0.365286
 N 0.9688 0.9313 0.86178   -0.317294
 N 0.8747 0.1915 0.64409   -0.541172
 N 0.768 0.4819 0.7427   -0.472006
 N 0.69 0.4352 0.94233   -0.324604
 N 0.6884 0.5204 0.95134   -0.271371
 N 0.6471 0.4994 0.86382   -0.444699
 N 0.6278 0.3463 0.80993   -0.351015
 N 0.9324 0.4823 0.72006   -0.24939
 N 0.8779 0.4699 0.67274   -0.327677
 N 0.6003 0.4514 0.67825   -0.27633
 N 0.6602 0.7757 0.92692   -0.28237
 N 0.6874 0.4344 0.60015   -0.473157
 N 0.6739 0.694 0.94338   -0.316197
 N 0.61 0.3744 0.50099   -0.365286
 N 0.5312 0.4313 0.63822   -0.317294
 N 0.6253 0.6915 0.85591   -0.541172
 N 0.732 0.5181 0.2427   -0.472006
 N 0.81 0.5648 0.44233   -0.324604
 N 0.8116 0.4796 0.45134   -0.271371
 N 0.8529 0.5006 0.36382   -0.444699
 N 0.8722 0.6537 0.30993   -0.351015
 N 0.5676 0.5177 0.22006   -0.249389
 N 0.6221 0.5301 0.17274   -0.327677
 N 0.8997 0.5486 0.17825   -0.27633
 N 0.8398 0.2243 0.42692   -0.28237
 N 0.8126 0.5656 0.10015   -0.473157
 N 0.8261 0.306 0.44338   -0.316197
 N 0.89 0.6256 0.000990000000002   -0.365286
 N 0.9688 0.5687 0.13822   -0.317294
 N 0.8747 0.3085 0.35591   -0.541172
 N 0.768 0.0181 0.2573   -0.472005
 N 0.69 0.0648 0.05767   -0.324604
 N 0.6884 0.9796 0.04866   -0.271371
 N 0.6471 0.000599999999999 0.13618   -0.444699
 N 0.6278 0.1537 0.19007   -0.351015
 N 0.9324 0.0177 0.27994   -0.249389
 N 0.8779 0.0301 0.32726   -0.327677
 N 0.6003 0.0486 0.32175   -0.27633
 N 0.6602 0.7243 0.07308   -0.28237
 N 0.6874 0.0656 0.39985   -0.473157
 N 0.6739 0.806 0.05662   -0.316197
 N 0.61 0.1256 0.49901   -0.365286
 N 0.5312 0.0687 0.36178   -0.317294
 N 0.6253 0.8085 0.14409   -0.541172
 N 0.268 0.0181 0.2427   -0.472006
 N 0.19 0.0648 0.44233   -0.324604
 N 0.1884 0.9796 0.45134   -0.271371
 N 0.1471 0.000599999999999 0.36382   -0.444699
 N 0.1278 0.1537 0.30993   -0.351015
 N 0.4324 0.0177 0.22006   -0.24939
 N 0.3779 0.0301 0.17274   -0.327676
 N 0.1003 0.0486 0.17825   -0.27633
 N 0.1602 0.7243 0.42692   -0.28237
 N 0.1874 0.0656 0.10015   -0.473157
 N 0.1739 0.806 0.44338   -0.316197
 N 0.11 0.1256 0.000990000000002   -0.365286
 N 0.0312 0.0687 0.13822   -0.317294
 N 0.1253 0.8085 0.35591   -0.541172
 N 0.232 0.5181 0.2573   -0.472006
 N 0.31 0.5648 0.05767   -0.324604
 N 0.3116 0.4796 0.04866   -0.271371
 N 0.3529 0.5006 0.13618   -0.444699
 N 0.3722 0.6537 0.19007   -0.351015
 N 0.0676 0.5177 0.27994   -0.24939
 N 0.1221 0.5301 0.32726   -0.327676
 N 0.3997 0.5486 0.32175   -0.27633
 N 0.3398 0.2243 0.07308   -0.28237
 N 0.3126 0.5656 0.39985   -0.473157
 N 0.3261 0.306 0.05662   -0.316197
 N 0.39 0.6256 0.49901   -0.365286
 N 0.4688 0.5687 0.36178   -0.317294
 N 0.3747 0.3085 0.14409   -0.541172
 N 0.268 0.4819 0.7573   -0.472005
 N 0.19 0.4352 0.55767   -0.324604
 N 0.1884 0.5204 0.54866   -0.271371
 N 0.1471 0.4994 0.63618   -0.444699
 N 0.1278 0.3463 0.69007   -0.351015
 N 0.4324 0.4823 0.77994   -0.249389
 N 0.3779 0.4699 0.82726   -0.327677
 N 0.1003 0.4514 0.82175   -0.27633
 N 0.1602 0.7757 0.57308   -0.28237
 N 0.1874 0.4344 0.89985   -0.473157
 N 0.1739 0.694 0.55662   -0.316197
 N 0.11 0.3744 0.99901   -0.365286
 N 0.0312 0.4313 0.86178   -0.317294
 N 0.1253 0.6915 0.64409   -0.541172
 N 0.232 0.9819 0.7427   -0.472005
 N 0.31 0.9352 0.94233   -0.324604
 N 0.3116 0.0204 0.95134   -0.271371
 N 0.3529 0.9994 0.86382   -0.444699
 N 0.3722 0.8463 0.80993   -0.351015
 N 0.0676 0.9823 0.72006   -0.249389
 N 0.1221 0.9699 0.67274   -0.327676
 N 0.3997 0.9514 0.67825   -0.27633
 N 0.3398 0.2757 0.92692   -0.28237
 N 0.3126 0.9344 0.60015   -0.473157
 N 0.3261 0.194 0.94338   -0.316197
 N 0.39 0.8744 0.50099   -0.365286
 N 0.4688 0.9313 0.63822   -0.317294
 N 0.3747 0.1915 0.85591   -0.541172
