{'_ref': 'TBD', '_srcid': 'CAKYAQ_clean', 'submitters': [{'name': 'Dalar Nazarian Jeff Camp and David Sholl', 'email': 'dalar@gatech.edu jcamp6@gatech.edu'}], '_method': 'VASP DFT with PBE;DDEC'}
data_ZnH4C6N3O2
_symmetry_space_group_name_H-M   'P 1'
_cell_length_a   13.47500000
_cell_length_b   13.50900007
_cell_length_c   26.94900000
_cell_angle_alpha   90.00000000
_cell_angle_beta   90.00000000
_cell_angle_gamma   95.17999858
_symmetry_Int_Tables_number   1
_chemical_formula_structural   ZnH4C6N3O2
_chemical_formula_sum   'Zn16 H64 C96 N48 O32'
_cell_volume   4885.59352829
_cell_formula_units_Z   16
loop_
 _symmetry_equiv_pos_site_id
 _symmetry_equiv_pos_as_xyz
  1  'x, y, z'
loop_
 _atom_site_label
 _atom_site_fract_x
 _atom_site_fract_y
 _atom_site_fract_z
 _atom_site_charge
 Zn 0.22188 0.86237 0.97598   0.78216
 Zn 0.63289 0.74262 0.94572   0.783335
 Zn 0.25765 0.68431 0.07575   0.803083
 Zn 0.18891 0.29313 0.95608   0.799331
 Zn 0.27812 0.63763 0.47598   0.78216
 Zn 0.86711 0.75738 0.44572   0.783335
 Zn 0.24235 0.81569 0.57575   0.803083
 Zn 0.31109 0.20687 0.45608   0.799331
 Zn 0.77812 0.13763 0.02402   0.78216
 Zn 0.36711 0.25738 0.05428   0.783336
 Zn 0.74235 0.31569 0.92425   0.803083
 Zn 0.81109 0.70687 0.04392   0.799331
 Zn 0.72188 0.36237 0.52402   0.78216
 Zn 0.13289 0.24262 0.55428   0.783336
 Zn 0.75765 0.18431 0.42425   0.803083
 Zn 0.68891 0.79313 0.54392   0.799331
 H 0.0212 0.6197 0.0784   0.110097
 H 0.6387 0.5236 0.9034   0.109386
 H 0.8264 0.4759 0.0101   0.097294
 H 0.4827 0.6517 0.0314   0.094043
 H 0.3198 0.0201 0.055   0.10292
 H 0.1203 0.0592 0.9525   0.111129
 H 0.4447 0.8631 0.9362   0.106727
 H 0.9857 0.8026 0.9684   0.101284
 H 0.5996 0.6467 0.7916   0.102339
 H 0.3726 0.8852 0.7366   0.101531
 H 0.6096 0.6358 0.7046   0.099371
 H 0.355 0.8967 0.8232   0.105257
 H 0.074 0.8926 0.7221   0.107664
 H 0.6072 0.9457 0.7795   0.105352
 H 0.0586 0.9068 0.8085   0.113828
 H 0.6322 0.9339 0.6942   0.109235
 H 0.4788 0.8803 0.5784   0.110097
 H 0.8613 0.9764 0.4034   0.109386
 H 0.6736 0.0241 0.5101   0.097294
 H 0.0173 0.8483 0.5314   0.094043
 H 0.1802 0.4799 0.555   0.10292
 H 0.3797 0.4408 0.4525   0.111129
 H 0.0553 0.6369 0.4362   0.106727
 H 0.5143 0.6974 0.4684   0.101284
 H 0.9004 0.8533 0.2916   0.102339
 H 0.1274 0.6148 0.2366   0.101531
 H 0.8904 0.8642 0.2046   0.099371
 H 0.145 0.6033 0.3232   0.105257
 H 0.426 0.6074 0.2221   0.107664
 H 0.8928 0.5543 0.2795   0.105352
 H 0.4414 0.5932 0.3085   0.113828
 H 0.8678 0.5661 0.1942   0.109236
 H 0.9788 0.3803 0.9216   0.110097
 H 0.3613 0.4764 0.0966   0.109387
 H 0.1736 0.5241 0.9899   0.097294
 H 0.5173 0.3483 0.9686   0.094043
 H 0.6802 0.9799 0.945   0.10292
 H 0.8797 0.9408 0.0475   0.111129
 H 0.5553 0.1369 0.0638   0.106727
 H 0.0143 0.1974 0.0316   0.101284
 H 0.4004 0.3533 0.2084   0.102337
 H 0.6274 0.1148 0.2634   0.101531
 H 0.3904 0.3642 0.2954   0.099371
 H 0.645 0.1033 0.1768   0.105257
 H 0.926 0.1074 0.2779   0.107663
 H 0.3928 0.0543 0.2205   0.105352
 H 0.9414 0.0932 0.1915   0.113828
 H 0.3678 0.0661 0.3058   0.109235
 H 0.5212 0.1197 0.4216   0.110097
 H 0.1387 0.0236 0.5966   0.109387
 H 0.3264 0.9759 0.4899   0.097294
 H 0.9827 0.1517 0.4686   0.094043
 H 0.8198 0.5201 0.445   0.10292
 H 0.6203 0.5592 0.5475   0.111129
 H 0.9447 0.3631 0.5638   0.106727
 H 0.4857 0.3026 0.5316   0.101284
 H 0.0996 0.1467 0.7084   0.102337
 H 0.8726 0.3852 0.7634   0.101531
 H 0.1096 0.1358 0.7954   0.099371
 H 0.855 0.3967 0.6768   0.105257
 H 0.574 0.3926 0.7779   0.107663
 H 0.1072 0.4457 0.7205   0.105352
 H 0.5586 0.4068 0.6915   0.113828
 H 0.1322 0.4339 0.8058   0.109236
 C 0.2051 0.8989 0.8235   -0.095842
 C 0.0345 0.666 0.0522   0.270647
 C 0.6802 0.5322 0.9319   0.270109
 C 0.7815 0.5069 0.98927   0.25324
 C 0.4543 0.7033 0.01396   0.258906
 C 0.2235 0.8837 0.721   -0.119315
 C 0.277 0.0503 0.03273   0.272562
 C 0.1695 0.0715 0.9775   0.290777
 C 0.4339 0.8166 0.9626   0.290502
 C 0.2341 0.8662 0.6664   0.649093
 C 0.0153 0.7643 0.9931   0.268172
 C 0.6042 0.7982 0.79445   -0.112833
 C 0.62 0.7835 0.6916   -0.099214
 C 0.6012 0.8054 0.8496   0.677321
 C 0.6333 0.7728 0.6363   0.645958
 C 0.6042 0.7054 0.7719   -0.070116
 C 0.3084 0.8875 0.751   -0.057129
 C 0.6111 0.6991 0.7201   -0.062301
 C 0.2977 0.8947 0.8025   -0.074018
 C 0.1314 0.8923 0.7425   -0.064553
 C 0.6108 0.8823 0.7647   -0.062532
 C 0.1219 0.9004 0.794   -0.064369
 C 0.1931 0.895 0.8798   0.640212
 C 0.6225 0.8753 0.7138   -0.069895
 C 0.2949 0.6011 0.3235   -0.095842
 C 0.4655 0.834 0.5522   0.270646
 C 0.8198 0.9678 0.4319   0.270109
 C 0.7185 0.9931 0.48927   0.25324
 C 0.0457 0.7967 0.51396   0.258906
 C 0.2765 0.6163 0.221   -0.119315
 C 0.223 0.4497 0.53273   0.272562
 C 0.3305 0.4285 0.4775   0.290777
 C 0.0661 0.6834 0.4626   0.290502
 C 0.2659 0.6338 0.1664   0.649093
 C 0.4847 0.7357 0.4931   0.268172
 C 0.8958 0.7018 0.29445   -0.112833
 C 0.88 0.7165 0.1916   -0.099214
 C 0.8988 0.6946 0.3496   0.677321
 C 0.8667 0.7272 0.1363   0.645958
 C 0.8958 0.7946 0.2719   -0.070116
 C 0.1916 0.6125 0.251   -0.057129
 C 0.8889 0.8009 0.2201   -0.062301
 C 0.2023 0.6053 0.3025   -0.074018
 C 0.3686 0.6077 0.2425   -0.064553
 C 0.8892 0.6177 0.2647   -0.062532
 C 0.3781 0.5996 0.294   -0.064369
 C 0.3069 0.605 0.3798   0.640212
 C 0.8775 0.6247 0.2138   -0.069895
 C 0.7949 0.1011 0.1765   -0.095842
 C 0.9655 0.334 0.9478   0.270647
 C 0.3198 0.4678 0.0681   0.27011
 C 0.2185 0.4931 0.01073   0.253241
 C 0.5457 0.2967 0.98604   0.258907
 C 0.7765 0.1163 0.279   -0.119315
 C 0.723 0.9497 0.96727   0.272563
 C 0.8305 0.9285 0.0225   0.290777
 C 0.5661 0.1834 0.0374   0.290503
 C 0.7659 0.1338 0.3336   0.649094
 C 0.9847 0.2357 0.0069   0.268172
 C 0.3958 0.2018 0.20555   -0.112833
 C 0.38 0.2165 0.3084   -0.099214
 C 0.3988 0.1946 0.1504   0.677321
 C 0.3667 0.2272 0.3637   0.645958
 C 0.3958 0.2946 0.2281   -0.070116
 C 0.6916 0.1125 0.249   -0.05713
 C 0.3889 0.3009 0.2799   -0.062302
 C 0.7023 0.1053 0.1975   -0.074018
 C 0.8686 0.1077 0.2575   -0.064552
 C 0.3892 0.1177 0.2353   -0.062532
 C 0.8781 0.0996 0.206   -0.06437
 C 0.8069 0.105 0.1202   0.640212
 C 0.3775 0.1247 0.2862   -0.069895
 C 0.7051 0.3989 0.6765   -0.095842
 C 0.5345 0.166 0.4478   0.270646
 C 0.1802 0.0322 0.5681   0.27011
 C 0.2815 0.0069 0.51073   0.253241
 C 0.9543 0.2033 0.48604   0.258907
 C 0.7235 0.3837 0.779   -0.119315
 C 0.777 0.5503 0.46727   0.272563
 C 0.6695 0.5715 0.5225   0.290777
 C 0.9339 0.3166 0.5374   0.290503
 C 0.7341 0.3662 0.8336   0.649094
 C 0.5153 0.2643 0.5069   0.268172
 C 0.1042 0.2982 0.70555   -0.112833
 C 0.12 0.2835 0.8084   -0.099214
 C 0.1012 0.3054 0.6504   0.677321
 C 0.1333 0.2728 0.8637   0.645958
 C 0.1042 0.2054 0.7281   -0.070116
 C 0.8084 0.3875 0.749   -0.05713
 C 0.1111 0.1991 0.7799   -0.062302
 C 0.7977 0.3947 0.6975   -0.074018
 C 0.6314 0.3923 0.7575   -0.064552
 C 0.1108 0.3823 0.7353   -0.062532
 C 0.6219 0.4004 0.706   -0.06437
 C 0.6931 0.395 0.6202   0.640212
 C 0.1225 0.3753 0.7862   -0.069895
 N 0.4994 0.7529 0.9758   -0.437235
 N 0.214 0.9991 0.00162   -0.435108
 N 0.7369 0.4631 0.94906   -0.43024
 N 0.366 0.7339 0.02476   -0.257129
 N 0.1257 0.7021 0.03894   -0.265892
 N 0.6889 0.6142 0.95945   -0.265003
 N 0.3527 0.8078 0.99009   -0.262182
 N 0.273 0.1466 0.0291   -0.254966
 N 0.2028 0.1602 0.99288   -0.265161
 N 0.9627 0.7022 0.02442   -0.4437
 N 0.7557 0.5974 0.99642   -0.262131
 N 0.113 0.7663 0.000349999999997   -0.266616
 N 0.000599999999999 0.7471 0.4758   -0.437235
 N 0.286 0.5009 0.50162   -0.435108
 N 0.7631 0.0369 0.44906   -0.43024
 N 0.134 0.7661 0.52476   -0.257129
 N 0.3743 0.7979 0.53894   -0.265892
 N 0.8111 0.8858 0.45945   -0.265003
 N 0.1473 0.6922 0.49009   -0.262182
 N 0.227 0.3534 0.5291   -0.254966
 N 0.2972 0.3398 0.49288   -0.265161
 N 0.5373 0.7978 0.52442   -0.4437
 N 0.7443 0.9026 0.49642   -0.262131
 N 0.387 0.7337 0.50035   -0.266616
 N 0.5006 0.2471 0.0242   -0.437235
 N 0.786 0.000900000000001 0.99838   -0.435108
 N 0.2631 0.5369 0.05094   -0.43024
 N 0.634 0.2661 0.97524   -0.257129
 N 0.8743 0.2979 0.96106   -0.265892
 N 0.3111 0.3858 0.04055   -0.265003
 N 0.6473 0.1922 0.00991   -0.262182
 N 0.727 0.8534 0.9709   -0.254966
 N 0.7972 0.8398 0.00712   -0.265161
 N 0.0373 0.2978 0.97558   -0.4437
 N 0.2443 0.4026 0.00358   -0.262131
 N 0.887 0.2337 0.99965   -0.266616
 N 0.9994 0.2529 0.5242   -0.437235
 N 0.714 0.4991 0.49838   -0.435108
 N 0.2369 0.9631 0.55094   -0.43024
 N 0.866 0.2339 0.47524   -0.257129
 N 0.6257 0.2021 0.46106   -0.265892
 N 0.1889 0.1142 0.54055   -0.265003
 N 0.8527 0.3078 0.50991   -0.262182
 N 0.773 0.6466 0.4709   -0.254966
 N 0.7028 0.6602 0.50712   -0.265161
 N 0.4627 0.2022 0.47558   -0.4437
 N 0.2557 0.0974 0.50358   -0.262131
 N 0.613 0.2663 0.49965   -0.266616
 O 0.2687 0.8904 0.9048   -0.569634
 O 0.6259 0.7289 0.87345   -0.627082
 O 0.1552 0.8443 0.64066   -0.609041
 O 0.3186 0.8711 0.64649   -0.58311
 O 0.6675 0.8512 0.61258   -0.611297
 O 0.5799 0.8818 0.87101   -0.618654
 O 0.6127 0.6923 0.61589   -0.575264
 O 0.1053 0.9002 0.899   -0.641307
 O 0.2313 0.6096 0.4048   -0.569634
 O 0.8741 0.7711 0.37345   -0.627082
 O 0.3448 0.6557 0.14066   -0.609041
 O 0.1814 0.6289 0.14649   -0.58311
 O 0.8325 0.6488 0.11258   -0.611297
 O 0.9201 0.6182 0.37101   -0.618654
 O 0.8873 0.8077 0.11589   -0.575264
 O 0.3947 0.5998 0.399   -0.641307
 O 0.7313 0.1096 0.0952   -0.569634
 O 0.3741 0.2711 0.12655   -0.627082
 O 0.8448 0.1557 0.35934   -0.609041
 O 0.6814 0.1289 0.35351   -0.58311
 O 0.3325 0.1488 0.38742   -0.611297
 O 0.4201 0.1182 0.12899   -0.618654
 O 0.3873 0.3077 0.38411   -0.575264
 O 0.8947 0.0998 0.101   -0.641307
 O 0.7687 0.3904 0.5952   -0.569634
 O 0.1259 0.2289 0.62655   -0.627082
 O 0.6552 0.3443 0.85934   -0.609041
 O 0.8186 0.3711 0.85351   -0.58311
 O 0.1675 0.3512 0.88742   -0.611297
 O 0.0799 0.3818 0.62899   -0.618654
 O 0.1127 0.1923 0.88411   -0.575264
 O 0.6053 0.4002 0.601   -0.641307
