{'_ref': 'TBD', '_srcid': 'CAKYAQ_clean', 'submitters': [{'name': 'Dalar Nazarian Jeff Camp and David Sholl', 'email': 'dalar@gatech.edu jcamp6@gatech.edu'}], '_method': 'VASP DFT with PBE;DDEC'}
data_CdC4
_symmetry_space_group_name_H-M   'P 1'
_cell_length_a   9.00300015
_cell_length_b   12.04600000
_cell_length_c   18.87000000
_cell_angle_alpha   90.00000000
_cell_angle_beta   96.22999699
_cell_angle_gamma   90.00000000
_symmetry_Int_Tables_number   1
_chemical_formula_structural   CdC4
_chemical_formula_sum   'Cd8 C32'
_cell_volume   2034.36836394
_cell_formula_units_Z   8
loop_
 _symmetry_equiv_pos_site_id
 _symmetry_equiv_pos_as_xyz
  1  'x, y, z'
loop_
 _atom_site_label
 _atom_site_fract_x
 _atom_site_fract_y
 _atom_site_fract_z
 _atom_site_charge
 Cd 0.75517 0.76037 0.59238   0.834476
 Cd 0.73093 0.00281 0.84512   0.707881
 Cd 0.24483 0.26037 0.90762   0.834476
 Cd 0.26907 0.50281 0.65488   0.707884
 Cd 0.24483 0.23963 0.40762   0.834475
 Cd 0.26907 0.99719 0.15488   0.707882
 Cd 0.75517 0.73963 0.09238   0.834476
 Cd 0.73093 0.49719 0.34512   0.707884
 C 0.732 0.9128 0.7422   -0.167906
 C 0.74 0.8684 0.6901   -0.250939
 C 0.752 0.6163 0.4375   -0.16583
 C 0.758 0.6709 0.4864   -0.245778
 C 0.07 0.615 0.6433   -0.1871
 C 0.9647 0.6661 0.6347   -0.176104
 C 0.477 0.5987 0.6443   -0.195215
 C 0.5825 0.6441 0.632   -0.153487
 C 0.268 0.4128 0.7578   -0.167906
 C 0.26 0.3684 0.8099   -0.250939
 C 0.248 0.1163 0.0625   -0.16583
 C 0.242 0.1709 0.0136   -0.245778
 C 0.93 0.115 0.8567   -0.187099
 C 0.0353 0.1661 0.8653   -0.176104
 C 0.523 0.0987 0.8557   -0.195215
 C 0.4175 0.1441 0.868   -0.153487
 C 0.268 0.0872 0.2578   -0.167906
 C 0.26 0.1316 0.3099   -0.250939
 C 0.248 0.3837 0.5625   -0.16583
 C 0.242 0.3291 0.5136   -0.245778
 C 0.93 0.385 0.3567   -0.1871
 C 0.0353 0.3339 0.3653   -0.176104
 C 0.523 0.4013 0.3557   -0.195215
 C 0.4175 0.3559 0.368   -0.153487
 C 0.732 0.5872 0.2422   -0.167906
 C 0.74 0.6316 0.1901   -0.250939
 C 0.752 0.8837 0.9375   -0.16583
 C 0.758 0.8291 0.9864   -0.245778
 C 0.07 0.885 0.1433   -0.187099
 C 0.9647 0.8339 0.1347   -0.176104
 C 0.477 0.9013 0.1443   -0.195215
 C 0.5825 0.8559 0.132   -0.153487
