{'_ref': 'TBD', '_srcid': 'CAKYAQ_clean', 'submitters': [{'name': 'Dalar Nazarian Jeff Camp and David Sholl', 'email': 'dalar@gatech.edu jcamp6@gatech.edu'}], '_method': 'VASP DFT with PBE;DDEC'}
data_Sm2H6(C3O4)3
_symmetry_space_group_name_H-M   'P 1'
_cell_length_a   10.56709992
_cell_length_b   10.56709958
_cell_length_c   10.91940000
_cell_angle_alpha   101.22919847
_cell_angle_beta   117.50369991
_cell_angle_gamma   108.75799969
_symmetry_Int_Tables_number   1
_chemical_formula_structural   Sm2H6(C3O4)3
_chemical_formula_sum   'Sm4 H12 C18 O24'
_cell_volume   934.62948242
_cell_formula_units_Z   2
loop_
 _symmetry_equiv_pos_site_id
 _symmetry_equiv_pos_as_xyz
  1  'x, y, z'
loop_
 _atom_site_label
 _atom_site_fract_x
 _atom_site_fract_y
 _atom_site_fract_z
 _atom_site_charge
 Sm 0.44853 0.63517 0.37984   2.3518
 Sm 0.75533 0.06869 0.12016   2.351674
 Sm 0.55147 0.36483 0.62016   2.3518
 Sm 0.24467 0.93131 0.87984   2.351674
 H 0.897 0.5137 0.1509   0.175457
 H 0.0415 0.6167 0.3184   0.196899
 H 0.7333 0.3911 0.283   0.185686
 H 0.8628 0.7461 0.3491   0.173371
 H 0.7983 0.7231 0.1816   0.196726
 H 0.6081 0.4503 0.217   0.185203
 H 0.103 0.4863 0.8491   0.175457
 H 0.9585 0.3833 0.6816   0.196899
 H 0.2667 0.6089 0.717   0.185686
 H 0.1372 0.2539 0.6509   0.173371
 H 0.2017 0.2769 0.8184   0.196726
 H 0.3919 0.5497 0.783   0.185203
 C 0.0964 0.649 0.1684   0.867681
 C 0.013 0.554 0.2222   -0.626343
 C 0.0471 0.4279 0.2424   0.966438
 C 0.5988 0.3746 0.3748   0.841918
 C 0.9806 0.928 0.3316   0.871086
 C 0.8318 0.7908 0.2778   -0.624514
 C 0.6855 0.8047 0.2576   0.964276
 C 0.4998 0.224 0.1252   0.840084
 C 0.9036 0.351 0.8316   0.867679
 C 0.987 0.446 0.7778   -0.626343
 C 0.9529 0.5721 0.7576   0.966438
 C 0.4012 0.6254 0.6252   0.841917
 C 0.0194 0.072 0.6684   0.871085
 C 0.1682 0.2092 0.7222   -0.624514
 C 0.3145 0.1953 0.7424   0.964276
 C 0.5002 0.776 0.8748   0.840083
 C 0.6249 0.3749 0.25   -0.524496
 C 0.3751 0.6251 0.75   -0.524496
 O 0.2461 0.6911 0.2256   -0.866198
 O 0.0152 0.6875 0.0721   -0.627264
 O 0.1865 0.4426 0.2915   -0.764224
 O 0.9322 0.3149 0.2139   -0.878228
 O 0.6328 0.2938 0.4416   -0.673455
 O 0.5395 0.4506 0.4081   -0.887676
 O 0.9655 0.0205 0.2744   -0.867332
 O 0.1154 0.9431 0.4279   -0.629181
 O 0.6511 0.895 0.2085   -0.76311
 O 0.601 0.7183 0.2861   -0.877356
 O 0.3522 0.1912 0.0584   -0.671266
 O 0.5425 0.1314 0.0919   -0.887655
 O 0.7539 0.3089 0.7744   -0.866198
 O 0.9848 0.3125 0.9279   -0.627263
 O 0.8135 0.5574 0.7085   -0.764224
 O 0.0678 0.6851 0.7861   -0.878228
 O 0.3672 0.7062 0.5584   -0.673455
 O 0.4605 0.5494 0.5919   -0.887676
 O 0.0345 0.9795 0.7256   -0.867332
 O 0.8846 0.0569 0.5721   -0.629181
 O 0.3489 0.105 0.7915   -0.763109
 O 0.399 0.2817 0.7139   -0.877356
 O 0.6478 0.8088 0.9416   -0.671266
 O 0.4575 0.8686 0.9081   -0.887655
