{'_ref': 'TBD', '_srcid': 'CAKYAQ_clean', 'submitters': [{'name': 'Dalar Nazarian Jeff Camp and David Sholl', 'email': 'dalar@gatech.edu jcamp6@gatech.edu'}], '_method': 'VASP DFT with PBE;DDEC'}
data_Co2H7C10NO7
_symmetry_space_group_name_H-M   'P 1'
_cell_length_a   10.10689948
_cell_length_b   12.66489983
_cell_length_c   13.04270000
_cell_angle_alpha   70.77349778
_cell_angle_beta   67.20380081
_cell_angle_gamma   66.48349740
_symmetry_Int_Tables_number   1
_chemical_formula_structural   Co2H7C10NO7
_chemical_formula_sum   'Co8 H28 C40 N4 O28'
_cell_volume   1380.79813554
_cell_formula_units_Z   4
loop_
 _symmetry_equiv_pos_site_id
 _symmetry_equiv_pos_as_xyz
  1  'x, y, z'
loop_
 _atom_site_label
 _atom_site_fract_x
 _atom_site_fract_y
 _atom_site_fract_z
 _atom_site_charge
 Co 0.97773 0.60122 0.88458   1.062296
 Co 0.18595 0.23856 0.33088   1.113029
 Co 0.46353 0.89878 0.61542   1.061616
 Co 0.75539 0.26144 0.16912   1.114163
 Co 0.02227 0.39878 0.11542   1.062302
 Co 0.81405 0.76144 0.66912   1.113033
 Co 0.53647 0.10122 0.38458   1.061622
 Co 0.24461 0.73856 0.83088   1.114167
 H 0.4011 0.3494 0.6084   0.126391
 H 0.2945 0.4606 0.7456   0.078444
 H 0.8873 0.4706 0.777   0.075333
 H 0.9802 0.3693 0.6327   0.138764
 H 0.328 0.7594 0.548   0.078339
 H 0.126 0.9043 0.4857   0.151778
 H 0.0861 0.9702 0.5842   0.157091
 H 0.3589 0.1506 0.8916   0.127014
 H 0.5007 0.0394 0.7544   0.078223
 H 0.1349 0.0294 0.723   0.07577
 H 0.9822 0.1307 0.8673   0.137733
 H 0.6354 0.7406 0.952   0.078103
 H 0.516 0.5957 0.0143   0.151402
 H 0.6405 0.5298 0.9158   0.15771
 H 0.5989 0.6506 0.3916   0.126397
 H 0.7055 0.5394 0.2544   0.078447
 H 0.1127 0.5294 0.223   0.075334
 H 0.0198 0.6307 0.3673   0.13877
 H 0.672 0.2406 0.452   0.078345
 H 0.874 0.0957 0.5143   0.151794
 H 0.9139 0.0298 0.4158   0.157098
 H 0.6411 0.8494 0.1084   0.127021
 H 0.4993 0.9606 0.2456   0.078226
 H 0.8651 0.9706 0.277   0.07577
 H 0.0178 0.8693 0.1327   0.137739
 H 0.3646 0.2594 0.048   0.078109
 H 0.484 0.4043 0.9857   0.151419
 H 0.3595 0.4702 0.0842   0.157717
 C 0.2661 0.281 0.5094   0.667044
 C 0.203 0.3488 0.6024   -0.022268
 C 0.2944 0.3759 0.6399   -0.160811
 C 0.23 0.4407 0.7231   0.166281
 C 0.993 0.4479 0.7403   0.16021
 C 0.0473 0.3863 0.6551   -0.150092
 C 0.1168 0.7497 0.6637   0.657683
 C 0.2421 0.8094 0.5998   0.165025
 C 0.1704 0.9221 0.5313   -0.414651
 C 0.273 0.997 0.4502   0.740082
 C 0.0565 0.219 0.9906   0.665438
 C 0.1542 0.1512 0.8976   -0.024521
 C 0.3102 0.1241 0.8601   -0.160188
 C 0.3938 0.0593 0.7769   0.16485
 C 0.1812 0.0521 0.7597   0.159254
 C 0.0887 0.1137 0.8449   -0.147197
 C 0.5302 0.7503 0.8363   0.657955
 C 0.6513 0.6906 0.9002   0.165636
 C 0.6238 0.5779 0.9687   -0.415936
 C 0.7202 0.503 0.0498   0.741684
 C 0.7339 0.719 0.4906   0.667043
 C 0.797 0.6512 0.3976   -0.022266
 C 0.7056 0.6241 0.3601   -0.160813
 C 0.77 0.5593 0.2769   0.166281
 C 0.007 0.5521 0.2597   0.160211
 C 0.9527 0.6137 0.3449   -0.150096
 C 0.8832 0.2503 0.3363   0.657683
 C 0.7579 0.1906 0.4002   0.165025
 C 0.8296 0.0779 0.4687   -0.414659
 C 0.727 0.003 0.5498   0.740084
 C 0.9435 0.781 0.0094   0.665437
 C 0.8458 0.8488 0.1024   -0.024519
 C 0.6898 0.8759 0.1399   -0.16019
 C 0.6062 0.9407 0.2231   0.16485
 C 0.8188 0.9479 0.2403   0.159255
 C 0.9113 0.8863 0.1551   -0.1472
 C 0.4698 0.2497 0.1637   0.657955
 C 0.3487 0.3094 0.0998   0.165636
 C 0.3762 0.4221 0.0313   -0.415944
 C 0.2798 0.497 0.9502   0.741686
 N 0.08 0.4777 0.7743   -0.370864
 N 0.332 0.0223 0.7257   -0.369897
 N 0.92 0.5223 0.2257   -0.370864
 N 0.668 0.9777 0.2743   -0.369898
 O 0.40421 0.22608 0.4853   -0.575089
 O 0.1712 0.2852 0.466   -0.623515
 O 0.10524 0.70752 0.766   -0.659774
 O 0.0446 0.7379 0.6113   -0.596634
 O 0.29538 0.82744 0.6766   -0.704206
 O 0.2236 0.0641 0.3697   -0.608704
 O 0.37861 0.00428 0.4773   -0.650507
 O 0.11559 0.27392 0.0147   -0.573882
 O 0.9224 0.2148 0.034   -0.622709
 O 0.57876 0.79248 0.734   -0.660673
 O 0.3938 0.7621 0.8887   -0.598205
 O 0.79942 0.67256 0.8234   -0.702875
 O 0.6574 0.4359 0.1303   -0.609211
 O 0.86019 0.49572 0.0227   -0.651984
 O 0.59579 0.77392 0.5147   -0.575086
 O 0.8288 0.7148 0.534   -0.623515
 O 0.89476 0.29248 0.234   -0.659774
 O 0.9554 0.2621 0.3887   -0.596633
 O 0.70462 0.17256 0.3234   -0.704206
 O 0.7764 0.9359 0.6303   -0.608704
 O 0.62139 0.99572 0.5227   -0.650506
 O 0.88441 0.72608 0.9853   -0.573879
 O 0.0776 0.7852 0.966   -0.622708
 O 0.42124 0.20752 0.266   -0.660672
 O 0.6062 0.2379 0.1113   -0.598204
 O 0.20058 0.32744 0.1766   -0.702874
 O 0.3426 0.5641 0.8697   -0.60921
 O 0.13981 0.50428 0.9773   -0.651983
