{'_ref': 'TBD', '_srcid': 'CAKYAQ_clean', 'submitters': [{'name': 'Dalar Nazarian Jeff Camp and David Sholl', 'email': 'dalar@gatech.edu jcamp6@gatech.edu'}], '_method': 'VASP DFT with PBE;DDEC'}
data_Co2H7C10NO7
_symmetry_space_group_name_H-M   'P 1'
_cell_length_a   10.09600045
_cell_length_b   12.84219988
_cell_length_c   12.97310000
_cell_angle_alpha   71.01400098
_cell_angle_beta   67.10079826
_cell_angle_gamma   66.85390178
_symmetry_Int_Tables_number   1
_chemical_formula_structural   Co2H7C10NO7
_chemical_formula_sum   'Co8 H28 C40 N4 O28'
_cell_volume   1394.92527157
_cell_formula_units_Z   4
loop_
 _symmetry_equiv_pos_site_id
 _symmetry_equiv_pos_as_xyz
  1  'x, y, z'
loop_
 _atom_site_label
 _atom_site_fract_x
 _atom_site_fract_y
 _atom_site_fract_z
 _atom_site_charge
 Co 0.96579 0.61527 0.89717   1.05669
 Co 0.2524 0.16702 0.26346   1.112362
 Co 0.47823 0.88473 0.60283   1.059336
 Co 0.68288 0.33298 0.23654   1.111655
 Co 0.03421 0.38473 0.10283   1.056692
 Co 0.7476 0.83298 0.73654   1.112364
 Co 0.52177 0.11527 0.39717   1.059339
 Co 0.31712 0.66702 0.76346   1.111657
 H 0.8553 0.8891 0.1515   0.121395
 H 0.9973 0.7546 0.0396   0.074356
 H 0.6379 0.7304 0.019   0.072567
 H 0.4865 0.8704 0.1242   0.133558
 H 0.1426 0.9281 0.7559   0.086273
 H 0.1441 0.9119 0.5349   0.164701
 H 0.0207 0.0138 0.5918   0.15058
 H 0.8959 0.6109 0.3485   0.12296
 H 0.7915 0.7454 0.4604   0.072118
 H 0.3873 0.7696 0.481   0.070744
 H 0.4811 0.6296 0.3758   0.132868
 H 0.8266 0.5719 0.7441   0.087186
 H 0.5909 0.5881 0.9651   0.165875
 H 0.6263 0.4862 0.9082   0.150767
 H 0.1447 0.1109 0.8485   0.121391
 H 0.0027 0.2454 0.9604   0.074355
 H 0.3621 0.2696 0.981   0.072567
 H 0.5135 0.1296 0.8758   0.133557
 H 0.8574 0.0719 0.2441   0.086271
 H 0.8559 0.0881 0.4651   0.164704
 H 0.9793 0.9862 0.4082   0.15058
 H 0.1041 0.3891 0.6515   0.122956
 H 0.2085 0.2546 0.5396   0.072117
 H 0.6127 0.2304 0.519   0.070744
 H 0.5189 0.3704 0.6242   0.132867
 H 0.1734 0.4281 0.2559   0.087184
 H 0.4091 0.4119 0.0349   0.165879
 H 0.3737 0.5138 0.0918   0.150767
 C 0.5539 0.9882 0.222   0.676078
 C 0.6536 0.896 0.1502   -0.031287
 C 0.8086 0.8589 0.1239   -0.156067
 C 0.8927 0.7776 0.0574   0.172831
 C 0.6825 0.7641 0.0447   0.160568
 C 0.5908 0.8475 0.1089   -0.141796
 C 0.0329 0.8391 0.7499   0.664365
 C 0.1513 0.9028 0.691   0.158357
 C 0.1263 0.968 0.5778   -0.400955
 C 0.2209 0.0483 0.5021   0.751051
 C 0.7641 0.5118 0.278   0.675671
 C 0.6998 0.604 0.3498   -0.030716
 C 0.7914 0.6411 0.3761   -0.157651
 C 0.7277 0.7224 0.4426   0.175344
 C 0.4913 0.7359 0.4553   0.162705
 C 0.5472 0.6525 0.3911   -0.140724
 C 0.6219 0.6609 0.7501   0.665697
 C 0.7451 0.5972 0.809   0.153887
 C 0.6721 0.532 0.9222   -0.399922
 C 0.7713 0.4517 0.9979   0.744504
 C 0.4461 0.0118 0.778   0.676078
 C 0.3464 0.104 0.8498   -0.031288
 C 0.1914 0.1411 0.8761   -0.156066
 C 0.1073 0.2224 0.9426   0.172831
 C 0.3175 0.2359 0.9553   0.160568
 C 0.4092 0.1525 0.8911   -0.141796
 C 0.9671 0.1609 0.2501   0.664365
 C 0.8487 0.0972 0.309   0.158358
 C 0.8737 0.032 0.4222   -0.400957
 C 0.7791 0.9517 0.4979   0.751051
 C 0.2359 0.4882 0.722   0.675671
 C 0.3002 0.396 0.6502   -0.030716
 C 0.2086 0.3589 0.6239   -0.15765
 C 0.2723 0.2776 0.5574   0.175344
 C 0.5087 0.2641 0.5447   0.162705
 C 0.4528 0.3475 0.6089   -0.140723
 C 0.3781 0.3391 0.2499   0.665696
 C 0.2549 0.4028 0.191   0.153888
 C 0.3279 0.468 0.0778   -0.399924
 C 0.2287 0.5483 0.0021   0.744504
 N 0.8332 0.7294 0.017   -0.369334
 N 0.5796 0.7706 0.483   -0.370449
 N 0.1668 0.2706 0.983   -0.369335
 N 0.4204 0.2294 0.517   -0.370449
 O 0.6118 0.0089 0.2775   -0.569641
 O 0.4198 0.0305 0.2185   -0.629516
 O 0.0802 0.7347 0.7937   -0.67019
 O 0.8975 0.8923 0.7583   -0.601686
 O 0.3001 0.8241 0.6755   -0.715366
 O 0.35914 0.02272 0.497   -0.652927
 O 0.159 0.1274 0.4334   -0.619062
 O 0.8982 0.4911 0.2225   -0.56998
 O 0.6688 0.4695 0.2815   -0.629015
 O 0.6086 0.7653 0.7063   -0.671544
 O 0.5481 0.6077 0.7417   -0.601457
 O 0.7997 0.6759 0.8245   -0.712059
 O 0.87886 0.47728 0.003   -0.647315
 O 0.7198 0.3726 0.0666   -0.618392
 O 0.3882 0.9911 0.7225   -0.56964
 O 0.5802 0.9695 0.7815   -0.629515
 O 0.9198 0.2653 0.2063   -0.67019
 O 0.1025 0.1077 0.2417   -0.601685
 O 0.6999 0.1759 0.3245   -0.715366
 O 0.64086 0.97728 0.503   -0.652926
 O 0.841 0.8726 0.5666   -0.619062
 O 0.1018 0.5089 0.7775   -0.56998
 O 0.3312 0.5305 0.7185   -0.629015
 O 0.3914 0.2347 0.2937   -0.671544
 O 0.4519 0.3923 0.2583   -0.601456
 O 0.2003 0.3241 0.1755   -0.712059
 O 0.12114 0.52272 0.997   -0.647314
 O 0.2802 0.6274 0.9334   -0.618392
