{'_ref': 'TBD', '_srcid': 'CAKYAQ_clean', 'submitters': [{'name': 'Dalar Nazarian Jeff Camp and David Sholl', 'email': 'dalar@gatech.edu jcamp6@gatech.edu'}], '_method': 'VASP DFT with PBE;DDEC'}
data_Cu4H6(C2N3)3
_symmetry_space_group_name_H-M   'P 1'
_cell_length_a   6.55610000
_cell_length_b   21.98300000
_cell_length_c   39.77500000
_cell_angle_alpha   90.00000000
_cell_angle_beta   90.00000000
_cell_angle_gamma   90.00000000
_symmetry_Int_Tables_number   1
_chemical_formula_structural   Cu4H6(C2N3)3
_chemical_formula_sum   'Cu64 H96 C96 N144'
_cell_volume   5732.48223408
_cell_formula_units_Z   16
loop_
 _symmetry_equiv_pos_site_id
 _symmetry_equiv_pos_as_xyz
  1  'x, y, z'
loop_
 _atom_site_label
 _atom_site_fract_x
 _atom_site_fract_y
 _atom_site_fract_z
 _atom_site_charge
 Cu 0.5 0.0 0.28203   0.392539
 Cu 0.75 0.25 0.53203   0.392539
 Cu 0.5 0.5 0.78203   0.392539
 Cu 0.75 0.75 0.03203   0.392539
 Cu 0.0 0.0 0.78203   0.392539
 Cu 0.25 0.25 0.03203   0.392539
 Cu 0.0 0.5 0.28203   0.392539
 Cu 0.25 0.75 0.53203   0.392539
 Cu 0.25 0.25 0.24798   0.091497
 Cu 0.75 0.75 0.24798   0.091497
 Cu 0.5 0.0 0.49798   0.091497
 Cu 0.0 0.5 0.49798   0.091497
 Cu 0.25 0.75 0.74798   0.091497
 Cu 0.75 0.25 0.74798   0.091497
 Cu 0.5 0.5 0.99798   0.091497
 Cu 0.0 0.0 0.99798   0.091497
 Cu 0.3158 0.1733 0.1733   0.173765
 Cu 0.6842 0.8267 0.1733   0.173765
 Cu 0.5658 0.0767 0.4233   0.173765
 Cu 0.9342 0.4233 0.4233   0.173765
 Cu 0.3158 0.6733 0.6733   0.173765
 Cu 0.6842 0.3267 0.6733   0.173765
 Cu 0.5658 0.5767 0.9233   0.173765
 Cu 0.9342 0.9233 0.9233   0.173765
 Cu 0.8158 0.1733 0.6733   0.173766
 Cu 0.1842 0.8267 0.6733   0.173766
 Cu 0.0658 0.0767 0.9233   0.173766
 Cu 0.4342 0.4233 0.9233   0.173766
 Cu 0.8158 0.6733 0.1733   0.173766
 Cu 0.1842 0.3267 0.1733   0.173766
 Cu 0.0658 0.5767 0.4233   0.173766
 Cu 0.4342 0.9233 0.4233   0.173766
 Cu 0.25 0.25 0.50104   0.368619
 Cu 0.75 0.75 0.50104   0.368619
 Cu 0.5 0.0 0.75104   0.368619
 Cu 0.0 0.5 0.75104   0.368619
 Cu 0.25 0.75 0.00104   0.368619
 Cu 0.75 0.25 0.00104   0.368619
 Cu 0.5 0.5 0.25104   0.368619
 Cu 0.0 0.0 0.25104   0.368619
 Cu 0.0 0.0 0.46658   0.155916
 Cu 0.25 0.25 0.71658   0.155916
 Cu 0.0 0.5 0.96658   0.155916
 Cu 0.25 0.75 0.21658   0.155916
 Cu 0.5 0.0 0.96658   0.155916
 Cu 0.75 0.25 0.21658   0.155916
 Cu 0.5 0.5 0.46658   0.155916
 Cu 0.75 0.75 0.71658   0.155916
 Cu 0.0457 0.07669 0.39289   0.140839
 Cu 0.9543 0.92331 0.39289   0.14084
 Cu 0.2957 0.17331 0.64289   0.14084
 Cu 0.2043 0.32669 0.64289   0.140839
 Cu 0.0457 0.57669 0.89289   0.140839
 Cu 0.9543 0.42331 0.89289   0.14084
 Cu 0.2957 0.67331 0.14289   0.14084
 Cu 0.2043 0.82669 0.14289   0.140839
 Cu 0.5457 0.07669 0.89289   0.14084
 Cu 0.4543 0.92331 0.89289   0.140839
 Cu 0.7957 0.17331 0.14289   0.140838
 Cu 0.7043 0.32669 0.14289   0.14084
 Cu 0.5457 0.57669 0.39289   0.14084
 Cu 0.4543 0.42331 0.39289   0.140839
 Cu 0.7957 0.67331 0.64289   0.140838
 Cu 0.7043 0.82669 0.64289   0.14084
 H 0.4169 0.0552 0.2049   0.062175
 H 0.5831 0.9448 0.2049   0.062175
 H 0.6669 0.1948 0.4549   0.062175
 H 0.8331 0.3052 0.4549   0.062175
 H 0.4169 0.5552 0.7049   0.062175
 H 0.5831 0.4448 0.7049   0.062175
 H 0.6669 0.6948 0.9549   0.062175
 H 0.8331 0.8052 0.9549   0.062175
 H 0.9169 0.0552 0.7049   0.062175
 H 0.0831 0.9448 0.7049   0.062175
 H 0.1669 0.1948 0.9549   0.062175
 H 0.3331 0.3052 0.9549   0.062175
 H 0.9169 0.5552 0.2049   0.062175
 H 0.0831 0.4448 0.2049   0.062175
 H 0.1669 0.6948 0.4549   0.062175
 H 0.3331 0.8052 0.4549   0.062175
 H 0.3715 0.1426 0.2927   0.0304
 H 0.6285 0.8574 0.2927   0.0304
 H 0.6215 0.1074 0.5427   0.0304
 H 0.8785 0.3926 0.5427   0.0304
 H 0.3715 0.6426 0.7927   0.0304
 H 0.6285 0.3574 0.7927   0.0304
 H 0.6215 0.6074 0.0427   0.0304
 H 0.8785 0.8926 0.0427   0.0304
 H 0.8715 0.1426 0.7927   0.0304
 H 0.1285 0.8574 0.7927   0.0304
 H 0.1215 0.1074 0.0427   0.0304
 H 0.3785 0.3926 0.0427   0.0304
 H 0.8715 0.6426 0.2927   0.0304
 H 0.1285 0.3574 0.2927   0.0304
 H 0.1215 0.6074 0.5427   0.0304
 H 0.3785 0.8926 0.5427   0.0304
 H 0.5628 0.0839 0.3438   0.018502
 H 0.4372 0.9161 0.3438   0.018502
 H 0.8128 0.1661 0.5938   0.018502
 H 0.6872 0.3339 0.5938   0.018502
 H 0.5628 0.5839 0.8438   0.018502
 H 0.4372 0.4161 0.8438   0.018502
 H 0.8128 0.6661 0.0938   0.018502
 H 0.6872 0.8339 0.0938   0.018502
 H 0.0628 0.0839 0.8438   0.018502
 H 0.9372 0.9161 0.8438   0.018502
 H 0.3128 0.1661 0.0938   0.018502
 H 0.1872 0.3339 0.0938   0.018502
 H 0.0628 0.5839 0.3438   0.018502
 H 0.9372 0.4161 0.3438   0.018502
 H 0.3128 0.6661 0.5938   0.018502
 H 0.1872 0.8339 0.5938   0.018502
 H 0.1178 0.1093 0.5125   0.061439
 H 0.8822 0.8907 0.5125   0.061439
 H 0.3678 0.1407 0.7625   0.061439
 H 0.1322 0.3593 0.7625   0.061439
 H 0.1178 0.6093 0.0125   0.061439
 H 0.8822 0.3907 0.0125   0.061439
 H 0.3678 0.6407 0.2625   0.061439
 H 0.1322 0.8593 0.2625   0.061439
 H 0.6178 0.1093 0.0125   0.061439
 H 0.3822 0.8907 0.0125   0.061439
 H 0.8678 0.1407 0.2625   0.061439
 H 0.6322 0.3593 0.2625   0.061439
 H 0.6178 0.6093 0.5125   0.061439
 H 0.3822 0.3907 0.5125   0.061439
 H 0.8678 0.6407 0.7625   0.061439
 H 0.6322 0.8593 0.7625   0.061439
 H 0.1512 0.2009 0.4267   0.019875
 H 0.8488 0.7991 0.4267   0.019875
 H 0.4012 0.0491 0.6767   0.019875
 H 0.0988 0.4509 0.6767   0.019875
 H 0.1512 0.7009 0.9267   0.019875
 H 0.8488 0.2991 0.9267   0.019875
 H 0.4012 0.5491 0.1767   0.019875
 H 0.0988 0.9509 0.1767   0.019875
 H 0.6512 0.2009 0.9267   0.019875
 H 0.3488 0.7991 0.9267   0.019875
 H 0.9012 0.0491 0.1767   0.019875
 H 0.5988 0.4509 0.1767   0.019875
 H 0.6512 0.7009 0.4267   0.019875
 H 0.3488 0.2991 0.4267   0.019875
 H 0.9012 0.5491 0.6767   0.019875
 H 0.5988 0.9509 0.6767   0.019875
 H 0.2781 0.1596 0.565   0.050479
 H 0.7219 0.8404 0.565   0.050479
 H 0.5281 0.0904 0.815   0.050479
 H 0.9719 0.4096 0.815   0.050479
 H 0.2781 0.6596 0.065   0.050479
 H 0.7219 0.3404 0.065   0.050479
 H 0.5281 0.5904 0.315   0.050479
 H 0.9719 0.9096 0.315   0.050479
 H 0.7781 0.1596 0.065   0.050479
 H 0.2219 0.8404 0.065   0.050479
 H 0.0281 0.0904 0.315   0.050479
 H 0.4719 0.4096 0.315   0.050479
 H 0.7781 0.6596 0.565   0.050479
 H 0.2219 0.3404 0.565   0.050479
 H 0.0281 0.5904 0.815   0.050479
 H 0.4719 0.9096 0.815   0.050479
 C 0.397 0.0852 0.2218   0.226382
 C 0.603 0.9148 0.2218   0.226382
 C 0.647 0.1648 0.4718   0.226382
 C 0.853 0.3352 0.4718   0.226382
 C 0.397 0.5852 0.7218   0.226382
 C 0.603 0.4148 0.7218   0.226382
 C 0.647 0.6648 0.9718   0.226382
 C 0.853 0.8352 0.9718   0.226382
 C 0.897 0.0852 0.7218   0.226382
 C 0.103 0.9148 0.7218   0.226382
 C 0.147 0.1648 0.9718   0.226382
 C 0.353 0.3352 0.9718   0.226382
 C 0.897 0.5852 0.2218   0.226382
 C 0.103 0.4148 0.2218   0.226382
 C 0.147 0.6648 0.4718   0.226382
 C 0.353 0.8352 0.4718   0.226382
 C 0.376 0.1316 0.2696   0.222301
 C 0.624 0.8684 0.2696   0.222301
 C 0.626 0.1184 0.5196   0.222301
 C 0.874 0.3816 0.5196   0.222301
 C 0.376 0.6316 0.7696   0.222301
 C 0.624 0.3684 0.7696   0.222301
 C 0.626 0.6184 0.0196   0.222301
 C 0.874 0.8816 0.0196   0.222301
 C 0.876 0.1316 0.7696   0.222301
 C 0.124 0.8684 0.7696   0.222301
 C 0.126 0.1184 0.0196   0.222301
 C 0.374 0.3816 0.0196   0.222301
 C 0.876 0.6316 0.2696   0.222301
 C 0.124 0.3684 0.2696   0.222301
 C 0.126 0.6184 0.5196   0.222301
 C 0.374 0.8816 0.5196   0.222301
 C 0.533 0.0446 0.3524   0.284253
 C 0.467 0.9554 0.3524   0.284254
 C 0.783 0.2054 0.6024   0.284254
 C 0.717 0.2946 0.6024   0.284253
 C 0.533 0.5446 0.8524   0.284253
 C 0.467 0.4554 0.8524   0.284254
 C 0.783 0.7054 0.1024   0.284254
 C 0.717 0.7946 0.1024   0.284253
 C 0.033 0.0446 0.8524   0.284254
 C 0.967 0.9554 0.8524   0.284253
 C 0.283 0.2054 0.1024   0.284253
 C 0.217 0.2946 0.1024   0.284254
 C 0.033 0.5446 0.3524   0.284254
 C 0.967 0.4554 0.3524   0.284253
 C 0.283 0.7054 0.6024   0.284253
 C 0.217 0.7946 0.6024   0.284254
 C 0.1177 0.1192 0.4893   0.222907
 C 0.8823 0.8808 0.4893   0.222907
 C 0.3677 0.1308 0.7393   0.222907
 C 0.1323 0.3692 0.7393   0.222907
 C 0.1177 0.6192 0.9893   0.222907
 C 0.8823 0.3808 0.9893   0.222907
 C 0.3677 0.6308 0.2393   0.222907
 C 0.1323 0.8692 0.2393   0.222907
 C 0.6177 0.1192 0.9893   0.222907
 C 0.3823 0.8808 0.9893   0.222907
 C 0.8677 0.1308 0.2393   0.222907
 C 0.6323 0.3692 0.2393   0.222907
 C 0.6177 0.6192 0.4893   0.222907
 C 0.3823 0.3808 0.4893   0.222907
 C 0.8677 0.6308 0.7393   0.222907
 C 0.6323 0.8692 0.7393   0.222907
 C 0.1374 0.169 0.4426   0.260878
 C 0.8626 0.831 0.4426   0.260878
 C 0.3874 0.081 0.6926   0.260878
 C 0.1126 0.419 0.6926   0.260878
 C 0.1374 0.669 0.9426   0.260878
 C 0.8626 0.331 0.9426   0.260878
 C 0.3874 0.581 0.1926   0.260878
 C 0.1126 0.919 0.1926   0.260878
 C 0.6374 0.169 0.9426   0.260878
 C 0.3626 0.831 0.9426   0.260878
 C 0.8874 0.081 0.1926   0.260878
 C 0.6126 0.419 0.1926   0.260878
 C 0.6374 0.669 0.4426   0.260878
 C 0.3626 0.331 0.4426   0.260878
 C 0.8874 0.581 0.6926   0.260878
 C 0.6126 0.919 0.6926   0.260878
 C 0.2675 0.2007 0.5721   0.209015
 C 0.7325 0.7993 0.5721   0.209015
 C 0.5175 0.0493 0.8221   0.209015
 C 0.9825 0.4507 0.8221   0.209015
 C 0.2675 0.7007 0.0721   0.209015
 C 0.7325 0.2993 0.0721   0.209015
 C 0.5175 0.5493 0.3221   0.209015
 C 0.9825 0.9507 0.3221   0.209015
 C 0.7675 0.2007 0.0721   0.209014
 C 0.2325 0.7993 0.0721   0.209014
 C 0.0175 0.0493 0.3221   0.209014
 C 0.4825 0.4507 0.3221   0.209014
 C 0.7675 0.7007 0.5721   0.209014
 C 0.2325 0.2993 0.5721   0.209014
 C 0.0175 0.5493 0.8221   0.209014
 C 0.4825 0.9507 0.8221   0.209014
 N 0.415 0.0719 0.2569   -0.463808
 N 0.585 0.9281 0.2569   -0.463808
 N 0.665 0.1781 0.5069   -0.463808
 N 0.835 0.3219 0.5069   -0.463808
 N 0.415 0.5719 0.7569   -0.463808
 N 0.585 0.4281 0.7569   -0.463808
 N 0.665 0.6781 0.0069   -0.463808
 N 0.835 0.8219 0.0069   -0.463808
 N 0.915 0.0719 0.7569   -0.463808
 N 0.085 0.9281 0.7569   -0.463808
 N 0.165 0.1781 0.0069   -0.463808
 N 0.335 0.3219 0.0069   -0.463808
 N 0.915 0.5719 0.2569   -0.463808
 N 0.085 0.4281 0.2569   -0.463808
 N 0.165 0.6781 0.5069   -0.463808
 N 0.335 0.8219 0.5069   -0.463808
 N 0.353 0.1392 0.215   -0.11619
 N 0.647 0.8608 0.215   -0.11619
 N 0.603 0.1108 0.465   -0.11619
 N 0.897 0.3892 0.465   -0.11619
 N 0.353 0.6392 0.715   -0.11619
 N 0.647 0.3608 0.715   -0.11619
 N 0.603 0.6108 0.965   -0.11619
 N 0.897 0.8892 0.965   -0.11619
 N 0.853 0.1392 0.715   -0.11619
 N 0.147 0.8608 0.715   -0.11619
 N 0.103 0.1108 0.965   -0.11619
 N 0.397 0.3892 0.965   -0.11619
 N 0.853 0.6392 0.215   -0.11619
 N 0.147 0.3608 0.215   -0.11619
 N 0.103 0.6108 0.465   -0.11619
 N 0.397 0.8892 0.465   -0.11619
 N 0.349 0.1684 0.2445   -0.203446
 N 0.651 0.8316 0.2445   -0.203446
 N 0.599 0.0816 0.4945   -0.203446
 N 0.901 0.4184 0.4945   -0.203446
 N 0.349 0.6684 0.7445   -0.203446
 N 0.651 0.3316 0.7445   -0.203446
 N 0.599 0.5816 0.9945   -0.203446
 N 0.901 0.9184 0.9945   -0.203446
 N 0.849 0.1684 0.7445   -0.203446
 N 0.151 0.8316 0.7445   -0.203446
 N 0.099 0.0816 0.9945   -0.203446
 N 0.401 0.4184 0.9945   -0.203446
 N 0.849 0.6684 0.2445   -0.203446
 N 0.151 0.3316 0.2445   -0.203446
 N 0.099 0.5816 0.4945   -0.203446
 N 0.401 0.9184 0.4945   -0.203446
 N 0.525 0.0341 0.3839   -0.249017
 N 0.475 0.9659 0.3839   -0.249017
 N 0.775 0.2159 0.6339   -0.249017
 N 0.725 0.2841 0.6339   -0.249017
 N 0.525 0.5341 0.8839   -0.249017
 N 0.475 0.4659 0.8839   -0.249017
 N 0.775 0.7159 0.1339   -0.249017
 N 0.725 0.7841 0.1339   -0.249017
 N 0.025 0.0341 0.8839   -0.249017
 N 0.975 0.9659 0.8839   -0.249017
 N 0.275 0.2159 0.1339   -0.249017
 N 0.225 0.2841 0.1339   -0.249017
 N 0.025 0.5341 0.3839   -0.249017
 N 0.975 0.4659 0.3839   -0.249017
 N 0.275 0.7159 0.6339   -0.249017
 N 0.225 0.7841 0.6339   -0.249017
 N 0.5 0.0 0.3332   -0.418754
 N 0.75 0.25 0.5832   -0.418754
 N 0.5 0.5 0.8332   -0.418754
 N 0.75 0.75 0.0832   -0.418754
 N 0.0 0.0 0.8332   -0.418754
 N 0.25 0.25 0.0832   -0.418754
 N 0.0 0.5 0.3332   -0.418754
 N 0.25 0.75 0.5832   -0.418754
 N 0.1635 0.1772 0.4757   -0.443737
 N 0.8365 0.8228 0.4757   -0.443737
 N 0.4135 0.0728 0.7257   -0.443737
 N 0.0865 0.4272 0.7257   -0.443737
 N 0.1635 0.6772 0.9757   -0.443737
 N 0.8365 0.3228 0.9757   -0.443737
 N 0.4135 0.5728 0.2257   -0.443737
 N 0.0865 0.9272 0.2257   -0.443737
 N 0.6635 0.1772 0.9757   -0.443737
 N 0.3365 0.8228 0.9757   -0.443737
 N 0.9135 0.0728 0.2257   -0.443737
 N 0.5865 0.4272 0.2257   -0.443737
 N 0.6635 0.6772 0.4757   -0.443737
 N 0.3365 0.3228 0.4757   -0.443737
 N 0.9135 0.5728 0.7257   -0.443737
 N 0.5865 0.9272 0.7257   -0.443737
 N 0.0757 0.0817 0.4652   -0.179054
 N 0.9243 0.9183 0.4652   -0.179054
 N 0.3257 0.1683 0.7152   -0.179054
 N 0.1743 0.3317 0.7152   -0.179054
 N 0.0757 0.5817 0.9652   -0.179054
 N 0.9243 0.4183 0.9652   -0.179054
 N 0.3257 0.6683 0.2152   -0.179054
 N 0.1743 0.8317 0.2152   -0.179054
 N 0.5757 0.0817 0.9652   -0.179054
 N 0.4243 0.9183 0.9652   -0.179054
 N 0.8257 0.1683 0.2152   -0.179054
 N 0.6743 0.3317 0.2152   -0.179054
 N 0.5757 0.5817 0.4652   -0.179054
 N 0.4243 0.4183 0.4652   -0.179054
 N 0.8257 0.6683 0.7152   -0.179054
 N 0.6743 0.8317 0.7152   -0.179054
 N 0.092 0.1143 0.43434   -0.228055
 N 0.908 0.8857 0.43434   -0.228056
 N 0.342 0.1357 0.68434   -0.228056
 N 0.158 0.3643 0.68434   -0.228055
 N 0.092 0.6143 0.93434   -0.228055
 N 0.908 0.3857 0.93434   -0.228056
 N 0.342 0.6357 0.18434   -0.228056
 N 0.158 0.8643 0.18434   -0.228055
 N 0.592 0.1143 0.93434   -0.228056
 N 0.408 0.8857 0.93434   -0.228055
 N 0.842 0.1357 0.18434   -0.228055
 N 0.658 0.3643 0.18434   -0.228056
 N 0.592 0.6143 0.43434   -0.228056
 N 0.408 0.3857 0.43434   -0.228055
 N 0.842 0.6357 0.68434   -0.228055
 N 0.658 0.8643 0.68434   -0.228056
 N 0.2676 0.2185 0.60394   -0.170988
 N 0.7324 0.7815 0.60394   -0.170988
 N 0.5176 0.0315 0.85394   -0.170988
 N 0.9824 0.4685 0.85394   -0.170988
 N 0.2676 0.7185 0.10394   -0.170988
 N 0.7324 0.2815 0.10394   -0.170988
 N 0.5176 0.5315 0.35394   -0.170988
 N 0.9824 0.9685 0.35394   -0.170988
 N 0.7676 0.2185 0.10394   -0.17098
 N 0.2324 0.7815 0.10394   -0.17098
 N 0.0176 0.0315 0.35394   -0.17098
 N 0.4824 0.4685 0.35394   -0.17098
 N 0.7676 0.7185 0.60394   -0.17098
 N 0.2324 0.2815 0.60394   -0.17098
 N 0.0176 0.5315 0.85394   -0.17098
 N 0.4824 0.9685 0.85394   -0.17098
 N 0.25 0.25 0.5506   -0.447657
 N 0.75 0.75 0.5506   -0.447657
 N 0.5 0.0 0.8006   -0.447657
 N 0.0 0.5 0.8006   -0.447657
 N 0.25 0.75 0.0506   -0.447657
 N 0.75 0.25 0.0506   -0.447657
 N 0.5 0.5 0.3006   -0.447657
 N 0.0 0.0 0.3006   -0.447657
