{'_ref': 'TBD', '_srcid': 'CAKYAQ_clean', 'submitters': [{'name': 'Dalar Nazarian Jeff Camp and David Sholl', 'email': 'dalar@gatech.edu jcamp6@gatech.edu'}], '_method': 'VASP DFT with PBE;DDEC'}
data_MgH6(C3O)4
_symmetry_space_group_name_H-M   'P 1'
_cell_length_a   11.09419979
_cell_length_b   11.09420021
_cell_length_c   21.04400000
_cell_angle_alpha   95.89300134
_cell_angle_beta   95.89300156
_cell_angle_gamma   107.21500173
_symmetry_Int_Tables_number   1
_chemical_formula_structural   MgH6(C3O)4
_chemical_formula_sum   'Mg6 H36 C72 O24'
_cell_volume   2436.76210122
_cell_formula_units_Z   6
loop_
 _symmetry_equiv_pos_site_id
 _symmetry_equiv_pos_as_xyz
  1  'x, y, z'
loop_
 _atom_site_label
 _atom_site_fract_x
 _atom_site_fract_y
 _atom_site_fract_z
 _atom_site_charge
 Mg 0.98216 0.49898 0.19429   1.596483
 Mg 0.50102 0.01784 0.30571   1.596482
 Mg 0.01784 0.50102 0.80571   1.596483
 Mg 0.49898 0.98216 0.69429   1.596482
 Mg 0.75266 0.24734 0.25   1.563889
 Mg 0.24734 0.75266 0.75   1.563889
 H 0.8986 0.9796 0.1493   0.115188
 H 0.0126 0.2424 0.0304   0.109928
 H 0.9346 0.8242 0.078   0.114211
 H 0.7198 0.6064 0.077   0.102164
 H 0.4767 0.2643 0.0975   0.084481
 H 0.6635 0.7249 0.9894   0.101194
 H 0.0055 0.7223 0.396   0.102786
 H 0.9499 0.3435 0.3892   0.109614
 H 0.0314 0.7482 0.5071   0.081451
 H 0.0204 0.1014 0.3507   0.115188
 H 0.7576 0.9874 0.4696   0.109928
 H 0.1758 0.0654 0.422   0.114211
 H 0.3936 0.2802 0.423   0.102164
 H 0.7357 0.5233 0.4025   0.084481
 H 0.2751 0.3365 0.5106   0.101194
 H 0.2777 0.9945 0.104   0.102786
 H 0.6565 0.0501 0.1108   0.109614
 H 0.2518 0.9686 0.9929   0.081451
 H 0.1014 0.0204 0.8507   0.115188
 H 0.9874 0.7576 0.9696   0.109928
 H 0.0654 0.1758 0.922   0.114211
 H 0.2802 0.3936 0.923   0.102164
 H 0.5233 0.7357 0.9025   0.08448
 H 0.3365 0.2751 0.0106   0.101193
 H 0.9945 0.2777 0.604   0.102786
 H 0.0501 0.6565 0.6108   0.109614
 H 0.9686 0.2518 0.4929   0.081452
 H 0.9796 0.8986 0.6493   0.115188
 H 0.2424 0.0126 0.5304   0.109928
 H 0.8242 0.9346 0.578   0.114211
 H 0.6064 0.7198 0.577   0.102164
 H 0.2643 0.4767 0.5975   0.08448
 H 0.7249 0.6635 0.4894   0.101193
 H 0.7223 0.0055 0.896   0.102786
 H 0.3435 0.9499 0.8892   0.109614
 H 0.7482 0.0314 0.0071   0.081452
 C 0.9185 0.2245 0.14108   0.774578
 C 0.9504 0.127 0.09559   -0.142796
 C 0.9279 0.000500000000002 0.10979   -0.043103
 C 0.994 0.157 0.0391   -0.078692
 C 0.0124 0.0632 0.99268   0.04501
 C 0.9478 0.9078 0.06716   -0.147617
 C 0.70638 0.42482 0.1502   0.794784
 C 0.61282 0.43558 0.09528   -0.151788
 C 0.64199 0.53981 0.06329   -0.084138
 C 0.5577 0.5497 0.01002   0.043166
 C 0.4971 0.3363 0.07516   -0.0328
 C 0.5862 0.6572 0.97623   -0.150859
 C 0.96214 0.51586 0.31065   0.753503
 C 0.97428 0.52832 0.38242   -0.124813
 C 0.99995 0.65065 0.41802   -0.054793
 C 0.96777 0.42523 0.41356   -0.05102
 C 0.98757 0.43863 0.48224   0.038561
 C 0.0167 0.6661 0.48373   -0.112173
 C 0.7755 0.0815 0.35892   0.774578
 C 0.873 0.0496 0.40441   -0.142796
 C 0.9995 0.0721 0.39021   -0.043104
 C 0.843 0.006 0.4609   -0.078692
 C 0.9368 0.9876 0.50732   0.04501
 C 0.0922 0.0522 0.43284   -0.147617
 C 0.57518 0.29362 0.3498   0.794783
 C 0.56442 0.38718 0.40472   -0.151787
 C 0.46019 0.35801 0.43671   -0.084136
 C 0.4503 0.4423 0.48998   0.043166
 C 0.6637 0.5029 0.42484   -0.032801
 C 0.3428 0.4138 0.52377   -0.150859
 C 0.48414 0.03786 0.18935   0.753503
 C 0.47168 0.02572 0.11758   -0.124814
 C 0.34935 5.00000000017e-05 0.08198   -0.054793
 C 0.57477 0.03223 0.08644   -0.051021
 C 0.56137 0.01243 0.01776   0.038561
 C 0.3339 0.9833 0.01627   -0.112173
 C 0.0815 0.7755 0.85892   0.774578
 C 0.0496 0.873 0.90441   -0.142796
 C 0.0721 0.9995 0.89021   -0.043104
 C 0.006 0.843 0.9609   -0.078692
 C 0.9876 0.9368 0.00732   0.045011
 C 0.0522 0.0922 0.93284   -0.147616
 C 0.29362 0.57518 0.8498   0.794785
 C 0.38718 0.56442 0.90472   -0.15179
 C 0.35801 0.46019 0.93671   -0.084137
 C 0.4423 0.4503 0.98998   0.043165
 C 0.5029 0.6637 0.92484   -0.032791
 C 0.4138 0.3428 0.02377   -0.150851
 C 0.03786 0.48414 0.68935   0.753503
 C 0.02572 0.47168 0.61758   -0.124814
 C 5.00000000017e-05 0.34935 0.58198   -0.054793
 C 0.03223 0.57477 0.58644   -0.05102
 C 0.01243 0.56137 0.51776   0.038559
 C 0.9833 0.3339 0.51627   -0.112174
 C 0.2245 0.9185 0.64108   0.774578
 C 0.127 0.9504 0.59559   -0.142796
 C 0.000500000000002 0.9279 0.60979   -0.043104
 C 0.157 0.994 0.5391   -0.078692
 C 0.0632 0.0124 0.49268   0.045011
 C 0.9078 0.9478 0.56716   -0.147616
 C 0.42482 0.70638 0.6502   0.794784
 C 0.43558 0.61282 0.59528   -0.151789
 C 0.53981 0.64199 0.56329   -0.084136
 C 0.5497 0.5577 0.51002   0.043164
 C 0.3363 0.4971 0.57516   -0.032793
 C 0.6572 0.5862 0.47623   -0.150851
 C 0.51586 0.96214 0.81065   0.753503
 C 0.52832 0.97428 0.88242   -0.124814
 C 0.65065 0.99995 0.91802   -0.054793
 C 0.42523 0.96777 0.91356   -0.051021
 C 0.43863 0.98757 0.98224   0.038559
 C 0.6661 0.0167 0.98373   -0.112174
 O 0.95715 0.33825 0.13217   -0.808623
 O 0.85533 0.18121 0.18491   -0.682888
 O 0.81207 0.51045 0.16087   -0.812959
 O 0.67267 0.32995 0.17989   -0.709019
 O 0.00557 0.61293 0.28451   -0.723069
 O 0.91605 0.40633 0.27633   -0.837903
 O 0.66175 0.04285 0.36783   -0.808622
 O 0.81879 0.14467 0.31509   -0.682888
 O 0.48955 0.18793 0.33913   -0.812959
 O 0.67005 0.32733 0.32011   -0.709018
 O 0.38707 0.99443 0.21549   -0.723069
 O 0.59367 0.08395 0.22367   -0.837902
 O 0.04285 0.66175 0.86783   -0.808623
 O 0.14467 0.81879 0.81509   -0.682888
 O 0.18793 0.48955 0.83913   -0.812959
 O 0.32733 0.67005 0.82011   -0.709019
 O 0.99443 0.38707 0.71549   -0.723069
 O 0.08395 0.59367 0.72367   -0.837903
 O 0.33825 0.95715 0.63217   -0.808622
 O 0.18121 0.85533 0.68491   -0.682888
 O 0.51045 0.81207 0.66087   -0.812959
 O 0.32995 0.67267 0.67989   -0.709019
 O 0.61293 0.00557 0.78451   -0.723069
 O 0.40633 0.91605 0.77633   -0.837902
