{'_ref': 'TBD', '_srcid': 'CAKYAQ_clean', 'submitters': [{'name': 'Dalar Nazarian Jeff Camp and David Sholl', 'email': 'dalar@gatech.edu jcamp6@gatech.edu'}], '_method': 'VASP DFT with PBE;DDEC'}
data_Co2H7C10NO7
_symmetry_space_group_name_H-M   'P 1'
_cell_length_a   10.09399983
_cell_length_b   12.76969984
_cell_length_c   13.07260000
_cell_angle_alpha   71.19219918
_cell_angle_beta   67.28959841
_cell_angle_gamma   66.71950016
_symmetry_Int_Tables_number   1
_chemical_formula_structural   Co2H7C10NO7
_chemical_formula_sum   'Co8 H28 C40 N4 O28'
_cell_volume   1398.86142615
_cell_formula_units_Z   4
loop_
 _symmetry_equiv_pos_site_id
 _symmetry_equiv_pos_as_xyz
  1  'x, y, z'
loop_
 _atom_site_label
 _atom_site_fract_x
 _atom_site_fract_y
 _atom_site_fract_z
 _atom_site_charge
 Co 0.96678 0.61474 0.8973   1.057479
 Co 0.24944 0.16696 0.26546   1.118107
 Co 0.47882 0.88526 0.6027   1.057757
 Co 0.68186 0.33304 0.23454   1.118822
 Co 0.03322 0.38526 0.1027   1.057481
 Co 0.75056 0.83304 0.73454   1.118108
 Co 0.52118 0.11474 0.3973   1.057758
 Co 0.31814 0.66696 0.76546   1.118824
 H 0.8549 0.8895 0.1517   0.121504
 H 0.9982 0.7508 0.0424   0.075192
 H 0.6377 0.7306 0.0184   0.08201
 H 0.4863 0.8713 0.1249   0.134082
 H 0.1462 0.9286 0.7444   0.08319
 H 0.0235 0.0172 0.6008   0.146697
 H 0.0888 0.0633 0.6613   0.153777
 H 0.8961 0.6105 0.3483   0.120606
 H 0.7914 0.7492 0.4576   0.075762
 H 0.3867 0.7694 0.4816   0.079991
 H 0.4825 0.6287 0.3751   0.136396
 H 0.8192 0.5714 0.7556   0.082956
 H 0.6415 0.4828 0.8992   0.144984
 H 0.8134 0.4367 0.8387   0.153498
 H 0.1451 0.1105 0.8483   0.121492
 H 0.0018 0.2492 0.9576   0.075188
 H 0.3623 0.2694 0.9816   0.08201
 H 0.5137 0.1287 0.8751   0.134076
 H 0.8538 0.0714 0.2556   0.083189
 H 0.9765 0.9828 0.3992   0.146698
 H 0.9112 0.9367 0.3387   0.15376
 H 0.1039 0.3895 0.6517   0.120595
 H 0.2086 0.2508 0.5424   0.075758
 H 0.6133 0.2306 0.5184   0.079991
 H 0.5175 0.3713 0.6249   0.13639
 H 0.1808 0.4286 0.2444   0.082955
 H 0.3585 0.5172 0.1008   0.144985
 H 0.1866 0.5633 0.1613   0.153482
 C 0.5544 0.9868 0.2222   0.673017
 C 0.6542 0.8954 0.1508   -0.025625
 C 0.808 0.8587 0.1249   -0.162491
 C 0.8936 0.7754 0.0584   0.167637
 C 0.683 0.7638 0.044   0.157453
 C 0.5906 0.8477 0.1095   -0.141798
 C 0.0324 0.8391 0.7519   0.631508
 C 0.1545 0.8985 0.6813   0.187233
 C 0.1156 0.008 0.6148   -0.399555
 C 0.2192 0.0473 0.5029   0.756939
 C 0.7634 0.5132 0.2778   0.673986
 C 0.7004 0.6046 0.3492   -0.026339
 C 0.7916 0.6413 0.3751   -0.160962
 C 0.7274 0.7246 0.4416   0.166192
 C 0.4908 0.7362 0.456   0.160791
 C 0.5478 0.6523 0.3905   -0.145345
 C 0.6234 0.6609 0.7481   0.633159
 C 0.7343 0.6015 0.8187   0.186679
 C 0.7384 0.492 0.8852   -0.396048
 C 0.7694 0.4527 0.9971   0.75302
 C 0.4456 0.0132 0.7778   0.673017
 C 0.3458 0.1046 0.8492   -0.025627
 C 0.192 0.1413 0.8751   -0.162487
 C 0.1064 0.2246 0.9416   0.167637
 C 0.317 0.2362 0.956   0.157452
 C 0.4094 0.1523 0.8905   -0.141795
 C 0.9676 0.1609 0.2481   0.631508
 C 0.8455 0.1015 0.3187   0.187232
 C 0.8844 0.992 0.3852   -0.399549
 C 0.7808 0.9527 0.4971   0.756938
 C 0.2366 0.4868 0.7222   0.673986
 C 0.2996 0.3954 0.6508   -0.026341
 C 0.2084 0.3587 0.6249   -0.160958
 C 0.2726 0.2754 0.5584   0.166192
 C 0.5092 0.2638 0.544   0.16079
 C 0.4522 0.3477 0.6095   -0.145342
 C 0.3766 0.3391 0.2519   0.633159
 C 0.2657 0.3985 0.1813   0.186678
 C 0.2616 0.508 0.1148   -0.396043
 C 0.2306 0.5473 0.0029   0.753019
 N 0.834 0.7284 0.016   -0.36698
 N 0.5784 0.7716 0.484   -0.366229
 N 0.166 0.2716 0.984   -0.36698
 N 0.4216 0.2284 0.516   -0.366229
 O 0.6115 0.0071 0.2799   -0.577177
 O 0.4213 0.0321 0.2169   -0.626244
 O 0.08165 0.7343 0.7962   -0.666115
 O 0.897 0.8931 0.7603   -0.600103
 O 0.30129 0.82292 0.6757   -0.702135
 O 0.1586 0.1246 0.433   -0.613051
 O 0.35814 0.02352 0.4972   -0.665236
 O 0.8985 0.4929 0.2201   -0.578041
 O 0.6703 0.4679 0.2831   -0.626579
 O 0.61215 0.7657 0.7038   -0.666203
 O 0.5504 0.6069 0.7397   -0.600687
 O 0.79991 0.67708 0.8243   -0.70255
 O 0.7162 0.3754 0.067   -0.611488
 O 0.87886 0.47648 0.0028   -0.663415
 O 0.3885 0.9929 0.7201   -0.577177
 O 0.5787 0.9679 0.7831   -0.626243
 O 0.91835 0.2657 0.2038   -0.666115
 O 0.103 0.1069 0.2397   -0.600102
 O 0.69871 0.17708 0.3243   -0.702135
 O 0.8414 0.8754 0.567   -0.61305
 O 0.64186 0.97648 0.5028   -0.665236
 O 0.1015 0.5071 0.7799   -0.57804
 O 0.3297 0.5321 0.7169   -0.626578
 O 0.38785 0.2343 0.2962   -0.666203
 O 0.4496 0.3931 0.2603   -0.600686
 O 0.20009 0.32292 0.1757   -0.702549
 O 0.2838 0.6246 0.933   -0.611488
 O 0.12114 0.52352 0.9972   -0.663415
