{'_ref': 'TBD', '_srcid': 'CAKYAQ_clean', 'submitters': [{'name': 'Dalar Nazarian Jeff Camp and David Sholl', 'email': 'dalar@gatech.edu jcamp6@gatech.edu'}], '_method': 'VASP DFT with PBE;DDEC'}
data_SrH8C14SO6
_symmetry_space_group_name_H-M   'P 1'
_cell_length_a   5.73170000
_cell_length_b   12.17040043
_cell_length_c   22.89770000
_cell_angle_alpha   98.85100135
_cell_angle_beta   90.00000000
_cell_angle_gamma   90.00000000
_symmetry_Int_Tables_number   1
_chemical_formula_structural   SrH8C14SO6
_chemical_formula_sum   'Sr4 H32 C56 S4 O24'
_cell_volume   1578.25611158
_cell_formula_units_Z   4
loop_
 _symmetry_equiv_pos_site_id
 _symmetry_equiv_pos_as_xyz
  1  'x, y, z'
loop_
 _atom_site_label
 _atom_site_fract_x
 _atom_site_fract_y
 _atom_site_fract_z
 _atom_site_charge
 Sr 0.25388 0.63327 0.22428   1.640839
 Sr 0.75388 0.86673 0.27572   1.640839
 Sr 0.74612 0.36673 0.77572   1.640839
 Sr 0.24612 0.13327 0.72428   1.640839
 H 0.5118 0.3717 0.9358   0.096796
 H 0.4353 0.4181 0.0358   0.101808
 H 0.7968 0.2855 0.0099   0.098258
 H 0.8727 0.2411 0.9099   0.113259
 H 0.4339 0.3406 0.1698   0.104414
 H 0.5175 0.1908 0.2168   0.089296
 H 0.8918 0.0569 0.1719   0.10401
 H 0.8075 0.2051 0.1225   0.098908
 H 0.0118 0.1283 0.5642   0.096796
 H 0.9353 0.0819 0.4642   0.101808
 H 0.2968 0.2145 0.4901   0.098258
 H 0.3727 0.2589 0.5901   0.113259
 H 0.9339 0.1594 0.3302   0.104414
 H 0.0175 0.3092 0.2832   0.089296
 H 0.3918 0.4431 0.3281   0.10401
 H 0.3075 0.2949 0.3775   0.098908
 H 0.4882 0.6283 0.0642   0.096796
 H 0.5647 0.5819 0.9642   0.101808
 H 0.2032 0.7145 0.9901   0.098258
 H 0.1273 0.7589 0.0901   0.113259
 H 0.5661 0.6594 0.8302   0.104414
 H 0.4825 0.8092 0.7832   0.089296
 H 0.1082 0.9431 0.8281   0.10401
 H 0.1925 0.7949 0.8775   0.098908
 H 0.9882 0.8717 0.4358   0.096796
 H 0.0647 0.9181 0.5358   0.101808
 H 0.7032 0.7855 0.5099   0.098258
 H 0.6273 0.7411 0.4099   0.113259
 H 0.0661 0.8406 0.6698   0.104414
 H 0.9825 0.6908 0.7168   0.089296
 H 0.6082 0.5569 0.6719   0.10401
 H 0.6925 0.7051 0.6225   0.098908
 C 0.2466 0.2759 0.84728   0.749111
 C 0.1976 0.3028 0.91282   -0.108751
 C 0.3671 0.3554 0.9507   -0.039087
 C 0.322 0.3835 0.01031   -0.033899
 C 0.106 0.3593 0.03131   -0.20778
 C 0.9393 0.3042 0.99464   -0.035922
 C 0.9856 0.2771 0.93513   -0.048088
 C 0.1116 0.2868 0.14228   -0.224168
 C 0.3258 0.2836 0.17007   -0.023426
 C 0.3743 0.1941 0.19809   -0.048458
 C 0.2139 0.108 0.19908   -0.112313
 C 0.000799999999998 0.1132 0.17116   -0.052352
 C 0.9492 0.2022 0.14197   -0.034266
 C 0.2708 0.0129 0.23225   0.772059
 C 0.7466 0.2241 0.65272   0.749111
 C 0.6976 0.1972 0.58718   -0.108751
 C 0.8671 0.1446 0.5493   -0.039087
 C 0.822 0.1165 0.48969   -0.033899
 C 0.606 0.1407 0.46869   -0.20778
 C 0.4393 0.1958 0.50536   -0.035922
 C 0.4856 0.2229 0.56487   -0.048088
 C 0.6116 0.2132 0.35772   -0.224168
 C 0.8258 0.2164 0.32993   -0.023426
 C 0.8743 0.3059 0.30191   -0.048458
 C 0.7139 0.392 0.30092   -0.112313
 C 0.5008 0.3868 0.32884   -0.052352
 C 0.4492 0.2978 0.35803   -0.034266
 C 0.7708 0.4871 0.26775   0.772059
 C 0.7534 0.7241 0.15272   0.749111
 C 0.8024 0.6972 0.08718   -0.108751
 C 0.6329 0.6446 0.0493   -0.039087
 C 0.678 0.6165 0.98969   -0.033899
 C 0.894 0.6407 0.96869   -0.20778
 C 0.0607 0.6958 0.00536   -0.035922
 C 0.0144 0.7229 0.06487   -0.048088
 C 0.8884 0.7132 0.85772   -0.224168
 C 0.6742 0.7164 0.82993   -0.023426
 C 0.6257 0.8059 0.80191   -0.048458
 C 0.7861 0.892 0.80092   -0.112313
 C 0.9992 0.8868 0.82884   -0.052352
 C 0.0508 0.7978 0.85803   -0.034266
 C 0.7292 0.9871 0.76775   0.772059
 C 0.2534 0.7759 0.34728   0.749111
 C 0.3024 0.8028 0.41282   -0.108751
 C 0.1329 0.8554 0.4507   -0.039087
 C 0.178 0.8835 0.51031   -0.033899
 C 0.394 0.8593 0.53131   -0.20778
 C 0.5607 0.8042 0.49464   -0.035922
 C 0.5144 0.7771 0.43513   -0.048088
 C 0.3884 0.7868 0.64228   -0.224168
 C 0.1742 0.7836 0.67007   -0.023426
 C 0.1257 0.6941 0.69809   -0.048458
 C 0.2861 0.608 0.69908   -0.112313
 C 0.4992 0.6132 0.67116   -0.052352
 C 0.5508 0.7022 0.64197   -0.034266
 C 0.2292 0.5129 0.73225   0.772059
 S 0.03731 0.4009 0.10698   1.15058
 S 0.53731 0.0991 0.39302   1.15058
 S 0.96269 0.5991 0.89302   1.15058
 S 0.46269 0.9009 0.60698   1.15058
 O 0.4804 0.99581 0.24127   -0.735515
 O 0.1024 0.9615 0.249   -0.730182
 O 0.4536 0.26557 0.82956   -0.726425
 O 0.0724 0.26197 0.81336   -0.787707
 O 0.1928 0.49214 0.12872   -0.6323
 O 0.7888 0.4178 0.11122   -0.538702
 O 0.9804 0.50419 0.25873   -0.735515
 O 0.6024 0.5385 0.251   -0.730182
 O 0.9536 0.23443 0.67044   -0.726425
 O 0.5724 0.23803 0.68664   -0.787707
 O 0.6928 0.00786 0.37128   -0.6323
 O 0.2888 0.0822 0.38878   -0.538702
 O 0.5196 0.00419 0.75873   -0.735515
 O 0.8976 0.0385 0.751   -0.730182
 O 0.5464 0.73443 0.17044   -0.726425
 O 0.9276 0.73803 0.18664   -0.787707
 O 0.8072 0.50786 0.87128   -0.6323
 O 0.2112 0.5822 0.88878   -0.538702
 O 0.0196 0.49581 0.74127   -0.735515
 O 0.3976 0.4615 0.749   -0.730182
 O 0.0464 0.76557 0.32956   -0.726425
 O 0.4276 0.76197 0.31336   -0.787707
 O 0.3072 0.99214 0.62872   -0.6323
 O 0.7112 0.9178 0.61122   -0.538702
