{'_ref': 'TBD', '_srcid': 'CAKYAQ_clean', 'submitters': [{'name': 'Dalar Nazarian Jeff Camp and David Sholl', 'email': 'dalar@gatech.edu jcamp6@gatech.edu'}], '_method': 'VASP DFT with PBE;DDEC'}
data_MnH16C19O4
_symmetry_space_group_name_H-M   'P 1'
_cell_length_a   13.86690015
_cell_length_b   14.89319998
_cell_length_c   15.02727720
_cell_angle_alpha   119.18802028
_cell_angle_beta   116.93286590
_cell_angle_gamma   90.97630048
_symmetry_Int_Tables_number   1
_chemical_formula_structural   MnH16C19O4
_chemical_formula_sum   'Mn4 H64 C76 O16'
_cell_volume   2299.90657497
_cell_formula_units_Z   4
loop_
 _symmetry_equiv_pos_site_id
 _symmetry_equiv_pos_as_xyz
  1  'x, y, z'
loop_
 _atom_site_label
 _atom_site_fract_x
 _atom_site_fract_y
 _atom_site_fract_z
 _atom_site_charge
 Mn 0.21284 0.96284 0.92568   1.05295
 Mn 0.78716 0.03716 0.07432   1.05295
 Mn 0.0 0.0 0.0   1.312163
 Mn 0.5 0.0 0.0   1.311785
 H 0.9517 0.628 0.5982   0.102782
 H 0.7886 0.8357 0.7202   0.089355
 H 0.6136 0.6996 0.57   0.110304
 H 0.4379 0.5147 0.3858   0.112782
 H 0.3183 0.3414 0.2212   0.100827
 H 0.5879 0.2447 0.216   0.096749
 H 0.796 0.3084 0.4024   0.081487
 H 0.8994 0.4167 0.5104   0.07094
 H 0.8071 0.4622 0.6172   0.093268
 H 0.8309 0.3491 0.5868   0.10267
 H 0.7062 0.3515 0.5098   0.083453
 H 0.8793 0.4664 0.3718   0.068422
 H 0.7748 0.359 0.2624   0.092653
 H 0.6627 0.4707 0.227   0.09351
 H 0.7644 0.4752 0.2044   0.105052
 H 0.7762 0.5714 0.3252   0.086655
 H 0.1465 0.9702 0.5982   0.103089
 H 0.4316 0.8845 0.7202   0.089159
 H 0.4564 0.8704 0.57   0.109516
 H 0.4479 0.8711 0.3858   0.112809
 H 0.4029 0.8798 0.2212   0.101131
 H 0.1281 0.9713 0.216   0.096961
 H 0.1064 0.094 0.4024   0.081571
 H 0.111 0.0937 0.5104   0.0712
 H 0.3101 0.155 0.6172   0.093315
 H 0.2559 0.2377 0.5868   0.102973
 H 0.3036 0.1583 0.5098   0.083384
 H 0.9925 0.9054 0.3718   0.068694
 H 0.9876 0.9034 0.2624   0.09273
 H 0.0643 0.7563 0.227   0.093508
 H 0.94 0.7292 0.2044   0.104713
 H 0.049 0.7538 0.3252   0.086677
 H 0.0483 0.372 0.4018   0.10278
 H 0.2114 0.1643 0.2798   0.089355
 H 0.3864 0.3004 0.43   0.110303
 H 0.5621 0.4853 0.6142   0.11278
 H 0.6817 0.6586 0.7788   0.100827
 H 0.4121 0.7553 0.784   0.096749
 H 0.204 0.6916 0.5976   0.081487
 H 0.1006 0.5833 0.4896   0.070937
 H 0.1929 0.5378 0.3828   0.093266
 H 0.1691 0.6509 0.4132   0.102666
 H 0.2938 0.6485 0.4902   0.08345
 H 0.1207 0.5336 0.6282   0.068419
 H 0.2252 0.641 0.7376   0.092653
 H 0.3373 0.5293 0.773   0.093509
 H 0.2356 0.5248 0.7956   0.105052
 H 0.2238 0.4286 0.6748   0.086652
 H 0.8535 0.0298 0.4018   0.103087
 H 0.5684 0.1155 0.2798   0.089159
 H 0.5436 0.1296 0.43   0.109516
 H 0.5521 0.1289 0.6142   0.112806
 H 0.5971 0.1202 0.7788   0.101131
 H 0.8719 0.0287 0.784   0.096961
 H 0.8936 0.906 0.5976   0.081571
 H 0.889 0.9063 0.4896   0.071197
 H 0.6899 0.845 0.3828   0.093314
 H 0.7441 0.7623 0.4132   0.102969
 H 0.6964 0.8417 0.4902   0.083382
 H 0.0075 0.0946 0.6282   0.068691
 H 0.0124 0.0966 0.7376   0.09273
 H 0.9357 0.2437 0.773   0.093507
 H 0.06 0.2708 0.7956   0.104713
 H 0.951 0.2462 0.6748   0.086674
 C 0.99912 0.82952 0.77004   0.67297
 C 0.88592 0.74472 0.67364   -0.15923
 C 0.8833 0.6422 0.5926   -0.073605
 C 0.78044 0.56224 0.50468   0.006179
 C 0.78597 0.76577 0.66494   -0.038025
 C 0.68196 0.68526 0.57592   -0.118321
 C 0.67959 0.58409 0.49618   0.013937
 C 0.58434 0.48374 0.39608   0.009331
 C 0.46836 0.46066 0.35092   -0.131901
 C 0.39789 0.35729 0.25398   -0.036481
 C 0.36423 0.16493 0.10206   0.717973
 C 0.44082 0.27712 0.20424   -0.157988
 C 0.55775 0.29965 0.2499   -0.08001
 C 0.62865 0.40305 0.3451   0.010593
 C 0.75698 0.44468 0.40936   0.055218
 C 0.8163 0.3848 0.4672   -0.114235
 C 0.7877 0.3871 0.5526   -0.29945
 C 0.7954 0.4363 0.325   -0.117194
 C 0.7455 0.4933 0.2654   -0.296064
 C 0.27092 0.94052 0.77004   0.672801
 C 0.28772 0.92892 0.67364   -0.160524
 C 0.2093 0.9504 0.5926   -0.07363
 C 0.22424 0.94244 0.50468   0.006243
 C 0.37897 0.89917 0.66494   -0.036935
 C 0.39396 0.89066 0.57592   -0.117912
 C 0.31659 0.91209 0.49618   0.014227
 C 0.31174 0.91234 0.39608   0.008777
 C 0.38256 0.89026 0.35092   -0.1319
 C 0.35609 0.89669 0.25398   -0.037395
 C 0.23783 0.93713 0.10206   0.717417
 C 0.26342 0.92712 0.20424   -0.156433
 C 0.19215 0.95025 0.2499   -0.080333
 C 0.21645 0.94205 0.3451   0.010523
 C 0.15238 0.96468 0.40936   0.05576
 C 0.1509 0.0824 0.4672   -0.114811
 C 0.2649 0.1655 0.5526   -0.299577
 C 0.0296 0.8887 0.325   -0.118427
 C 0.0199 0.7721 0.2654   -0.295373
 C 0.000880000000002 0.17048 0.22996   0.67297
 C 0.11408 0.25528 0.32636   -0.159231
 C 0.1167 0.3578 0.4074   -0.073605
 C 0.21956 0.43776 0.49532   0.006179
 C 0.21403 0.23423 0.33506   -0.038025
 C 0.31804 0.31474 0.42408   -0.118321
 C 0.32041 0.41591 0.50382   0.013937
 C 0.41566 0.51626 0.60392   0.009331
 C 0.53164 0.53934 0.64908   -0.1319
 C 0.60211 0.64271 0.74602   -0.036481
 C 0.63577 0.83507 0.89794   0.717973
 C 0.55918 0.72288 0.79576   -0.157988
 C 0.44225 0.70035 0.7501   -0.08001
 C 0.37135 0.59695 0.6549   0.010593
 C 0.24302 0.55532 0.59064   0.055218
 C 0.1837 0.6152 0.5328   -0.114234
 C 0.2123 0.6129 0.4474   -0.299448
 C 0.2046 0.5637 0.675   -0.117193
 C 0.2545 0.5067 0.7346   -0.296063
 C 0.72908 0.05948 0.22996   0.672801
 C 0.71228 0.07108 0.32636   -0.160524
 C 0.7907 0.0496 0.4074   -0.07363
 C 0.77576 0.05756 0.49532   0.006243
 C 0.62103 0.10083 0.33506   -0.036936
 C 0.60604 0.10934 0.42408   -0.117912
 C 0.68341 0.08791 0.50382   0.014227
 C 0.68826 0.08766 0.60392   0.008777
 C 0.61744 0.10974 0.64908   -0.131899
 C 0.64391 0.10331 0.74602   -0.037395
 C 0.76217 0.06287 0.89794   0.717417
 C 0.73658 0.07288 0.79576   -0.156433
 C 0.80785 0.04975 0.7501   -0.080333
 C 0.78355 0.05795 0.6549   0.010523
 C 0.84762 0.03532 0.59064   0.05576
 C 0.8491 0.9176 0.5328   -0.11481
 C 0.7351 0.8345 0.4474   -0.299575
 C 0.9704 0.1113 0.675   -0.118427
 C 0.9801 0.2279 0.7346   -0.295371
 O 0.08699 0.80409 0.78348   -0.541159
 O 0.00372 0.92692 0.83724   -0.69522
 O 0.40663 0.08803 0.07568   -0.721331
 O 0.2588 0.1462 0.04426   -0.579419
 O 0.19649 0.97939 0.78348   -0.540822
 O 0.33352 0.91032 0.83724   -0.69477
 O 0.16905 0.98765 0.07568   -0.72132
 O 0.28546 0.89806 0.04426   -0.579397
 O 0.91301 0.19591 0.21652   -0.541159
 O 0.99628 0.07308 0.16276   -0.69522
 O 0.59337 0.91197 0.92432   -0.721331
 O 0.7412 0.8538 0.95574   -0.579419
 O 0.80351 0.02061 0.21652   -0.540822
 O 0.66648 0.08968 0.16276   -0.69477
 O 0.83095 0.01235 0.92432   -0.72132
 O 0.71454 0.10194 0.95574   -0.579397
