{'_ref': 'TBD', '_srcid': 'CAKYAQ_clean', 'submitters': [{'name': 'Dalar Nazarian Jeff Camp and David Sholl', 'email': 'dalar@gatech.edu jcamp6@gatech.edu'}], '_method': 'VASP DFT with PBE;DDEC'}
data_Cd2H6C6IN9
_symmetry_space_group_name_H-M   'P 1'
_cell_length_a   7.85690000
_cell_length_b   10.39060000
_cell_length_c   18.57800000
_cell_angle_alpha   90.00000000
_cell_angle_beta   90.00000000
_cell_angle_gamma   90.00000000
_symmetry_Int_Tables_number   1
_chemical_formula_structural   Cd2H6C6IN9
_chemical_formula_sum   'Cd8 H24 C24 I4 N36'
_cell_volume   1516.66900169
_cell_formula_units_Z   4
loop_
 _symmetry_equiv_pos_site_id
 _symmetry_equiv_pos_as_xyz
  1  'x, y, z'
loop_
 _atom_site_label
 _atom_site_fract_x
 _atom_site_fract_y
 _atom_site_fract_z
 _atom_site_charge
 Cd 0.59435 0.75 0.42377   0.813524
 Cd 0.90565 0.25 0.92377   0.813524
 Cd 0.40565 0.25 0.57623   0.813525
 Cd 0.09435 0.75 0.07623   0.813525
 Cd 0.97852 0.25 0.26785   0.730663
 Cd 0.52148 0.75 0.76785   0.730663
 Cd 0.02148 0.75 0.73215   0.730663
 Cd 0.47852 0.25 0.23215   0.730663
 H 0.9224 0.9694 0.3793   0.070441
 H 0.452 0.9604 0.3122   0.069322
 H 0.5776 0.0306 0.8793   0.070441
 H 0.048 0.0396 0.8122   0.069322
 H 0.0776 0.4694 0.6207   0.070441
 H 0.548 0.4604 0.6878   0.069322
 H 0.4224 0.5306 0.1207   0.070441
 H 0.952 0.5396 0.1878   0.069322
 H 0.0776 0.0306 0.6207   0.07044
 H 0.548 0.0396 0.6878   0.069321
 H 0.4224 0.9694 0.1207   0.07044
 H 0.952 0.9604 0.1878   0.069321
 H 0.9224 0.5306 0.3793   0.07044
 H 0.452 0.5396 0.3122   0.069321
 H 0.5776 0.4694 0.8793   0.07044
 H 0.048 0.4604 0.8122   0.069321
 H 0.9476 0.75 0.54   0.063469
 H 0.4636 0.75 0.5881   0.071599
 H 0.5524 0.25 0.04   0.063469
 H 0.0364 0.25 0.0881   0.071599
 H 0.0524 0.25 0.46   0.063469
 H 0.5364 0.25 0.4119   0.071599
 H 0.4476 0.75 0.96   0.063469
 H 0.9636 0.75 0.9119   0.071599
 C 0.8191 0.9903 0.3555   0.24806
 C 0.5672 0.9853 0.3192   0.2307
 C 0.6809 0.0097 0.8555   0.24806
 C 0.9328 0.0147 0.8192   0.2307
 C 0.1809 0.4903 0.6445   0.24806
 C 0.4328 0.4853 0.6808   0.2307
 C 0.3191 0.5097 0.1445   0.24806
 C 0.0672 0.5147 0.1808   0.2307
 C 0.1809 0.0097 0.6445   0.24806
 C 0.4328 0.0147 0.6808   0.2307
 C 0.3191 0.9903 0.1445   0.24806
 C 0.0672 0.9853 0.1808   0.2307
 C 0.8191 0.5097 0.3555   0.24806
 C 0.5672 0.5147 0.3192   0.2307
 C 0.6809 0.4903 0.8555   0.24806
 C 0.9328 0.4853 0.8192   0.2307
 C 0.8438 0.75 0.5662   0.248419
 C 0.5842 0.75 0.5918   0.236072
 C 0.6562 0.25 0.0662   0.248419
 C 0.9158 0.25 0.0918   0.236072
 C 0.1562 0.25 0.4338   0.248419
 C 0.4158 0.25 0.4082   0.236072
 C 0.3438 0.75 0.9338   0.248419
 C 0.0842 0.75 0.9082   0.236072
 I 0.24473 0.75 0.42389   -0.516206
 I 0.25527 0.25 0.92389   -0.516206
 I 0.75527 0.25 0.57611   -0.516206
 I 0.74473 0.75 0.07611   -0.516206
 N 0.6765 0.9207 0.36181   -0.456859
 N 0.8017 0.0908 0.31279   -0.250361
 N 0.6363 0.0861 0.28823   -0.254677
 N 0.8235 0.0793 0.86181   -0.456859
 N 0.6983 0.9092 0.81279   -0.250361
 N 0.8637 0.9139 0.78823   -0.254677
 N 0.3235 0.4207 0.63819   -0.456859
 N 0.1983 0.5908 0.68721   -0.250361
 N 0.3637 0.5861 0.71177   -0.254677
 N 0.1765 0.5793 0.13819   -0.456859
 N 0.3017 0.4092 0.18721   -0.250361
 N 0.1363 0.4139 0.21177   -0.254677
 N 0.3235 0.0793 0.63819   -0.456859
 N 0.1983 0.9092 0.68721   -0.250361
 N 0.3637 0.9139 0.71177   -0.254677
 N 0.1765 0.9207 0.13819   -0.456859
 N 0.3017 0.0908 0.18721   -0.250361
 N 0.1363 0.0861 0.21177   -0.254677
 N 0.6765 0.5793 0.36181   -0.456859
 N 0.8017 0.4092 0.31279   -0.250361
 N 0.6363 0.4139 0.28823   -0.254677
 N 0.8235 0.4207 0.86181   -0.456859
 N 0.6983 0.5908 0.81279   -0.250361
 N 0.8637 0.5861 0.78823   -0.254677
 N 0.8363 0.75 0.6365   -0.238008
 N 0.6663 0.75 0.6534   -0.260771
 N 0.6888 0.75 0.5346   -0.46201
 N 0.6637 0.25 0.1365   -0.238008
 N 0.8337 0.25 0.1534   -0.260771
 N 0.8112 0.25 0.0346   -0.46201
 N 0.1637 0.25 0.3635   -0.238008
 N 0.3337 0.25 0.3466   -0.260771
 N 0.3112 0.25 0.4654   -0.46201
 N 0.3363 0.75 0.8635   -0.238008
 N 0.1663 0.75 0.8466   -0.260771
 N 0.1888 0.75 0.9654   -0.46201
