{'_ref': 'TBD', '_srcid': 'CAKYAQ_clean', 'submitters': [{'name': 'Dalar Nazarian Jeff Camp and David Sholl', 'email': 'dalar@gatech.edu jcamp6@gatech.edu'}], '_method': 'VASP DFT with PBE;DDEC'}
data_ZnHC5O4
_symmetry_space_group_name_H-M   'P 1'
_cell_length_a   6.92350050
_cell_length_b   7.42680047
_cell_length_c   8.25170000
_cell_angle_alpha   90.11799692
_cell_angle_beta   109.77400111
_cell_angle_gamma   93.32900352
_symmetry_Int_Tables_number   1
_chemical_formula_structural   ZnHC5O4
_chemical_formula_sum   'Zn2 H2 C10 O8'
_cell_volume   398.49877652
_cell_formula_units_Z   2
loop_
 _symmetry_equiv_pos_site_id
 _symmetry_equiv_pos_as_xyz
  1  'x, y, z'
loop_
 _atom_site_label
 _atom_site_fract_x
 _atom_site_fract_y
 _atom_site_fract_z
 _atom_site_charge
 Zn 0.5 0.0 0.5   1.154943
 Zn 0.0 0.5 0.5   1.165396
 H 0.5706 0.2045 0.963   0.118144
 H 0.4294 0.7955 0.037   0.118136
 C 0.5421 0.323 0.9782   -0.023227
 C 0.5813 0.3918 0.1438   -0.106984
 C 0.5403 0.5699 0.1674   -0.123867
 C 0.5809 0.662 0.3397   0.71717
 C 0.6474 0.2603 0.2881   0.728898
 C 0.4579 0.677 0.0218   -0.023162
 C 0.4187 0.6082 0.8562   -0.107009
 C 0.4597 0.4301 0.8326   -0.123806
 C 0.4191 0.338 0.6603   0.717156
 C 0.3526 0.7397 0.7119   0.728901
 O 0.51052 0.14152 0.28891   -0.595088
 O 0.82763 0.27024 0.39431   -0.633815
 O 0.44762 0.76601 0.35007   -0.608709
 O 0.74538 0.63864 0.46217   -0.632731
 O 0.48948 0.85848 0.71109   -0.595089
 O 0.17237 0.72976 0.60569   -0.633817
 O 0.55238 0.23399 0.64993   -0.608709
 O 0.25462 0.36136 0.53783   -0.632732
