{'_ref': 'TBD', '_srcid': 'CAKYAQ_clean', 'submitters': [{'name': 'Dalar Nazarian Jeff Camp and David Sholl', 'email': 'dalar@gatech.edu jcamp6@gatech.edu'}], '_method': 'VASP DFT with PBE;DDEC'}
data_ZnH24C25N5O4
_symmetry_space_group_name_H-M   'P 1'
_cell_length_a   17.20000000
_cell_length_b   19.27800023
_cell_length_c   19.71000000
_cell_angle_alpha   112.79199968
_cell_angle_beta   90.00000000
_cell_angle_gamma   90.00000000
_symmetry_Int_Tables_number   1
_chemical_formula_structural   ZnH24C25N5O4
_chemical_formula_sum   'Zn8 H192 C200 N40 O32'
_cell_volume   6025.16569165
_cell_formula_units_Z   8
loop_
 _symmetry_equiv_pos_site_id
 _symmetry_equiv_pos_as_xyz
  1  'x, y, z'
loop_
 _atom_site_label
 _atom_site_fract_x
 _atom_site_fract_y
 _atom_site_fract_z
 _atom_site_charge
 Zn 0.73204 0.9849 0.80259   0.747477
 Zn 0.77502 0.46014 0.1578   0.755916
 Zn 0.23204 0.0151 0.69741   0.747477
 Zn 0.27502 0.53986 0.3422   0.755916
 Zn 0.26796 0.0151 0.19741   0.747477
 Zn 0.22498 0.53986 0.8422   0.755916
 Zn 0.76796 0.9849 0.30259   0.747477
 Zn 0.72498 0.46014 0.6578   0.755916
 H 0.856 0.3022 0.9909   0.107475
 H 0.8529 0.296 0.068   0.121749
 H 0.7322 0.2783 0.0816   0.117304
 H 0.6867 0.285 0.0154   0.106668
 H 0.6959 0.4174 0.0121   0.081608
 H 0.783 0.4364 0.0046   0.084217
 H 0.6348 0.3075 0.9145   0.104318
 H 0.6336 0.2312 0.7917   0.10088
 H 0.8557 0.2826 0.7747   0.113831
 H 0.8577 0.3588 0.897   0.118943
 H 0.6303 0.214 0.6701   0.094999
 H 0.6283 0.1364 0.5478   0.095338
 H 0.8529 0.0888 0.5581   0.128178
 H 0.8555 0.1676 0.6801   0.117441
 H 0.6871 0.0291 0.4477   0.081689
 H 0.7742 0.0091 0.4541   0.083959
 H 0.8441 0.1454 0.4688   0.098876
 H 0.8443 0.1509 0.3914   0.115344
 H 0.7204 0.1709 0.381   0.11388
 H 0.6742 0.1569 0.4431   0.101846
 H 0.628 0.5568 0.1429   0.111821
 H 0.6385 0.6789 0.1312   0.140321
 H 0.8488 0.603 0.1411   0.122196
 H 0.8458 0.7323 0.1337   0.124006
 H 0.7682 0.7766 0.1635   0.091737
 H 0.6767 0.7934 0.0774   0.116049
 H 0.6462 0.7853 0.9606   0.127413
 H 0.8298 0.6542 0.8812   0.11401
 H 0.8629 0.6646 0.9991   0.131262
 H 0.7388 0.667 0.7977   0.096294
 H 0.6608 0.7111 0.8261   0.115612
 H 0.8646 0.7544 0.8058   0.145288
 H 0.8749 0.8757 0.7942   0.122302
 H 0.6581 0.8474 0.831   0.124644
 H 0.5935 0.9245 0.6908   0.118204
 H 0.7975 0.9891 0.6492   0.123428
 H 0.7249 0.9384 0.5347   0.135797
 H 0.5352 0.8654 0.564   0.126878
 H 0.5943 0.8473 0.4987   0.090082
 H 0.5146 0.0211 0.6218   0.109406
 H 0.5451 0.8892 0.4115   0.090597
 H 0.9086 0.5262 0.2688   0.119585
 H 0.7068 0.4627 0.315   0.115181
 H 0.7764 0.5222 0.4302   0.140941
 H 0.9021 0.625 0.455   0.08984
 H 0.9648 0.5943 0.3928   0.125443
 H 0.9382 0.4323 0.3912   0.093414
 H 0.0011 0.6291 0.5439   0.110493
 H 0.356 0.6978 0.5091   0.107475
 H 0.3529 0.704 0.432   0.121749
 H 0.2322 0.7217 0.4184   0.117304
 H 0.1867 0.715 0.4846   0.106668
 H 0.1959 0.5826 0.4879   0.081608
 H 0.283 0.5636 0.4954   0.084217
 H 0.1348 0.6925 0.5855   0.10432
 H 0.1336 0.7688 0.7083   0.10088
 H 0.3557 0.7174 0.7253   0.113831
 H 0.3577 0.6412 0.603   0.118943
 H 0.1303 0.786 0.8299   0.094999
 H 0.1283 0.8636 0.9522   0.095338
 H 0.3529 0.9112 0.9419   0.128178
 H 0.3555 0.8324 0.8199   0.11744
 H 0.1871 0.9709 0.0523   0.081689
 H 0.2742 0.9909 0.0459   0.083959
 H 0.3441 0.8546 0.0312   0.098876
 H 0.3443 0.8491 0.1086   0.115344
 H 0.2204 0.8291 0.119   0.11388
 H 0.1742 0.8431 0.0569   0.101846
 H 0.128 0.4432 0.3571   0.111822
 H 0.1385 0.3211 0.3688   0.140321
 H 0.3488 0.397 0.3589   0.122196
 H 0.3458 0.2677 0.3663   0.124006
 H 0.2682 0.2234 0.3365   0.091737
 H 0.1767 0.2066 0.4226   0.116049
 H 0.1462 0.2147 0.5394   0.127413
 H 0.3298 0.3458 0.6188   0.11401
 H 0.3629 0.3354 0.5009   0.131262
 H 0.2388 0.333 0.7023   0.096293
 H 0.1608 0.2889 0.6739   0.115611
 H 0.3646 0.2456 0.6942   0.145288
 H 0.3749 0.1243 0.7058   0.122302
 H 0.1581 0.1526 0.669   0.124643
 H 0.0935 0.0755 0.8092   0.118204
 H 0.2975 0.0109 0.8508   0.123428
 H 0.2249 0.0616 0.9653   0.135797
 H 0.0352 0.1346 0.936   0.126879
 H 0.0943 0.1527 0.0013   0.090083
 H 0.0146 0.9789 0.8782   0.109407
 H 0.0451 0.1108 0.0885   0.090597
 H 0.4086 0.4738 0.2312   0.119585
 H 0.2068 0.5373 0.185   0.115181
 H 0.2764 0.4778 0.0698   0.140941
 H 0.4021 0.375 0.045   0.08984
 H 0.4648 0.4057 0.1072   0.125443
 H 0.4382 0.5677 0.1088   0.093414
 H 0.5011 0.3709 0.9561   0.110494
 H 0.144 0.6978 0.0091   0.107475
 H 0.1471 0.704 0.932   0.12175
 H 0.2678 0.7217 0.9184   0.117304
 H 0.3133 0.715 0.9846   0.106667
 H 0.3041 0.5826 0.9879   0.081608
 H 0.217 0.5636 0.9954   0.084217
 H 0.3652 0.6925 0.0855   0.104319
 H 0.3664 0.7688 0.2083   0.10088
 H 0.1443 0.7174 0.2253   0.11383
 H 0.1423 0.6412 0.103   0.118941
 H 0.3697 0.786 0.3299   0.095
 H 0.3717 0.8636 0.4522   0.095339
 H 0.1471 0.9112 0.4419   0.128178
 H 0.1445 0.8324 0.3199   0.117441
 H 0.3129 0.9709 0.5523   0.081689
 H 0.2258 0.9909 0.5459   0.08396
 H 0.1559 0.8546 0.5312   0.098875
 H 0.1557 0.8491 0.6086   0.115343
 H 0.2796 0.8291 0.619   0.113879
 H 0.3258 0.8431 0.5569   0.101846
 H 0.372 0.4432 0.8571   0.111822
 H 0.3615 0.3211 0.8688   0.140321
 H 0.1512 0.397 0.8589   0.122194
 H 0.1542 0.2677 0.8663   0.124006
 H 0.2318 0.2234 0.8365   0.091737
 H 0.3233 0.2066 0.9226   0.11605
 H 0.3538 0.2147 0.0394   0.127414
 H 0.1702 0.3458 0.1188   0.11401
 H 0.1371 0.3354 0.000900000000001   0.131263
 H 0.2612 0.333 0.2023   0.096293
 H 0.3392 0.2889 0.1739   0.11561
 H 0.1354 0.2456 0.1942   0.145289
 H 0.1251 0.1243 0.2058   0.122302
 H 0.3419 0.1526 0.169   0.124643
 H 0.4065 0.0755 0.3092   0.118204
 H 0.2025 0.0109 0.3508   0.123428
 H 0.2751 0.0616 0.4653   0.135798
 H 0.4648 0.1346 0.436   0.12688
 H 0.4057 0.1527 0.5013   0.090083
 H 0.4854 0.9789 0.3782   0.109406
 H 0.4549 0.1108 0.5885   0.090598
 H 0.0914 0.4738 0.7312   0.119584
 H 0.2932 0.5373 0.685   0.115181
 H 0.2236 0.4778 0.5698   0.140942
 H 0.0979 0.375 0.545   0.08984
 H 0.0352 0.4057 0.6072   0.125443
 H 0.0618 0.5677 0.6088   0.093414
 H 0.9989 0.3709 0.4561   0.110493
 H 0.644 0.3022 0.4909   0.107475
 H 0.6471 0.296 0.568   0.12175
 H 0.7678 0.2783 0.5816   0.117304
 H 0.8133 0.285 0.5154   0.106667
 H 0.8041 0.4174 0.5121   0.081608
 H 0.717 0.4364 0.5046   0.084217
 H 0.8652 0.3075 0.4145   0.10432
 H 0.8664 0.2312 0.2917   0.10088
 H 0.6443 0.2826 0.2747   0.113829
 H 0.6423 0.3588 0.397   0.118941
 H 0.8697 0.214 0.1701   0.095
 H 0.8717 0.1364 0.0478   0.095339
 H 0.6471 0.0888 0.0581   0.128178
 H 0.6445 0.1676 0.1801   0.11744
 H 0.8129 0.0291 0.9477   0.081689
 H 0.7258 0.0091 0.9541   0.08396
 H 0.6559 0.1454 0.9688   0.098875
 H 0.6557 0.1509 0.8914   0.115343
 H 0.7796 0.1709 0.881   0.113879
 H 0.8258 0.1569 0.9431   0.101846
 H 0.872 0.5568 0.6429   0.111822
 H 0.8615 0.6789 0.6312   0.140321
 H 0.6512 0.603 0.6411   0.122194
 H 0.6542 0.7323 0.6337   0.124006
 H 0.7318 0.7766 0.6635   0.091737
 H 0.8233 0.7934 0.5774   0.11605
 H 0.8538 0.7853 0.4606   0.127414
 H 0.6702 0.6542 0.3812   0.11401
 H 0.6371 0.6646 0.4991   0.131263
 H 0.7612 0.667 0.2977   0.096293
 H 0.8392 0.7111 0.3261   0.11561
 H 0.6354 0.7544 0.3058   0.145289
 H 0.6251 0.8757 0.2942   0.122302
 H 0.8419 0.8474 0.331   0.124642
 H 0.9065 0.9245 0.1908   0.118204
 H 0.7025 0.9891 0.1492   0.123428
 H 0.7751 0.9384 0.0347   0.135798
 H 0.9648 0.8654 0.064   0.12688
 H 0.9057 0.8473 0.9987   0.090083
 H 0.9854 0.0211 0.1218   0.109407
 H 0.9549 0.8892 0.9115   0.090598
 H 0.5914 0.5262 0.7688   0.119584
 H 0.7932 0.4627 0.815   0.115181
 H 0.7236 0.5222 0.9302   0.140942
 H 0.5979 0.625 0.955   0.08984
 H 0.5352 0.5943 0.8928   0.125443
 H 0.5618 0.4323 0.8912   0.093414
 H 0.4989 0.6291 0.0439   0.110495
 C 0.9096 0.3911 0.0719   0.687016
 C 0.84812 0.3305 0.04318   -0.250072
 C 0.6464 0.3568 0.1147   0.679852
 C 0.70912 0.31361 0.06334   -0.243248
 C 0.74741 0.3957 0.99971   -0.083886
 C 0.74669 0.34231 0.92032   0.025459
 C 0.67958 0.3028 0.88664   -0.140355
 C 0.67894 0.25689 0.81265   -0.115542
 C 0.74382 0.24837 0.76932   0.033853
 C 0.81101 0.2876 0.80277   -0.085151
 C 0.81222 0.33331 0.87622   -0.118339
 C 0.74281 0.19914 0.68962   0.022838
 C 0.67545 0.18894 0.64794   -0.12101
 C 0.6743 0.14236 0.57425   -0.135464
 C 0.73983 0.10462 0.53917   0.031357
 C 0.808 0.11427 0.5804   -0.107809
 C 0.80929 0.16119 0.65386   -0.082182
 C 0.73896 0.05019 0.45942   -0.091595
 C 0.83829 0.11662 0.41638   -0.247148
 C 0.90114 0.0568 0.39042   0.677988
 C 0.69883 0.13221 0.39548   -0.246512
 C 0.63815 0.08828 0.33971   0.682357
 C 0.674 0.5814 0.1412   0.031002
 C 0.6795 0.6492 0.1349   -0.186413
 C 0.79492 0.60675 0.14052   0.113885
 C 0.7899 0.73126 0.12657   -0.079001
 C 0.7719 0.72922 0.05033   0.019859
 C 0.7081 0.7652 0.038   -0.11772
 C 0.6896 0.7601 0.9678   -0.114335
 C 0.7346 0.71861 0.90933   0.021476
 C 0.7989 0.68272 0.92091   -0.121604
 C 0.8186 0.6883 0.9917   -0.108464
 C 0.7167 0.7131 0.83319   -0.084242
 C 0.8241 0.7875 0.809   -0.179866
 C 0.8292 0.8548 0.80307   0.019546
 C 0.7112 0.83953 0.82272   0.111663
 C 0.6358 0.93425 0.66647   0.126175
 C 0.7473 0.9698 0.6437   0.039259
 C 0.7075 0.9416 0.5805   -0.175808
 C 0.574 0.8871 0.5424   -0.068727
 C 0.5363 0.9466 0.52097   0.036253
 C 0.509 0.0122 0.5722   -0.102715
 C 0.5272 0.9338 0.44758   -0.122908
 C 0.867 0.51725 0.2944   0.111346
 C 0.75666 0.4827 0.32   0.048204
 C 0.7946 0.5155 0.3836   -0.165839
 C 0.925 0.5794 0.4194   -0.073143
 C 0.96292 0.53657 0.46006   0.043347
 C 0.9631 0.46021 0.43523   -0.127963
 C 0.000410000000002 0.57682 0.52579   -0.114968
 C 0.4096 0.6089 0.4281   0.687016
 C 0.34812 0.6695 0.45682   -0.250072
 C 0.1464 0.6432 0.3853   0.679852
 C 0.20912 0.68639 0.43666   -0.243248
 C 0.24741 0.6043 0.50029   -0.083886
 C 0.24669 0.65769 0.57968   0.025459
 C 0.17958 0.6972 0.61336   -0.140355
 C 0.17894 0.74311 0.68735   -0.115542
 C 0.24382 0.75163 0.73068   0.033853
 C 0.31101 0.7124 0.69723   -0.085151
 C 0.31222 0.66669 0.62378   -0.118339
 C 0.24281 0.80086 0.81038   0.022838
 C 0.17545 0.81106 0.85206   -0.12101
 C 0.1743 0.85764 0.92575   -0.135464
 C 0.23983 0.89538 0.96083   0.031357
 C 0.308 0.88573 0.9196   -0.107809
 C 0.30929 0.83881 0.84614   -0.082182
 C 0.23896 0.94981 0.04058   -0.091595
 C 0.33829 0.88338 0.08362   -0.247148
 C 0.40114 0.9432 0.10958   0.677988
 C 0.19883 0.86779 0.10452   -0.246512
 C 0.13815 0.91172 0.16029   0.682357
 C 0.174 0.4186 0.3588   0.031002
 C 0.1795 0.3508 0.3651   -0.186413
 C 0.29492 0.39325 0.35948   0.113885
 C 0.2899 0.26874 0.37343   -0.079001
 C 0.2719 0.27078 0.44967   0.019859
 C 0.2081 0.2348 0.462   -0.11772
 C 0.1896 0.2399 0.5322   -0.114335
 C 0.2346 0.28139 0.59067   0.021476
 C 0.2989 0.31728 0.57909   -0.121604
 C 0.3186 0.3117 0.5083   -0.108464
 C 0.2167 0.2869 0.66681   -0.084241
 C 0.3241 0.2125 0.691   -0.179866
 C 0.3292 0.1452 0.69693   0.019546
 C 0.2112 0.16047 0.67728   0.111663
 C 0.1358 0.06575 0.83353   0.126175
 C 0.2473 0.0302 0.8563   0.039259
 C 0.2075 0.0584 0.9195   -0.175808
 C 0.074 0.1129 0.9576   -0.068727
 C 0.0363 0.0534 0.97903   0.036254
 C 0.009 0.9878 0.9278   -0.102715
 C 0.0272 0.0662 0.05242   -0.122908
 C 0.367 0.48275 0.2056   0.111346
 C 0.25666 0.5173 0.18   0.048204
 C 0.2946 0.4845 0.1164   -0.165839
 C 0.425 0.4206 0.0806   -0.073143
 C 0.46292 0.46343 0.03994   0.043347
 C 0.4631 0.53979 0.06477   -0.127963
 C 0.50041 0.42318 0.97421   -0.114968
 C 0.0904 0.6089 0.9281   0.687016
 C 0.15188 0.6695 0.95682   -0.250072
 C 0.3536 0.6432 0.8853   0.679852
 C 0.29088 0.68639 0.93666   -0.243248
 C 0.25259 0.6043 0.00029   -0.083886
 C 0.25331 0.65769 0.07968   0.025458
 C 0.32042 0.6972 0.11336   -0.140355
 C 0.32106 0.74311 0.18735   -0.115542
 C 0.25618 0.75163 0.23068   0.033853
 C 0.18899 0.7124 0.19723   -0.085151
 C 0.18778 0.66669 0.12378   -0.118338
 C 0.25719 0.80086 0.31038   0.022838
 C 0.32455 0.81106 0.35206   -0.12101
 C 0.3257 0.85764 0.42575   -0.135464
 C 0.26017 0.89538 0.46083   0.031357
 C 0.192 0.88573 0.4196   -0.107809
 C 0.19071 0.83881 0.34614   -0.082182
 C 0.26104 0.94981 0.54058   -0.091595
 C 0.16171 0.88338 0.58362   -0.247147
 C 0.09886 0.9432 0.60958   0.677988
 C 0.30117 0.86779 0.60452   -0.246512
 C 0.36185 0.91172 0.66029   0.682357
 C 0.326 0.4186 0.8588   0.031002
 C 0.3205 0.3508 0.8651   -0.186414
 C 0.20508 0.39325 0.85948   0.113885
 C 0.2101 0.26874 0.87343   -0.079001
 C 0.2281 0.27078 0.94967   0.019859
 C 0.2919 0.2348 0.962   -0.11772
 C 0.3104 0.2399 0.0322   -0.114335
 C 0.2654 0.28139 0.09067   0.021476
 C 0.2011 0.31728 0.07909   -0.121604
 C 0.1814 0.3117 0.0083   -0.108464
 C 0.2833 0.2869 0.16681   -0.084241
 C 0.1759 0.2125 0.191   -0.179867
 C 0.1708 0.1452 0.19693   0.019546
 C 0.2888 0.16047 0.17728   0.111663
 C 0.3642 0.06575 0.33353   0.126175
 C 0.2527 0.0302 0.3563   0.039259
 C 0.2925 0.0584 0.4195   -0.175808
 C 0.426 0.1129 0.4576   -0.068727
 C 0.4637 0.0534 0.47903   0.036252
 C 0.491 0.9878 0.4278   -0.102709
 C 0.4728 0.0662 0.55242   -0.122902
 C 0.133 0.48275 0.7056   0.111347
 C 0.24334 0.5173 0.68   0.048205
 C 0.2054 0.4845 0.6164   -0.165839
 C 0.075 0.4206 0.5806   -0.073143
 C 0.03708 0.46343 0.53994   0.043346
 C 0.0369 0.53979 0.56477   -0.127958
 C 0.99959 0.42318 0.47421   -0.114964
 C 0.5904 0.3911 0.5719   0.687016
 C 0.65188 0.3305 0.54318   -0.250072
 C 0.8536 0.3568 0.6147   0.679852
 C 0.79088 0.31361 0.56334   -0.243248
 C 0.75259 0.3957 0.49971   -0.083886
 C 0.75331 0.34231 0.42032   0.025459
 C 0.82042 0.3028 0.38664   -0.140355
 C 0.82106 0.25689 0.31265   -0.115542
 C 0.75618 0.24837 0.26932   0.033853
 C 0.68899 0.2876 0.30277   -0.085151
 C 0.68778 0.33331 0.37622   -0.118338
 C 0.75719 0.19914 0.18962   0.022838
 C 0.82455 0.18894 0.14794   -0.12101
 C 0.8257 0.14236 0.07425   -0.135464
 C 0.76017 0.10462 0.03917   0.031357
 C 0.692 0.11427 0.0804   -0.107809
 C 0.69071 0.16119 0.15386   -0.082182
 C 0.76104 0.05019 0.95942   -0.091595
 C 0.66171 0.11662 0.91638   -0.247147
 C 0.59886 0.0568 0.89042   0.677988
 C 0.80117 0.13221 0.89548   -0.246512
 C 0.86185 0.08828 0.83971   0.682357
 C 0.826 0.5814 0.6412   0.031002
 C 0.8205 0.6492 0.6349   -0.186413
 C 0.70508 0.60675 0.64052   0.113885
 C 0.7101 0.73126 0.62657   -0.079001
 C 0.7281 0.72922 0.55033   0.019859
 C 0.7919 0.7652 0.538   -0.11772
 C 0.8104 0.7601 0.4678   -0.114335
 C 0.7654 0.71861 0.40933   0.021476
 C 0.7011 0.68272 0.42091   -0.121604
 C 0.6814 0.6883 0.4917   -0.108464
 C 0.7833 0.7131 0.33319   -0.084241
 C 0.6759 0.7875 0.309   -0.179867
 C 0.6708 0.8548 0.30307   0.019546
 C 0.7888 0.83953 0.32272   0.111663
 C 0.8642 0.93425 0.16647   0.126175
 C 0.7527 0.9698 0.1437   0.039259
 C 0.7925 0.9416 0.0805   -0.175808
 C 0.926 0.8871 0.0424   -0.068727
 C 0.9637 0.9466 0.02097   0.036252
 C 0.991 0.0122 0.0722   -0.102709
 C 0.9728 0.9338 0.94758   -0.122902
 C 0.633 0.51725 0.7944   0.111346
 C 0.74334 0.4827 0.82   0.048205
 C 0.7054 0.5155 0.8836   -0.165839
 C 0.575 0.5794 0.9194   -0.073143
 C 0.53708 0.53657 0.96006   0.043346
 C 0.5369 0.46021 0.93523   -0.127958
 C 0.49959 0.57682 0.02579   -0.114964
 N 0.76994 0.36379 0.05562   -0.085209
 N 0.76208 0.08393 0.402   -0.080514
 N 0.747 0.55572 0.14469   -0.332076
 N 0.75694 0.66493 0.13526   0.056354
 N 0.74852 0.77801 0.82056   0.056347
 N 0.75831 0.88729 0.81188   -0.31388
 N 0.70149 0.96544 0.69927   -0.353671
 N 0.63767 0.91876 0.59532   0.063697
 N 0.80183 0.48291 0.26359   -0.347979
 N 0.86476 0.53727 0.36727   0.063303
 N 0.26994 0.63621 0.44438   -0.085209
 N 0.26208 0.91607 0.098   -0.080514
 N 0.247 0.44428 0.35531   -0.332076
 N 0.25694 0.33507 0.36474   0.056354
 N 0.24852 0.22199 0.67944   0.056347
 N 0.25831 0.11271 0.68812   -0.31388
 N 0.20149 0.03456 0.80073   -0.353671
 N 0.13767 0.08124 0.90468   0.063697
 N 0.30183 0.51709 0.23641   -0.347979
 N 0.36476 0.46273 0.13273   0.063303
 N 0.23006 0.63621 0.94438   -0.085209
 N 0.23792 0.91607 0.598   -0.080514
 N 0.253 0.44428 0.85531   -0.332076
 N 0.24306 0.33507 0.86474   0.056353
 N 0.25148 0.22199 0.17944   0.056347
 N 0.24169 0.11271 0.18812   -0.31388
 N 0.29851 0.03456 0.30073   -0.353671
 N 0.36233 0.08124 0.40468   0.063697
 N 0.19817 0.51709 0.73641   -0.34798
 N 0.13524 0.46273 0.63273   0.063303
 N 0.73006 0.36379 0.55562   -0.085209
 N 0.73792 0.08393 0.902   -0.080514
 N 0.753 0.55572 0.64469   -0.332076
 N 0.74306 0.66493 0.63526   0.056353
 N 0.75148 0.77801 0.32056   0.056347
 N 0.74169 0.88729 0.31188   -0.31388
 N 0.79851 0.96544 0.19927   -0.353671
 N 0.86233 0.91876 0.09532   0.063697
 N 0.69817 0.48291 0.76359   -0.34798
 N 0.63524 0.53727 0.86727   0.063303
 O 0.89047 0.45256 0.12188   -0.644365
 O 0.97697 0.37448 0.04648   -0.659324
 O 0.66242 0.42196 0.16167   -0.638439
 O 0.58209 0.3253 0.11098   -0.646158
 O 0.96741 0.07445 0.41587   -0.635121
 O 0.88291 0.99307 0.34189   -0.644719
 O 0.57614 0.12062 0.33883   -0.643973
 O 0.65541 0.02264 0.29574   -0.629173
 O 0.39047 0.54744 0.37812   -0.644365
 O 0.47697 0.62552 0.45352   -0.659324
 O 0.16242 0.57804 0.33833   -0.638439
 O 0.08209 0.6747 0.38902   -0.646158
 O 0.46741 0.92555 0.08413   -0.635121
 O 0.38291 0.00693 0.15811   -0.644719
 O 0.07614 0.87938 0.16117   -0.643972
 O 0.15541 0.97736 0.20426   -0.629173
 O 0.10953 0.54744 0.87812   -0.644365
 O 0.02303 0.62552 0.95352   -0.659324
 O 0.33758 0.57804 0.83833   -0.638439
 O 0.41791 0.6747 0.88902   -0.646158
 O 0.03259 0.92555 0.58413   -0.635121
 O 0.11709 0.00693 0.65811   -0.644719
 O 0.42386 0.87938 0.66117   -0.643972
 O 0.34459 0.97736 0.70426   -0.629173
 O 0.60953 0.45256 0.62188   -0.644365
 O 0.52303 0.37448 0.54648   -0.659324
 O 0.83758 0.42196 0.66167   -0.638439
 O 0.91791 0.3253 0.61098   -0.646158
 O 0.53259 0.07445 0.91587   -0.635121
 O 0.61709 0.99307 0.84189   -0.644719
 O 0.92386 0.12062 0.83883   -0.643972
 O 0.84459 0.02264 0.79574   -0.629173
