{'_ref': 'TBD', '_srcid': 'CAKYAQ_clean', 'submitters': [{'name': 'Dalar Nazarian Jeff Camp and David Sholl', 'email': 'dalar@gatech.edu jcamp6@gatech.edu'}], '_method': 'VASP DFT with PBE;DDEC'}
data_CuPH2C10(N2F3)2
_symmetry_space_group_name_H-M   'P 1'
_cell_length_a   8.15700000
_cell_length_b   10.17060027
_cell_length_c   11.61300000
_cell_angle_alpha   90.00000000
_cell_angle_beta   90.00000000
_cell_angle_gamma   113.64099902
_symmetry_Int_Tables_number   1
_chemical_formula_structural   CuPH2C10(N2F3)2
_chemical_formula_sum   'Cu2 P2 H4 C20 N8 F12'
_cell_volume   882.577777668
_cell_formula_units_Z   2
loop_
 _symmetry_equiv_pos_site_id
 _symmetry_equiv_pos_as_xyz
  1  'x, y, z'
loop_
 _atom_site_label
 _atom_site_fract_x
 _atom_site_fract_y
 _atom_site_fract_z
 _atom_site_charge
 Cu 0.5 0.0 0.25   0.648683
 Cu 0.5 0.0 0.75   0.648685
 P 0.5 0.5 0.0   1.672235
 P 0.0 0.5 0.5   1.667611
 H 0.0 0.5 0.7983   0.133197
 H 0.5 0.5 0.7017   0.133436
 H 0.0 0.5 0.2017   0.133198
 H 0.5 0.5 0.2983   0.133436
 C 0.7911 0.247 0.8806   0.370494
 C 0.9005 0.3764 0.9403   0.003132
 C 0.2089 0.753 0.8806   0.370494
 C 0.0995 0.6236 0.9403   0.003132
 C 0.4559 0.247 0.6194   0.370052
 C 0.4759 0.3764 0.5597   0.003891
 C 0.5441 0.753 0.6194   0.370052
 C 0.5241 0.6236 0.5597   0.003891
 C 0.2089 0.753 0.1194   0.370493
 C 0.0995 0.6236 0.0597   0.003142
 C 0.7911 0.247 0.1194   0.370493
 C 0.9005 0.3764 0.0597   0.003143
 C 0.5441 0.753 0.3806   0.370051
 C 0.5241 0.6236 0.4403   0.003901
 C 0.4559 0.247 0.3806   0.370051
 C 0.4759 0.3764 0.4403   0.003901
 C 0.0 0.5 0.8784   0.003513
 C 0.5 0.5 0.6216   0.002236
 C 0.0 0.5 0.1216   0.00351
 C 0.5 0.5 0.3784   0.002233
 N 0.6976 0.1424 0.8384   -0.383732
 N 0.3024 0.8576 0.8384   -0.383732
 N 0.4448 0.1424 0.6616   -0.38349
 N 0.5552 0.8576 0.6616   -0.38349
 N 0.3024 0.8576 0.1616   -0.383731
 N 0.6976 0.1424 0.1616   -0.383731
 N 0.5552 0.8576 0.3384   -0.383489
 N 0.4448 0.1424 0.3384   -0.383489
 F 0.5436 0.4088 0.9044   -0.424029
 F 0.4564 0.5912 0.9044   -0.424029
 F 0.4564 0.5912 0.0956   -0.424029
 F 0.5436 0.4088 0.0956   -0.424029
 F 0.7023 0.6036 0.0   -0.429005
 F 0.2977 0.3964 0.0   -0.429005
 F 0.8652 0.4088 0.5956   -0.423237
 F 0.1348 0.5912 0.5956   -0.423237
 F 0.1348 0.5912 0.4044   -0.423237
 F 0.8652 0.4088 0.4044   -0.423237
 F 0.9013 0.6036 0.5   -0.428163
 F 0.0987 0.3964 0.5   -0.428163
