{'_ref': 'TBD', '_srcid': 'CAKYAQ_clean', 'submitters': [{'name': 'Dalar Nazarian Jeff Camp and David Sholl', 'email': 'dalar@gatech.edu jcamp6@gatech.edu'}], '_method': 'VASP DFT with PBE;DDEC'}
data_AlPO4
_symmetry_space_group_name_H-M   'P 1'
_cell_length_a   9.45370000
_cell_length_b   18.77320000
_cell_length_c   18.77320000
_cell_angle_alpha   90.00000000
_cell_angle_beta   90.00000000
_cell_angle_gamma   90.00000000
_symmetry_Int_Tables_number   1
_chemical_formula_structural   AlPO4
_chemical_formula_sum   'Al24 P24 O96'
_cell_volume   3331.79621361
_cell_formula_units_Z   24
loop_
 _symmetry_equiv_pos_site_id
 _symmetry_equiv_pos_as_xyz
  1  'x, y, z'
loop_
 _atom_site_label
 _atom_site_fract_x
 _atom_site_fract_y
 _atom_site_fract_z
 _atom_site_charge
 Al 0.9191 0.93588 0.33432   2.014334
 Al 0.8422 0.83599 0.54423   1.991935
 Al 0.6642 0.0507 0.56519   2.024245
 Al 0.9191 0.56412 0.16568   2.014335
 Al 0.8422 0.66401 0.95577   1.991935
 Al 0.6642 0.4493 0.93481   2.024245
 Al 0.9191 0.16568 0.93588   2.014335
 Al 0.8422 0.95577 0.83599   1.991934
 Al 0.6642 0.93481 0.0507   2.024246
 Al 0.9191 0.33432 0.56412   2.014335
 Al 0.8422 0.54423 0.66401   1.991934
 Al 0.6642 0.56519 0.4493   2.024246
 Al 0.0809 0.06412 0.66568   2.014334
 Al 0.1578 0.16401 0.45577   1.991934
 Al 0.3358 0.9493 0.43481   2.024245
 Al 0.0809 0.43588 0.83432   2.014334
 Al 0.1578 0.33599 0.04423   1.991934
 Al 0.3358 0.5507 0.06519   2.024245
 Al 0.0809 0.83432 0.06412   2.014334
 Al 0.1578 0.04423 0.16401   1.991933
 Al 0.3358 0.06519 0.9493   2.024246
 Al 0.0809 0.66568 0.43588   2.014335
 Al 0.1578 0.45577 0.33599   1.991933
 Al 0.3358 0.43481 0.5507   2.024246
 P 0.6637 0.93587 0.44232   2.155888
 P 0.8378 0.94979 0.66685   2.149589
 P 0.9058 0.1658 0.56624   2.157653
 P 0.6637 0.56413 0.05768   2.155888
 P 0.8378 0.55021 0.83315   2.149589
 P 0.9058 0.3342 0.93376   2.157653
 P 0.6637 0.05768 0.93587   2.155888
 P 0.8378 0.83315 0.94979   2.149589
 P 0.9058 0.93376 0.1658   2.157653
 P 0.6637 0.44232 0.56413   2.155888
 P 0.8378 0.66685 0.55021   2.149589
 P 0.9058 0.56624 0.3342   2.157653
 P 0.3363 0.06413 0.55768   2.155887
 P 0.1622 0.05021 0.33315   2.149589
 P 0.0942 0.8342 0.43376   2.157653
 P 0.3363 0.43587 0.94232   2.155887
 P 0.1622 0.44979 0.16685   2.149589
 P 0.0942 0.6658 0.06624   2.157653
 P 0.3363 0.94232 0.06413   2.155887
 P 0.1622 0.16685 0.05021   2.149589
 P 0.0942 0.06624 0.8342   2.157653
 P 0.3363 0.55768 0.43587   2.155887
 P 0.1622 0.33315 0.44979   2.149589
 P 0.0942 0.43376 0.6658   2.157653
 O 0.7537 0.9426 0.3757   -1.015989
 O 0.5122 0.9246 0.4193   -0.999253
 O 0.7097 0.8727 0.4872   -1.060895
 O 0.6761 0.005 0.4838   -1.092912
 O 0.9811 0.9849 0.6567   -1.084119
 O 0.7225 0.9974 0.6359   -1.073631
 O 0.8402 0.8779 0.6292   -1.00318
 O 0.8068 0.9376 0.7442   -0.995042
 O 0.9873 0.1551 0.4979   -1.07124
 O 0.9854 0.137 0.6297   -1.068373
 O 0.7637 0.1297 0.5599   -1.015629
 O 0.8793 0.2444 0.5795   -1.013381
 O 0.7537 0.5574 0.1243   -1.015989
 O 0.5122 0.5754 0.0807   -0.999253
 O 0.7097 0.6273 0.0128   -1.060895
 O 0.6761 0.495 0.0162   -1.092912
 O 0.9811 0.5151 0.8433   -1.084119
 O 0.7225 0.5026 0.8641   -1.073631
 O 0.8402 0.6221 0.8708   -1.00318
 O 0.8068 0.5624 0.7558   -0.995042
 O 0.9873 0.3449 0.0021   -1.07124
 O 0.9854 0.363 0.8703   -1.068373
 O 0.7637 0.3703 0.9401   -1.015629
 O 0.8793 0.2556 0.9205   -1.013381
 O 0.7537 0.1243 0.9426   -1.015989
 O 0.5122 0.0807 0.9246   -0.999253
 O 0.7097 0.0128 0.8727   -1.060895
 O 0.6761 0.0162 0.005   -1.092912
 O 0.9811 0.8433 0.9849   -1.084119
 O 0.7225 0.8641 0.9974   -1.073631
 O 0.8402 0.8708 0.8779   -1.00318
 O 0.8068 0.7558 0.9376   -0.995042
 O 0.9873 0.0021 0.1551   -1.07124
 O 0.9854 0.8703 0.137   -1.068373
 O 0.7637 0.9401 0.1297   -1.015629
 O 0.8793 0.9205 0.2444   -1.013381
 O 0.7537 0.3757 0.5574   -1.015989
 O 0.5122 0.4193 0.5754   -0.999253
 O 0.7097 0.4872 0.6273   -1.060895
 O 0.6761 0.4838 0.495   -1.092912
 O 0.9811 0.6567 0.5151   -1.084119
 O 0.7225 0.6359 0.5026   -1.073631
 O 0.8402 0.6292 0.6221   -1.00318
 O 0.8068 0.7442 0.5624   -0.995042
 O 0.9873 0.4979 0.3449   -1.07124
 O 0.9854 0.6297 0.363   -1.068373
 O 0.7637 0.5599 0.3703   -1.015629
 O 0.8793 0.5795 0.2556   -1.013381
 O 0.2463 0.0574 0.6243   -1.015989
 O 0.4878 0.0754 0.5807   -0.999253
 O 0.2903 0.1273 0.5128   -1.060895
 O 0.3239 0.995 0.5162   -1.092912
 O 0.0189 0.0151 0.3433   -1.084119
 O 0.2775 0.0026 0.3641   -1.073631
 O 0.1598 0.1221 0.3708   -1.00318
 O 0.1932 0.0624 0.2558   -0.995042
 O 0.0127 0.8449 0.5021   -1.07124
 O 0.0146 0.863 0.3703   -1.068373
 O 0.2363 0.8703 0.4401   -1.015629
 O 0.1207 0.7556 0.4205   -1.013381
 O 0.2463 0.4426 0.8757   -1.015989
 O 0.4878 0.4246 0.9193   -0.999253
 O 0.2903 0.3727 0.9872   -1.060895
 O 0.3239 0.505 0.9838   -1.092912
 O 0.0189 0.4849 0.1567   -1.084119
 O 0.2775 0.4974 0.1359   -1.073631
 O 0.1598 0.3779 0.1292   -1.00318
 O 0.1932 0.4376 0.2442   -0.995042
 O 0.0127 0.6551 0.9979   -1.07124
 O 0.0146 0.637 0.1297   -1.068373
 O 0.2363 0.6297 0.0599   -1.015629
 O 0.1207 0.7444 0.0795   -1.013381
 O 0.2463 0.8757 0.0574   -1.015989
 O 0.4878 0.9193 0.0754   -0.999253
 O 0.2903 0.9872 0.1273   -1.060895
 O 0.3239 0.9838 0.995   -1.092912
 O 0.0189 0.1567 0.0151   -1.084119
 O 0.2775 0.1359 0.0026   -1.073631
 O 0.1598 0.1292 0.1221   -1.00318
 O 0.1932 0.2442 0.0624   -0.995042
 O 0.0127 0.9979 0.8449   -1.07124
 O 0.0146 0.1297 0.863   -1.068373
 O 0.2363 0.0599 0.8703   -1.015629
 O 0.1207 0.0795 0.7556   -1.013381
 O 0.2463 0.6243 0.4426   -1.015989
 O 0.4878 0.5807 0.4246   -0.999253
 O 0.2903 0.5128 0.3727   -1.060895
 O 0.3239 0.5162 0.505   -1.092912
 O 0.0189 0.3433 0.4849   -1.084119
 O 0.2775 0.3641 0.4974   -1.073631
 O 0.1598 0.3708 0.3779   -1.00318
 O 0.1932 0.2558 0.4376   -0.995042
 O 0.0127 0.5021 0.6551   -1.07124
 O 0.0146 0.3703 0.637   -1.068373
 O 0.2363 0.4401 0.6297   -1.015629
 O 0.1207 0.4205 0.7444   -1.013381
