{'_ref': 'TBD', '_srcid': 'CAKYAQ_clean', 'submitters': [{'name': 'Dalar Nazarian Jeff Camp and David Sholl', 'email': 'dalar@gatech.edu jcamp6@gatech.edu'}], '_method': 'VASP DFT with PBE;DDEC'}
data_NaZnH24C53N5O8
_symmetry_space_group_name_H-M   'P 1'
_cell_length_a   16.31500014
_cell_length_b   17.40499965
_cell_length_c   18.41000000
_cell_angle_alpha   89.59199990
_cell_angle_beta   84.33000082
_cell_angle_gamma   82.52099928
_symmetry_Int_Tables_number   1
_chemical_formula_structural   NaZnH24C53N5O8
_chemical_formula_sum   'Na2 Zn2 H48 C106 N10 O16'
_cell_volume   5157.82979586
_cell_formula_units_Z   2
loop_
 _symmetry_equiv_pos_site_id
 _symmetry_equiv_pos_as_xyz
  1  'x, y, z'
loop_
 _atom_site_label
 _atom_site_fract_x
 _atom_site_fract_y
 _atom_site_fract_z
 _atom_site_charge
 Na 0.08878 0.05066 0.0002   0.952467
 Na 0.91122 0.94934 0.9998   0.952467
 Zn 0.5253 0.4989 0.1901   0.701498
 Zn 0.4747 0.5011 0.8099   0.701499
 H 0.6053 0.2049 0.1567   0.13202
 H 0.455 0.2222 0.1601   0.129796
 H 0.2178 0.4655 0.1759   0.135206
 H 0.218 0.6048 0.1745   0.130431
 H 0.4495 0.794 0.1788   0.133027
 H 0.5985 0.7778 0.1782   0.130746
 H 0.8362 0.5338 0.1625   0.134235
 H 0.8371 0.3925 0.1575   0.135119
 H 0.7353 0.2523 0.0495   0.102025
 H 0.8371 0.1482 0.0358   0.094199
 H 0.8852 0.1689 0.242   0.115447
 H 0.7807 0.2743 0.2595   0.124389
 H 0.3049 0.3423 0.0589   0.114992
 H 0.2084 0.258 0.045   0.095444
 H 0.2061 0.2035 0.2576   0.116141
 H 0.3026 0.2878 0.2715   0.124143
 H 0.3611 0.7576 0.0696   0.109384
 H 0.2655 0.8664 0.0563   0.10119
 H 0.1413 0.8205 0.2462   0.118104
 H 0.2404 0.7156 0.2631   0.120295
 H 0.7234 0.7143 0.0672   0.106664
 H 0.8235 0.7951 0.0582   0.082371
 H 0.8816 0.7374 0.2581   0.110403
 H 0.7797 0.6542 0.2682   0.121074
 H 0.3947 0.7951 0.8433   0.132019
 H 0.545 0.7778 0.8399   0.129796
 H 0.7822 0.5345 0.8241   0.135206
 H 0.782 0.3952 0.8255   0.130431
 H 0.5505 0.206 0.8212   0.133027
 H 0.4015 0.2222 0.8218   0.130746
 H 0.1638 0.4662 0.8375   0.134235
 H 0.1629 0.6075 0.8425   0.135119
 H 0.2647 0.7477 0.9505   0.102025
 H 0.1629 0.8518 0.9642   0.094199
 H 0.1148 0.8311 0.758   0.115447
 H 0.2193 0.7257 0.7405   0.124389
 H 0.6951 0.6577 0.9411   0.114991
 H 0.7916 0.742 0.955   0.095444
 H 0.7939 0.7965 0.7424   0.116141
 H 0.6974 0.7122 0.7285   0.124143
 H 0.6389 0.2424 0.9304   0.109384
 H 0.7345 0.1336 0.9437   0.10119
 H 0.8587 0.1795 0.7538   0.118104
 H 0.7596 0.2844 0.7369   0.120295
 H 0.2766 0.2857 0.9328   0.106664
 H 0.1765 0.2049 0.9418   0.082371
 H 0.1184 0.2626 0.7419   0.110402
 H 0.2203 0.3458 0.7318   0.121074
 C 0.7043 0.4155 0.1688   0.194471
 C 0.6791 0.3421 0.1658   -0.030852
 C 0.5958 0.3267 0.1668   0.204969
 C 0.5706 0.2518 0.1611   -0.166844
 C 0.4882 0.2614 0.1632   -0.161486
 C 0.4596 0.3425 0.1712   0.187622
 C 0.3775 0.3772 0.1743   -0.046403
 C 0.3496 0.4564 0.1778   0.193072
 C 0.2641 0.4915 0.1764   -0.163129
 C 0.2643 0.5678 0.176   -0.159619
 C 0.3484 0.5834 0.1783   0.200215
 C 0.3754 0.6562 0.176   -0.046614
 C 0.458 0.6719 0.176   0.210642
 C 0.484 0.747 0.1777   -0.167871
 C 0.5653 0.7382 0.1775   -0.150858
 C 0.5942 0.6554 0.1757   0.185223
 C 0.6761 0.622 0.1736   -0.050573
 C 0.704 0.5414 0.1726   0.201729
 C 0.79 0.5074 0.1651   -0.175594
 C 0.7905 0.4297 0.1624   -0.160075
 C 0.7453 0.2738 0.1561   0.064468
 C 0.7643 0.2356 0.0889   -0.152378
 C 0.8256 0.1734 0.0808   -0.016608
 C 0.8703 0.1476 0.1374   -0.126284
 C 0.8542 0.1856 0.2038   -0.023436
 C 0.7915 0.249 0.2145   -0.158566
 C 0.937 0.0792 0.1272   0.647158
 C 0.3133 0.3234 0.1666   0.075289
 C 0.2851 0.3145 0.0987   -0.158224
 C 0.2273 0.264 0.0904   -0.028932
 C 0.1977 0.2224 0.1499   -0.129727
 C 0.2259 0.2313 0.2177   -0.025703
 C 0.2837 0.2818 0.2261   -0.15215
 C 0.1338 0.169 0.1378   0.611232
 C 0.3115 0.7252 0.1673   0.068951
 C 0.3178 0.7705 0.1059   -0.154302
 C 0.2599 0.8358 0.0976   -0.027343
 C 0.1945 0.8549 0.1503   -0.116822
 C 0.1864 0.8088 0.2113   -0.026064
 C 0.2452 0.7451 0.221   -0.147064
 C 0.1344 0.9258 0.14   0.627975
 C 0.7414 0.675 0.1684   0.078255
 C 0.7552 0.7183 0.106   -0.155727
 C 0.8149 0.7668 0.1007   -0.014556
 C 0.8633 0.7747 0.158   -0.142788
 C 0.8498 0.7328 0.2194   -0.024606
 C 0.7884 0.6824 0.2257   -0.150296
 C 0.9263 0.8295 0.1493   0.64383
 C 0.453 0.4647 0.3467   0.084012
 C 0.447 0.4648 0.4225   -0.16902
 C 0.5034 0.4994 0.45894   0.164157
 C 0.5659 0.5338 0.4195   -0.169047
 C 0.572 0.5337 0.3437   0.086063
 C 0.2957 0.5845 0.8312   0.194472
 C 0.3209 0.6579 0.8342   -0.030852
 C 0.4042 0.6733 0.8332   0.204969
 C 0.4294 0.7482 0.8389   -0.166844
 C 0.5118 0.7386 0.8368   -0.161486
 C 0.5404 0.6575 0.8288   0.187622
 C 0.6225 0.6228 0.8257   -0.046403
 C 0.6504 0.5436 0.8222   0.193072
 C 0.7359 0.5085 0.8236   -0.163129
 C 0.7357 0.4322 0.824   -0.159619
 C 0.6516 0.4166 0.8217   0.200215
 C 0.6246 0.3438 0.824   -0.046614
 C 0.542 0.3281 0.824   0.210643
 C 0.516 0.253 0.8223   -0.167871
 C 0.4347 0.2618 0.8225   -0.150858
 C 0.4058 0.3446 0.8243   0.185223
 C 0.3239 0.378 0.8264   -0.050573
 C 0.296 0.4586 0.8274   0.201729
 C 0.21 0.4926 0.8349   -0.175594
 C 0.2095 0.5703 0.8376   -0.160075
 C 0.2547 0.7262 0.8439   0.064468
 C 0.2357 0.7644 0.9111   -0.152378
 C 0.1744 0.8266 0.9192   -0.016608
 C 0.1297 0.8524 0.8626   -0.126284
 C 0.1458 0.8144 0.7962   -0.023436
 C 0.2085 0.751 0.7855   -0.158566
 C 0.063 0.9208 0.8728   0.647158
 C 0.6867 0.6766 0.8334   0.075289
 C 0.7149 0.6855 0.9013   -0.158224
 C 0.7727 0.736 0.9096   -0.028932
 C 0.8023 0.7776 0.8501   -0.129727
 C 0.7741 0.7687 0.7823   -0.025703
 C 0.7163 0.7182 0.7739   -0.15215
 C 0.8662 0.831 0.8622   0.611232
 C 0.6885 0.2748 0.8327   0.068951
 C 0.6822 0.2295 0.8941   -0.154302
 C 0.7401 0.1642 0.9024   -0.027343
 C 0.8055 0.1451 0.8497   -0.116822
 C 0.8136 0.1912 0.7887   -0.026064
 C 0.7548 0.2549 0.779   -0.147064
 C 0.8656 0.0742 0.86   0.627975
 C 0.2586 0.325 0.8316   0.078255
 C 0.2448 0.2817 0.894   -0.155727
 C 0.1851 0.2332 0.8993   -0.014556
 C 0.1367 0.2253 0.842   -0.142788
 C 0.1502 0.2672 0.7806   -0.024606
 C 0.2116 0.3176 0.7743   -0.150296
 C 0.0737 0.1705 0.8507   0.64383
 C 0.547 0.5353 0.6533   0.084012
 C 0.553 0.5352 0.5775   -0.169018
 C 0.4966 0.5006 0.54106   0.164158
 C 0.4341 0.4662 0.5805   -0.169045
 C 0.428 0.4663 0.6563   0.086062
 N 0.5281 0.3813 0.1737   -0.391246
 N 0.3995 0.5139 0.1799   -0.392863
 N 0.5257 0.6164 0.1771   -0.391436
 N 0.6543 0.4844 0.1747   -0.391781
 N 0.5155 0.4992 0.30725   -0.170477
 N 0.4719 0.6187 0.8263   -0.391246
 N 0.6005 0.4861 0.8201   -0.392864
 N 0.4743 0.3836 0.8229   -0.391436
 N 0.3457 0.5156 0.8253   -0.391781
 N 0.4845 0.5008 0.69275   -0.170477
 O 0.9547 0.0485 0.0671   -0.687484
 O 0.9734 0.0584 0.1833   -0.296372
 O 0.1171 0.1519 0.0778   -0.564721
 O 0.0889 0.1521 0.2022   -0.347929
 O 0.1474 0.9706 0.09   -0.59275
 O 0.0708 0.9371 0.1884   -0.27996
 O 0.9409 0.8661 0.0957   -0.578701
 O 0.9672 0.8325 0.2088   -0.364858
 O 0.0453 0.9515 0.9329   -0.687484
 O 0.0266 0.9416 0.8167   -0.296372
 O 0.8829 0.8481 0.9222   -0.564721
 O 0.9111 0.8479 0.7978   -0.347929
 O 0.8526 0.0294 0.91   -0.59275
 O 0.9292 0.0629 0.8116   -0.27996
 O 0.0591 0.1339 0.9043   -0.578701
 O 0.0328 0.1675 0.7912   -0.364858
