{'_ref': 'TBD', '_srcid': 'CAKYAQ_clean', 'submitters': [{'name': 'Dalar Nazarian Jeff Camp and David Sholl', 'email': 'dalar@gatech.edu jcamp6@gatech.edu'}], '_method': 'VASP DFT with PBE;DDEC'}
data_ZnGeP3(HO4)3
_symmetry_space_group_name_H-M   'P 1'
_cell_length_a   9.57599986
_cell_length_b   9.98199982
_cell_length_c   10.00000000
_cell_angle_alpha   107.66999760
_cell_angle_beta   97.95999986
_cell_angle_gamma   114.87000301
_symmetry_Int_Tables_number   1
_chemical_formula_structural   ZnGeP3(HO4)3
_chemical_formula_sum   'Zn2 Ge2 P6 H6 O24'
_cell_volume   786.182948542
_cell_formula_units_Z   2
loop_
 _symmetry_equiv_pos_site_id
 _symmetry_equiv_pos_as_xyz
  1  'x, y, z'
loop_
 _atom_site_label
 _atom_site_fract_x
 _atom_site_fract_y
 _atom_site_fract_z
 _atom_site_charge
 Zn 0.68782 0.20884 0.65898   1.279063
 Zn 0.31218 0.79116 0.34102   1.279063
 Ge 0.13641 0.96694 0.88455   1.674487
 Ge 0.86359 0.03306 0.11545   1.674481
 P 0.8254 0.5998 0.7709   1.771489
 P 0.6638 0.9716 0.3405   1.806367
 P 0.8461 0.0301 0.8071   1.815642
 P 0.1746 0.4002 0.2291   1.771488
 P 0.3362 0.0284 0.6595   1.806367
 P 0.1539 0.9699 0.1929   1.815642
 H 0.8078 0.9224 0.4973   0.392698
 H 0.7399 0.7945 0.5594   0.519297
 H 0.6184 0.6076 0.6005   0.508896
 H 0.1922 0.0776 0.5027   0.392698
 H 0.2601 0.2055 0.4406   0.519296
 H 0.3816 0.3924 0.3995   0.508891
 O 0.8305 0.4427 0.7126   -0.809671
 O 0.6979 0.6045 0.6662   -0.854492
 O 0.9948 0.7362 0.8057   -0.825137
 O 0.7801 0.6159 0.9214   -0.670062
 O 0.6608 0.1125 0.4514   -0.940211
 O 0.6954 0.0028 0.2046   -0.750176
 O 0.5063 0.8136 0.2978   -0.899237
 O 0.8113 0.9527 0.4085   -0.758468
 O 0.8213 0.1593 0.7788   -0.814883
 O 0.7796 0.8825 0.6519   -0.86985
 O 0.7555 0.9636 0.9067   -0.768839
 O 0.0283 0.0939 0.8706   -0.806907
 O 0.1695 0.5573 0.2874   -0.809671
 O 0.3021 0.3955 0.3338   -0.854491
 O 0.0052 0.2638 0.1943   -0.825137
 O 0.2199 0.3841 0.0786   -0.670063
 O 0.3392 0.8875 0.5486   -0.940211
 O 0.3046 0.9972 0.7954   -0.750177
 O 0.4937 0.1864 0.7022   -0.899237
 O 0.1887 0.0473 0.5915   -0.758468
 O 0.1787 0.8407 0.2212   -0.814883
 O 0.2204 0.1175 0.3481   -0.86985
 O 0.2445 0.0364 0.0933   -0.76884
 O 0.9717 0.9061 0.1294   -0.806904
