{'_ref': 'TBD', '_srcid': 'CAKYAQ_clean', 'submitters': [{'name': 'Dalar Nazarian Jeff Camp and David Sholl', 'email': 'dalar@gatech.edu jcamp6@gatech.edu'}], '_method': 'VASP DFT with PBE;DDEC'}
data_GaH4C8O5
_symmetry_space_group_name_H-M   'P 1'
_cell_length_a   6.74230000
_cell_length_b   21.17600016
_cell_length_c   21.18690000
_cell_angle_alpha   119.98299895
_cell_angle_beta   90.00000000
_cell_angle_gamma   90.00000000
_symmetry_Int_Tables_number   1
_chemical_formula_structural   GaH4C8O5
_chemical_formula_sum   'Ga6 H24 C48 O30'
_cell_volume   2620.13958133
_cell_formula_units_Z   6
loop_
 _symmetry_equiv_pos_site_id
 _symmetry_equiv_pos_as_xyz
  1  'x, y, z'
loop_
 _atom_site_label
 _atom_site_fract_x
 _atom_site_fract_y
 _atom_site_fract_z
 _atom_site_charge
 Ga 0.5 0.5 0.5   1.480631
 Ga 0.0 0.5 0.5   1.480634
 Ga 0.0 0.0 0.5   1.480631
 Ga 0.5 0.0 0.5   1.480634
 Ga 0.5 0.0 0.0   1.529649
 Ga 0.0 0.0 0.0   1.529657
 H 0.4443 0.67853 0.46946   0.114415
 H 0.4443 0.32248 0.29356   0.114771
 H 0.4443 0.20768 0.18388   0.117336
 H 0.9443 0.32147 0.53054   0.114415
 H 0.9443 0.67752 0.70644   0.114771
 H 0.9443 0.79232 0.81612   0.117336
 H 0.0557 0.79093 0.46946   0.114413
 H 0.0557 0.97108 0.29356   0.11477
 H 0.0557 0.9762 0.18388   0.117336
 H 0.5557 0.20907 0.53054   0.114413
 H 0.5557 0.02892 0.70644   0.11477
 H 0.5557 0.0238 0.81612   0.117336
 H 0.5557 0.32147 0.53054   0.114421
 H 0.5557 0.67752 0.70644   0.114775
 H 0.5557 0.79232 0.81612   0.11734
 H 0.0557 0.67853 0.46946   0.114421
 H 0.0557 0.32248 0.29356   0.114775
 H 0.0557 0.20768 0.18388   0.11734
 H 0.9443 0.20907 0.53054   0.114419
 H 0.9443 0.02892 0.70644   0.114775
 H 0.9443 0.0238 0.81612   0.11734
 H 0.4443 0.79093 0.46946   0.114419
 H 0.4443 0.97108 0.29356   0.114775
 H 0.4443 0.9762 0.18388   0.11734
 C 0.57018 0.70167 0.46946   -0.060928
 C 0.57018 0.29885 0.27098   -0.061294
 C 0.57018 0.23132 0.20646   -0.061106
 C 0.07018 0.29833 0.53054   -0.060928
 C 0.07018 0.70115 0.72902   -0.061294
 C 0.07018 0.76868 0.79354   -0.061106
 C 0.92982 0.76779 0.46946   -0.060919
 C 0.92982 0.97213 0.27098   -0.061294
 C 0.92982 0.97514 0.20646   -0.061106
 C 0.42982 0.23221 0.53054   -0.060919
 C 0.42982 0.02787 0.72902   -0.061294
 C 0.42982 0.02486 0.79354   -0.061106
 C 0.42982 0.29833 0.53054   -0.060951
 C 0.42982 0.70115 0.72902   -0.061296
 C 0.42982 0.76868 0.79354   -0.061109
 C 0.92982 0.70167 0.46946   -0.06095
 C 0.92982 0.29885 0.27098   -0.061296
 C 0.92982 0.23132 0.20646   -0.061109
 C 0.07018 0.23221 0.53054   -0.060941
 C 0.07018 0.02787 0.72902   -0.061296
 C 0.07018 0.02486 0.79354   -0.061109
 C 0.57018 0.76779 0.46946   -0.060941
 C 0.57018 0.97213 0.27098   -0.061296
 C 0.57018 0.97514 0.20646   -0.061109
 C 0.75 0.59778 0.46946   0.705861
 C 0.75 0.66862 0.46946   -0.117151
 C 0.75 0.40498 0.37238   0.703715
 C 0.75 0.33261 0.30324   -0.116729
 C 0.75 0.19755 0.1742   -0.113514
 C 0.75 0.12519 0.10506   0.710874
 C 0.25 0.40222 0.53054   0.705861
 C 0.25 0.33138 0.53054   -0.117151
 C 0.25 0.59502 0.62762   0.703715
 C 0.25 0.66739 0.69676   -0.116729
 C 0.25 0.80245 0.8258   -0.113514
 C 0.25 0.87481 0.89494   0.710874
 C 0.75 0.87168 0.46946   0.705861
 C 0.75 0.80084 0.46946   -0.117158
 C 0.75 0.9674 0.37238   0.703716
 C 0.75 0.97063 0.30324   -0.116728
 C 0.75 0.97665 0.1742   -0.113515
 C 0.75 0.97987 0.10506   0.710874
 C 0.25 0.12832 0.53054   0.705861
 C 0.25 0.19916 0.53054   -0.117158
 C 0.25 0.0326 0.62762   0.703716
 C 0.25 0.02937 0.69676   -0.116728
 C 0.25 0.02335 0.8258   -0.113515
 C 0.25 0.02013 0.89494   0.710874
 O 0.58944 0.56827 0.46946   -0.577507
 O 0.58944 0.43512 0.40118   -0.575836
 O 0.58944 0.09504 0.07626   -0.592128
 O 0.08944 0.43173 0.53054   -0.577507
 O 0.08944 0.56488 0.59882   -0.575836
 O 0.08944 0.90496 0.92374   -0.592129
 O 0.91056 0.90119 0.46946   -0.577507
 O 0.91056 0.96606 0.40118   -0.575837
 O 0.91056 0.98122 0.07626   -0.592129
 O 0.41056 0.09881 0.53054   -0.577507
 O 0.41056 0.03394 0.59882   -0.575838
 O 0.41056 0.01878 0.92374   -0.592128
 O 0.41056 0.43173 0.53054   -0.577506
 O 0.41056 0.56488 0.59882   -0.575836
 O 0.41056 0.90496 0.92374   -0.592129
 O 0.91056 0.56827 0.46946   -0.577507
 O 0.91056 0.43512 0.40118   -0.575836
 O 0.91056 0.09504 0.07626   -0.592129
 O 0.08944 0.09881 0.53054   -0.577507
 O 0.08944 0.03394 0.59882   -0.575837
 O 0.08944 0.01878 0.92374   -0.592129
 O 0.58944 0.90119 0.46946   -0.577507
 O 0.58944 0.96606 0.40118   -0.575838
 O 0.58944 0.98122 0.07626   -0.592129
 O 0.75 0.5 0.546   -0.565864
 O 0.25 0.5 0.454   -0.565864
 O 0.75 0.046 0.546   -0.565864
 O 0.25 0.954 0.454   -0.565864
 O 0.75 0.97437 0.94874   -0.57617
 O 0.25 0.02563 0.05126   -0.57617
