{'_ref': 'TBD', '_srcid': 'CAKYAQ_clean', 'submitters': [{'name': 'Dalar Nazarian Jeff Camp and David Sholl', 'email': 'dalar@gatech.edu jcamp6@gatech.edu'}], '_method': 'VASP DFT with PBE;DDEC'}
data_MnH10C14(NO2)2
_symmetry_space_group_name_H-M   'P 1'
_cell_length_a   11.87600007
_cell_length_b   11.87600026
_cell_length_c   16.34100000
_cell_angle_alpha   73.36069872
_cell_angle_beta   73.36069845
_cell_angle_gamma   78.38129963
_symmetry_Int_Tables_number   1
_chemical_formula_structural   MnH10C14(NO2)2
_chemical_formula_sum   'Mn4 H40 C56 N8 O16'
_cell_volume   2097.77799504
_cell_formula_units_Z   4
loop_
 _symmetry_equiv_pos_site_id
 _symmetry_equiv_pos_as_xyz
  1  'x, y, z'
loop_
 _atom_site_label
 _atom_site_fract_x
 _atom_site_fract_y
 _atom_site_fract_z
 _atom_site_charge
 Mn 0.83244 0.61596 0.54676   1.027667
 Mn 0.38404 0.16756 0.95324   1.027667
 Mn 0.16756 0.38404 0.45324   1.027667
 Mn 0.61596 0.83244 0.04676   1.027667
 H 0.453 0.167 0.537   0.277272
 H 0.6628 0.8134 0.7734   0.088598
 H 0.5733 0.9821 0.547   0.110783
 H 0.4867 0.1437 0.7447   0.106638
 H 0.378 0.267 0.6726   0.09727
 H 0.3612 0.3284 0.5776   0.094704
 H 0.6335 0.2935 0.5018   0.133954
 H 0.423 0.4596 0.6804   0.134582
 H 0.5635 0.5783 0.6518   0.064231
 H 0.7752 0.4128 0.4841   0.071025
 H 0.833 0.547 0.963   0.277272
 H 0.1866 0.3372 0.7266   0.088599
 H 0.0179 0.4267 0.953   0.110783
 H 0.8563 0.5133 0.7553   0.106638
 H 0.733 0.622 0.8274   0.097271
 H 0.6716 0.6388 0.9224   0.094704
 H 0.7065 0.3665 0.9982   0.133954
 H 0.5404 0.577 0.8196   0.13458
 H 0.4217 0.4365 0.8482   0.064229
 H 0.5872 0.2248 0.0159   0.071025
 H 0.547 0.833 0.463   0.277272
 H 0.3372 0.1866 0.2266   0.088598
 H 0.4267 0.0179 0.453   0.110783
 H 0.5133 0.8563 0.2553   0.106638
 H 0.622 0.733 0.3274   0.09727
 H 0.6388 0.6716 0.4224   0.094704
 H 0.3665 0.7065 0.4982   0.133952
 H 0.577 0.5404 0.3196   0.134581
 H 0.4365 0.4217 0.3482   0.06423
 H 0.2248 0.5872 0.5159   0.071025
 H 0.167 0.453 0.037   0.277272
 H 0.8134 0.6628 0.2734   0.088599
 H 0.9821 0.5733 0.047   0.110783
 H 0.1437 0.4867 0.2447   0.106638
 H 0.267 0.378 0.1726   0.097271
 H 0.3284 0.3612 0.0776   0.094704
 H 0.2935 0.6335 0.0018   0.133952
 H 0.4596 0.423 0.1804   0.134579
 H 0.5783 0.5635 0.1518   0.064228
 H 0.4128 0.7752 0.9841   0.071025
 C 0.5176 0.0792 0.6374   0.206393
 C 0.5729 0.9767 0.7745   -0.1279
 C 0.6255 0.8815 0.6546   -0.113843
 C 0.6263 0.8797 0.7396   -0.062015
 C 0.69 0.7782 0.6164   0.624632
 C 0.5724 0.981 0.6044   -0.158255
 C 0.5202 0.0774 0.7223   -0.162563
 C 0.5135 0.3597 0.5958   0.141445
 C 0.5727 0.9757 0.8664   0.707357
 C 0.4187 0.2839 0.6106   -0.006336
 C 0.6181 0.3487 0.5354   -0.237047
 C 0.4944 0.4478 0.6397   -0.227887
 C 0.5804 0.5174 0.623   0.17808
 C 0.7031 0.4225 0.5247   0.193975
 C 0.9208 0.4824 0.8626   0.206394
 C 0.0233 0.4271 0.7255   -0.1279
 C 0.1185 0.3745 0.8454   -0.113843
 C 0.1203 0.3737 0.7604   -0.062015
 C 0.2218 0.31 0.8836   0.624632
 C 0.019 0.4276 0.8956   -0.158255
 C 0.9226 0.4798 0.7777   -0.162563
 C 0.6403 0.4865 0.9042   0.141445
 C 0.0243 0.4273 0.6336   0.707359
 C 0.7161 0.5813 0.8894   -0.006336
 C 0.6513 0.3819 0.9646   -0.237047
 C 0.5522 0.5056 0.8603   -0.227887
 C 0.4826 0.4196 0.877   0.17808
 C 0.5775 0.2969 0.9753   0.193975
 C 0.4824 0.9208 0.3626   0.206393
 C 0.4271 0.0233 0.2255   -0.1279
 C 0.3745 0.1185 0.3454   -0.113843
 C 0.3737 0.1203 0.2604   -0.062015
 C 0.31 0.2218 0.3836   0.624633
 C 0.4276 0.019 0.3956   -0.158255
 C 0.4798 0.9226 0.2777   -0.162563
 C 0.4865 0.6403 0.4042   0.141444
 C 0.4273 0.0243 0.1336   0.707357
 C 0.5813 0.7161 0.3894   -0.006336
 C 0.3819 0.6513 0.4646   -0.237046
 C 0.5056 0.5522 0.3603   -0.227887
 C 0.4196 0.4826 0.377   0.17808
 C 0.2969 0.5775 0.4753   0.193975
 C 0.0792 0.5176 0.1374   0.206394
 C 0.9767 0.5729 0.2745   -0.1279
 C 0.8815 0.6255 0.1546   -0.113843
 C 0.8797 0.6263 0.2396   -0.062015
 C 0.7782 0.69 0.1164   0.624633
 C 0.981 0.5724 0.1044   -0.158255
 C 0.0774 0.5202 0.2223   -0.162563
 C 0.3597 0.5135 0.0958   0.141444
 C 0.9757 0.5727 0.3664   0.707359
 C 0.2839 0.4187 0.1106   -0.006336
 C 0.3487 0.6181 0.0354   -0.237046
 C 0.4478 0.4944 0.1397   -0.227886
 C 0.5174 0.5804 0.123   0.17808
 C 0.4225 0.7031 0.0247   0.193975
 N 0.462 0.174 0.5856   -0.37517
 N 0.6872 0.5046 0.5683   -0.361721
 N 0.826 0.538 0.9144   -0.37517
 N 0.4954 0.3128 0.9317   -0.361721
 N 0.538 0.826 0.4144   -0.37517
 N 0.3128 0.4954 0.4317   -0.361721
 N 0.174 0.462 0.0856   -0.37517
 N 0.5046 0.6872 0.0683   -0.361721
 O 0.7369 0.6893 0.6642   -0.587246
 O 0.6962 0.7852 0.5365   -0.598772
 O 0.5363 0.0701 0.8917   -0.641021
 O 0.6146 0.8798 0.9119   -0.598829
 O 0.3107 0.2631 0.8358   -0.587246
 O 0.2148 0.3038 0.9635   -0.598772
 O 0.9299 0.4637 0.6083   -0.641021
 O 0.1202 0.3854 0.5881   -0.59883
 O 0.2631 0.3107 0.3358   -0.587246
 O 0.3038 0.2148 0.4635   -0.598772
 O 0.4637 0.9299 0.1083   -0.641021
 O 0.3854 0.1202 0.0881   -0.598829
 O 0.6893 0.7369 0.1642   -0.587246
 O 0.7852 0.6962 0.0365   -0.598772
 O 0.0701 0.5363 0.3917   -0.641021
 O 0.8798 0.6146 0.4119   -0.59883
