{'_ref': 'TBD', '_srcid': 'CAKYAQ_clean', 'submitters': [{'name': 'Dalar Nazarian Jeff Camp and David Sholl', 'email': 'dalar@gatech.edu jcamp6@gatech.edu'}], '_method': 'VASP DFT with PBE;DDEC'}
data_MnH10C14(NO2)2
_symmetry_space_group_name_H-M   'P 1'
_cell_length_a   11.88449964
_cell_length_b   11.88450030
_cell_length_c   16.35700000
_cell_angle_alpha   73.45420082
_cell_angle_beta   73.45419987
_cell_angle_gamma   78.48890019
_symmetry_Int_Tables_number   1
_chemical_formula_structural   MnH10C14(NO2)2
_chemical_formula_sum   'Mn4 H40 C56 N8 O16'
_cell_volume   2105.20554066
_cell_formula_units_Z   4
loop_
 _symmetry_equiv_pos_site_id
 _symmetry_equiv_pos_as_xyz
  1  'x, y, z'
loop_
 _atom_site_label
 _atom_site_fract_x
 _atom_site_fract_y
 _atom_site_fract_z
 _atom_site_charge
 Mn 0.83252 0.61562 0.54678   1.029203
 Mn 0.38438 0.16748 0.95322   1.029203
 Mn 0.16748 0.38438 0.45322   1.029203
 Mn 0.61562 0.83252 0.04678   1.029203
 H 0.1656 0.454 0.0364   0.280346
 H 0.8119 0.6611 0.2748   0.091145
 H 0.1429 0.4881 0.2448   0.108143
 H 0.981 0.5744 0.0468   0.112901
 H 0.3272 0.3602 0.0792   0.097367
 H 0.2654 0.3788 0.1735   0.099332
 H 0.2927 0.6347 0.0021   0.134627
 H 0.4606 0.4232 0.1801   0.135385
 H 0.5789 0.5641 0.1509   0.064431
 H 0.4139 0.7737 0.9819   0.072606
 H 0.546 0.8344 0.4636   0.280346
 H 0.3389 0.1881 0.2252   0.091145
 H 0.5119 0.8571 0.2552   0.108142
 H 0.4256 0.019 0.4532   0.112901
 H 0.6398 0.6728 0.4208   0.097367
 H 0.6212 0.7346 0.3265   0.099333
 H 0.3653 0.7073 0.4979   0.134627
 H 0.5768 0.5394 0.3199   0.135383
 H 0.4359 0.4211 0.3491   0.064429
 H 0.2263 0.5861 0.5181   0.072606
 H 0.8344 0.546 0.9636   0.280346
 H 0.1881 0.3389 0.7252   0.091145
 H 0.8571 0.5119 0.7552   0.108143
 H 0.019 0.4256 0.9532   0.112902
 H 0.6728 0.6398 0.9208   0.097367
 H 0.7346 0.6212 0.8265   0.099332
 H 0.7073 0.3653 0.9979   0.134625
 H 0.5394 0.5768 0.8199   0.135383
 H 0.4211 0.4359 0.8491   0.06443
 H 0.5861 0.2263 0.0181   0.072606
 H 0.454 0.1656 0.5364   0.280346
 H 0.6611 0.8119 0.7748   0.091145
 H 0.4881 0.1429 0.7448   0.108142
 H 0.5744 0.981 0.5468   0.112902
 H 0.3602 0.3272 0.5792   0.097367
 H 0.3788 0.2654 0.6735   0.099333
 H 0.6347 0.2927 0.5021   0.134625
 H 0.4232 0.4606 0.6801   0.135382
 H 0.5641 0.5789 0.6509   0.064428
 H 0.7737 0.4139 0.4819   0.072606
 C 0.0776 0.519 0.1364   0.209344
 C 0.9764 0.5738 0.274   -0.127082
 C 0.8787 0.6267 0.2403   -0.071718
 C 0.8814 0.6278 0.1541   -0.107136
 C 0.7784 0.6906 0.1163   0.622218
 C 0.3599 0.5125 0.0965   0.141681
 C 0.0768 0.5214 0.2225   -0.15938
 C 0.9753 0.5731 0.3672   0.708663
 C 0.9803 0.5737 0.104   -0.167931
 C 0.283 0.4186 0.1115   -0.004515
 C 0.3486 0.6192 0.035   -0.235861
 C 0.4482 0.4944 0.1394   -0.23151
 C 0.518 0.5806 0.1224   0.185884
 C 0.4225 0.7025 0.0234   0.189897
 C 0.481 0.9224 0.3636   0.209343
 C 0.4262 0.0236 0.226   -0.127088
 C 0.3733 0.1213 0.2597   -0.071716
 C 0.3722 0.1186 0.3459   -0.107137
 C 0.3094 0.2216 0.3837   0.622218
 C 0.4875 0.6401 0.4035   0.141681
 C 0.4786 0.9232 0.2775   -0.159375
 C 0.4269 0.0247 0.1328   0.708666
 C 0.4263 0.0197 0.396   -0.167931
 C 0.5814 0.717 0.3885   -0.004515
 C 0.3808 0.6514 0.465   -0.235861
 C 0.5056 0.5518 0.3606   -0.23151
 C 0.4194 0.482 0.3776   0.185884
 C 0.2975 0.5775 0.4766   0.189898
 C 0.9224 0.481 0.8636   0.209344
 C 0.0236 0.4262 0.726   -0.127082
 C 0.1213 0.3733 0.7597   -0.071718
 C 0.1186 0.3722 0.8459   -0.107136
 C 0.2216 0.3094 0.8837   0.622219
 C 0.6401 0.4875 0.9035   0.141681
 C 0.9232 0.4786 0.7775   -0.15938
 C 0.0247 0.4269 0.6328   0.708663
 C 0.0197 0.4263 0.896   -0.167931
 C 0.717 0.5814 0.8885   -0.004515
 C 0.6514 0.3808 0.965   -0.23586
 C 0.5518 0.5056 0.8606   -0.23151
 C 0.482 0.4194 0.8776   0.185884
 C 0.5775 0.2975 0.9766   0.189897
 C 0.519 0.0776 0.6364   0.209343
 C 0.5738 0.9764 0.774   -0.127088
 C 0.6267 0.8787 0.7403   -0.071716
 C 0.6278 0.8814 0.6541   -0.107136
 C 0.6906 0.7784 0.6163   0.622219
 C 0.5125 0.3599 0.5965   0.14168
 C 0.5214 0.0768 0.7225   -0.159375
 C 0.5731 0.9753 0.8672   0.708666
 C 0.5737 0.9803 0.604   -0.167931
 C 0.4186 0.283 0.6115   -0.004515
 C 0.6192 0.3486 0.535   -0.23586
 C 0.4944 0.4482 0.6394   -0.23151
 C 0.5806 0.518 0.6224   0.185884
 C 0.7025 0.4225 0.5234   0.189897
 N 0.5049 0.6871 0.0677   -0.367327
 N 0.1721 0.4629 0.0851   -0.383624
 N 0.3129 0.4951 0.4323   -0.367327
 N 0.5371 0.8279 0.4149   -0.383624
 N 0.4951 0.3129 0.9323   -0.367327
 N 0.8279 0.5371 0.9149   -0.383624
 N 0.6871 0.5049 0.5677   -0.367327
 N 0.4629 0.1721 0.5851   -0.383624
 O 0.6878 0.7374 0.1642   -0.593954
 O 0.0696 0.5354 0.3921   -0.642533
 O 0.7843 0.6977 0.0364   -0.597427
 O 0.8802 0.614 0.4122   -0.593174
 O 0.2626 0.3122 0.3358   -0.593953
 O 0.4646 0.9304 0.1079   -0.642533
 O 0.3023 0.2157 0.4636   -0.597427
 O 0.386 0.1198 0.0878   -0.593174
 O 0.3122 0.2626 0.8358   -0.593954
 O 0.9304 0.4646 0.6079   -0.642533
 O 0.2157 0.3023 0.9636   -0.597427
 O 0.1198 0.386 0.5878   -0.593174
 O 0.7374 0.6878 0.6642   -0.593953
 O 0.5354 0.0696 0.8921   -0.642533
 O 0.6977 0.7843 0.5364   -0.597427
 O 0.614 0.8802 0.9122   -0.593174
