{'_ref': 'TBD', '_srcid': 'CAKYAQ_clean', 'submitters': [{'name': 'Dalar Nazarian Jeff Camp and David Sholl', 'email': 'dalar@gatech.edu jcamp6@gatech.edu'}], '_method': 'VASP DFT with PBE;DDEC'}
data_MnH10C14(NO2)2
_symmetry_space_group_name_H-M   'P 1'
_cell_length_a   11.88700002
_cell_length_b   11.88700028
_cell_length_c   16.35500000
_cell_angle_alpha   73.37589990
_cell_angle_beta   73.37589953
_cell_angle_gamma   78.41939901
_symmetry_Int_Tables_number   1
_chemical_formula_structural   MnH10C14(NO2)2
_chemical_formula_sum   'Mn4 H40 C56 N8 O16'
_cell_volume   2103.95862978
_cell_formula_units_Z   4
loop_
 _symmetry_equiv_pos_site_id
 _symmetry_equiv_pos_as_xyz
  1  'x, y, z'
loop_
 _atom_site_label
 _atom_site_fract_x
 _atom_site_fract_y
 _atom_site_fract_z
 _atom_site_charge
 Mn 0.83243 0.61587 0.54667   1.029375
 Mn 0.38413 0.16757 0.95333   1.029375
 Mn 0.16757 0.38413 0.45333   1.029375
 Mn 0.61587 0.83243 0.04667   1.029375
 H 0.1666 0.4526 0.0372   0.277931
 H 0.8135 0.6633 0.2745   0.092784
 H 0.1428 0.486 0.2454   0.108645
 H 0.9799 0.5739 0.0466   0.116055
 H 0.3282 0.3608 0.0781   0.097151
 H 0.2669 0.3781 0.1729   0.098103
 H 0.2938 0.6362 0.003   0.125717
 H 0.4587 0.4239 0.1803   0.133477
 H 0.577 0.5662 0.1524   0.06169
 H 0.4142 0.7736 0.9818   0.073873
 H 0.5474 0.8334 0.4628   0.277931
 H 0.3367 0.1865 0.2255   0.092784
 H 0.514 0.8572 0.2546   0.108645
 H 0.4261 0.0201 0.4534   0.116055
 H 0.6392 0.6718 0.4219   0.097151
 H 0.6219 0.7331 0.3271   0.098103
 H 0.3638 0.7062 0.497   0.125717
 H 0.5761 0.5413 0.3197   0.133475
 H 0.4338 0.423 0.3476   0.061689
 H 0.2264 0.5858 0.5182   0.073872
 H 0.8334 0.5474 0.9628   0.277931
 H 0.1865 0.3367 0.7255   0.092784
 H 0.8572 0.514 0.7546   0.108645
 H 0.0201 0.4261 0.9534   0.116055
 H 0.6718 0.6392 0.9219   0.097151
 H 0.7331 0.6219 0.8271   0.098103
 H 0.7062 0.3638 0.997   0.125715
 H 0.5413 0.5761 0.8197   0.133475
 H 0.423 0.4338 0.8476   0.061689
 H 0.5858 0.2264 0.0182   0.073872
 H 0.4526 0.1666 0.5372   0.277931
 H 0.6633 0.8135 0.7745   0.092784
 H 0.486 0.1428 0.7454   0.108645
 H 0.5739 0.9799 0.5466   0.116055
 H 0.3608 0.3282 0.5781   0.097151
 H 0.3781 0.2669 0.6729   0.098103
 H 0.6362 0.2938 0.503   0.125715
 H 0.4239 0.4587 0.6803   0.133474
 H 0.5662 0.577 0.6524   0.061688
 H 0.7736 0.4142 0.4818   0.073872
 C 0.9768 0.5732 0.2738   -0.121724
 C 0.0784 0.518 0.1376   0.208923
 C 0.7778 0.6892 0.1167   0.621592
 C 0.8795 0.6269 0.2403   -0.06902
 C 0.881 0.626 0.1552   -0.10677
 C 0.0771 0.5199 0.2227   -0.168177
 C 0.9767 0.5731 0.3665   0.705915
 C 0.9793 0.5731 0.1038   -0.166084
 C 0.3599 0.5121 0.0962   0.143344
 C 0.2838 0.4186 0.111   -0.002748
 C 0.3501 0.6197 0.0357   -0.224748
 C 0.4467 0.4949 0.1394   -0.236693
 C 0.5171 0.5823 0.1229   0.19284
 C 0.4227 0.7025 0.0235   0.185068
 C 0.4268 0.0232 0.2262   -0.121724
 C 0.482 0.9216 0.3624   0.208923
 C 0.3108 0.2222 0.3833   0.621592
 C 0.3731 0.1205 0.2597   -0.069019
 C 0.374 0.119 0.3448   -0.106771
 C 0.4801 0.9229 0.2773   -0.168177
 C 0.4269 0.0233 0.1335   0.705916
 C 0.4269 0.0207 0.3962   -0.166084
 C 0.4879 0.6401 0.4038   0.143344
 C 0.5814 0.7162 0.389   -0.002749
 C 0.3803 0.6499 0.4643   -0.224748
 C 0.5051 0.5533 0.3606   -0.236693
 C 0.4177 0.4829 0.3771   0.19284
 C 0.2975 0.5773 0.4765   0.185068
 C 0.0232 0.4268 0.7262   -0.121724
 C 0.9216 0.482 0.8624   0.208923
 C 0.2222 0.3108 0.8833   0.621593
 C 0.1205 0.3731 0.7597   -0.06902
 C 0.119 0.374 0.8448   -0.10677
 C 0.9229 0.4801 0.7773   -0.168177
 C 0.0233 0.4269 0.6335   0.705915
 C 0.0207 0.4269 0.8962   -0.166084
 C 0.6401 0.4879 0.9038   0.143344
 C 0.7162 0.5814 0.889   -0.002748
 C 0.6499 0.3803 0.9643   -0.224748
 C 0.5533 0.5051 0.8606   -0.236693
 C 0.4829 0.4177 0.8771   0.19284
 C 0.5773 0.2975 0.9765   0.185068
 C 0.5732 0.9768 0.7738   -0.121724
 C 0.518 0.0784 0.6376   0.208923
 C 0.6892 0.7778 0.6167   0.621593
 C 0.6269 0.8795 0.7403   -0.069019
 C 0.626 0.881 0.6552   -0.106771
 C 0.5199 0.0771 0.7227   -0.168177
 C 0.5731 0.9767 0.8665   0.705916
 C 0.5731 0.9793 0.6038   -0.166084
 C 0.5121 0.3599 0.5962   0.143343
 C 0.4186 0.2838 0.611   -0.002749
 C 0.6197 0.3501 0.5357   -0.224748
 C 0.4949 0.4467 0.6394   -0.236693
 C 0.5823 0.5171 0.6229   0.19284
 C 0.7025 0.4227 0.5235   0.185068
 N 0.1736 0.4618 0.0858   -0.381807
 N 0.5053 0.6865 0.0683   -0.368633
 N 0.5382 0.8264 0.4142   -0.381807
 N 0.3135 0.4947 0.4317   -0.368633
 N 0.8264 0.5382 0.9142   -0.381807
 N 0.4947 0.3135 0.9317   -0.368633
 N 0.4618 0.1736 0.5858   -0.381807
 N 0.6865 0.5053 0.5683   -0.368633
 O 0.689 0.7374 0.1638   -0.587328
 O 0.7849 0.6961 0.0363   -0.600697
 O 0.0691 0.5367 0.3921   -0.630813
 O 0.8796 0.6134 0.4124   -0.607236
 O 0.2626 0.311 0.3362   -0.587328
 O 0.3039 0.2151 0.4637   -0.600698
 O 0.4633 0.9309 0.1079   -0.630813
 O 0.3866 0.1204 0.0876   -0.607236
 O 0.311 0.2626 0.8362   -0.587328
 O 0.2151 0.3039 0.9637   -0.600698
 O 0.9309 0.4633 0.6079   -0.630813
 O 0.1204 0.3866 0.5876   -0.607236
 O 0.7374 0.689 0.6638   -0.587328
 O 0.6961 0.7849 0.5363   -0.600698
 O 0.5367 0.0691 0.8921   -0.630813
 O 0.6134 0.8796 0.9124   -0.607236
