{'_ref': 'TBD', '_srcid': 'CAKYAQ_clean', 'submitters': [{'name': 'Dalar Nazarian Jeff Camp and David Sholl', 'email': 'dalar@gatech.edu jcamp6@gatech.edu'}], '_method': 'VASP DFT with PBE;DDEC'}
data_MnH10C14(NO2)2
_symmetry_space_group_name_H-M   'P 1'
_cell_length_a   11.88499948
_cell_length_b   11.88500025
_cell_length_c   16.34400000
_cell_angle_alpha   73.48310273
_cell_angle_beta   73.48310162
_cell_angle_gamma   78.50999944
_symmetry_Int_Tables_number   1
_chemical_formula_structural   MnH10C14(NO2)2
_chemical_formula_sum   'Mn4 H40 C56 N8 O16'
_cell_volume   2104.37572181
_cell_formula_units_Z   4
loop_
 _symmetry_equiv_pos_site_id
 _symmetry_equiv_pos_as_xyz
  1  'x, y, z'
loop_
 _atom_site_label
 _atom_site_fract_x
 _atom_site_fract_y
 _atom_site_fract_z
 _atom_site_charge
 Mn 0.3325 0.11538 0.54706   1.029091
 Mn 0.88462 0.6675 0.95294   1.029091
 Mn 0.6675 0.88462 0.45294   1.029091
 Mn 0.11538 0.3325 0.04706   1.029091
 H 0.9527 0.6647 0.5368   0.278209
 H 0.9871 0.6423 0.7449   0.108135
 H 0.1638 0.313 0.7746   0.091555
 H 0.0752 0.4798 0.5464   0.113888
 H 0.8776 0.7664 0.6718   0.098152
 H 0.8619 0.8273 0.5766   0.094124
 H 0.1342 0.795 0.4997   0.134935
 H 0.9222 0.9596 0.6792   0.136512
 H 0.0679 0.0737 0.6546   0.061767
 H 0.2743 0.9131 0.4821   0.074683
 H 0.3353 0.0473 0.9632   0.278209
 H 0.3577 0.0129 0.7551   0.108135
 H 0.687 0.8362 0.7254   0.091556
 H 0.5202 0.9248 0.9536   0.113888
 H 0.2336 0.1224 0.8282   0.098154
 H 0.1727 0.1381 0.9234   0.094124
 H 0.205 0.8658 0.000300000000003   0.134934
 H 0.0404 0.0778 0.8208   0.136506
 H 0.9263 0.9321 0.8454   0.061762
 H 0.0869 0.7257 0.0179   0.074683
 H 0.0473 0.3353 0.4632   0.278209
 H 0.0129 0.3577 0.2551   0.108135
 H 0.8362 0.687 0.2254   0.091555
 H 0.9248 0.5202 0.4536   0.113888
 H 0.1224 0.2336 0.3282   0.098152
 H 0.1381 0.1727 0.4234   0.094124
 H 0.8658 0.205 0.5003   0.134929
 H 0.0778 0.0404 0.3208   0.136508
 H 0.9321 0.9263 0.3454   0.061765
 H 0.7257 0.0869 0.5179   0.074683
 H 0.6647 0.9527 0.0368   0.278209
 H 0.6423 0.9871 0.2449   0.108135
 H 0.313 0.1638 0.2746   0.091556
 H 0.4798 0.0752 0.0464   0.113888
 H 0.7664 0.8776 0.1718   0.098154
 H 0.8273 0.8619 0.0766   0.094124
 H 0.795 0.1342 0.9997   0.134929
 H 0.9596 0.9222 0.1792   0.136502
 H 0.0737 0.0679 0.1546   0.06176
 H 0.9131 0.2743 0.9821   0.074683
 C 0.0183 0.5783 0.6365   0.205573
 C 0.0745 0.4757 0.7744   -0.128358
 C 0.1898 0.2776 0.6164   0.622532
 C 0.1263 0.3807 0.6552   -0.111966
 C 0.021 0.5764 0.7223   -0.167077
 C 0.1274 0.379 0.7406   -0.063357
 C 0.0134 0.8586 0.5958   0.140014
 C 0.0734 0.4754 0.8665   0.710119
 C 0.0737 0.4793 0.6037   -0.165472
 C 0.9188 0.7828 0.61   -0.001889
 C 0.1192 0.8494 0.5339   -0.232835
 C 0.9941 0.9465 0.6395   -0.233134
 C 0.0828 0.0154 0.6237   0.189625
 C 0.2026 0.922 0.5232   0.180953
 C 0.4217 0.9817 0.8635   0.205573
 C 0.5243 0.9255 0.7256   -0.128357
 C 0.7224 0.8102 0.8836   0.622535
 C 0.6193 0.8737 0.8448   -0.111965
 C 0.4236 0.979 0.7777   -0.167078
 C 0.621 0.8726 0.7594   -0.063357
 C 0.1414 0.9866 0.9042   0.140013
 C 0.5246 0.9266 0.6335   0.710121
 C 0.5207 0.9263 0.8963   -0.165472
 C 0.2172 0.0812 0.89   -0.001889
 C 0.1506 0.8808 0.9661   -0.232835
 C 0.0535 0.0059 0.8605   -0.233133
 C 0.9846 0.9172 0.8763   0.189625
 C 0.078 0.7974 0.9768   0.180954
 C 0.9817 0.4217 0.3635   0.205573
 C 0.9255 0.5243 0.2256   -0.128358
 C 0.8102 0.7224 0.3836   0.622533
 C 0.8737 0.6193 0.3448   -0.111966
 C 0.979 0.4236 0.2777   -0.167077
 C 0.8726 0.621 0.2594   -0.063357
 C 0.9866 0.1414 0.4042   0.140013
 C 0.9266 0.5246 0.1335   0.710119
 C 0.9263 0.5207 0.3963   -0.165472
 C 0.0812 0.2172 0.39   -0.001889
 C 0.8808 0.1506 0.4661   -0.232835
 C 0.0059 0.0535 0.3605   -0.233135
 C 0.9172 0.9846 0.3763   0.189625
 C 0.7974 0.078 0.4768   0.180952
 C 0.5783 0.0183 0.1365   0.205573
 C 0.4757 0.0745 0.2744   -0.128357
 C 0.2776 0.1898 0.1164   0.622535
 C 0.3807 0.1263 0.1552   -0.111965
 C 0.5764 0.021 0.2223   -0.167078
 C 0.379 0.1274 0.2406   -0.063357
 C 0.8586 0.0134 0.0958   0.140012
 C 0.4754 0.0734 0.3665   0.710121
 C 0.4793 0.0737 0.1037   -0.165472
 C 0.7828 0.9188 0.11   -0.001889
 C 0.8494 0.1192 0.0339   -0.232835
 C 0.9465 0.9941 0.1395   -0.233133
 C 0.0154 0.0828 0.1237   0.189624
 C 0.922 0.2026 0.0232   0.180953
 N 0.1863 0.0045 0.5685   -0.361965
 N 0.9622 0.6722 0.5851   -0.375457
 N 0.9955 0.8137 0.9315   -0.361965
 N 0.3278 0.0378 0.9149   -0.375457
 N 0.8137 0.9955 0.4315   -0.361965
 N 0.0378 0.3278 0.4149   -0.375457
 N 0.0045 0.1863 0.0685   -0.361965
 N 0.6722 0.9622 0.0851   -0.375457
 O 0.2375 0.1883 0.6644   -0.594238
 O 0.1972 0.2828 0.5369   -0.594448
 O 0.1144 0.38 0.9112   -0.595435
 O 0.0377 0.5699 0.8914   -0.644229
 O 0.8117 0.7625 0.8356   -0.594239
 O 0.7172 0.8028 0.9631   -0.594449
 O 0.62 0.8856 0.5888   -0.595435
 O 0.4301 0.9623 0.6086   -0.644229
 O 0.7625 0.8117 0.3356   -0.594238
 O 0.8028 0.7172 0.4631   -0.594448
 O 0.8856 0.62 0.0888   -0.595435
 O 0.9623 0.4301 0.1086   -0.644229
 O 0.1883 0.2375 0.1644   -0.594239
 O 0.2828 0.1972 0.0369   -0.594449
 O 0.38 0.1144 0.4112   -0.595435
 O 0.5699 0.0377 0.3914   -0.644229
