{'_ref': 'TBD', '_srcid': 'CAKYAQ_clean', 'submitters': [{'name': 'Dalar Nazarian Jeff Camp and David Sholl', 'email': 'dalar@gatech.edu jcamp6@gatech.edu'}], '_method': 'VASP DFT with PBE;DDEC'}
data_CoP2H20(C3O)8
_symmetry_space_group_name_H-M   'P 1'
_cell_length_a   12.34280000
_cell_length_b   14.96299990
_cell_length_c   16.13700000
_cell_angle_alpha   116.58899814
_cell_angle_beta   90.00000000
_cell_angle_gamma   90.00000000
_symmetry_Int_Tables_number   1
_chemical_formula_structural   CoP2H20(C3O)8
_chemical_formula_sum   'Co4 P8 H80 C96 O32'
_cell_volume   2665.07449166
_cell_formula_units_Z   4
loop_
 _symmetry_equiv_pos_site_id
 _symmetry_equiv_pos_as_xyz
  1  'x, y, z'
loop_
 _atom_site_label
 _atom_site_fract_x
 _atom_site_fract_y
 _atom_site_fract_z
 _atom_site_charge
 Co 0.17757 0.74925 0.02502   1.06793
 Co 0.54833 0.52142 0.99389   1.361157
 Co 0.67757 0.25075 0.97498   1.06793
 Co 0.04833 0.47858 0.00611   1.361157
 P 0.1859 0.64064 0.16028   1.369762
 P 0.3919 0.63237 0.91124   1.430998
 P 0.51096 0.43012 0.1207   1.316825
 P 0.2476 0.32009 0.91663   1.298566
 P 0.6859 0.35936 0.83972   1.369762
 P 0.8919 0.36763 0.08876   1.430998
 P 0.01096 0.56988 0.8793   1.316825
 P 0.7476 0.67991 0.08337   1.298566
 H 0.7802 0.568 0.7563   0.124249
 H 0.8747 0.5749 0.6353   0.112676
 H 0.6126 0.5936 0.8455   0.099526
 H 0.337 0.6746 0.7575   0.090673
 H 0.4283 0.7869 0.3925   0.079146
 H 0.0911 0.8328 0.282   0.068491
 H 0.4306 0.682 0.6392   0.087685
 H 0.2012 0.6943 0.6266   0.137491
 H 0.242 0.6123 0.3164   0.075892
 H 0.7882 0.054 0.6313   0.103609
 H 0.9034 0.5169 0.4711   0.037198
 H 0.9583 0.6236 0.5338   0.034996
 H 0.8695 0.189 0.7528   0.110532
 H 0.2528 0.6215 0.4734   0.090245
 H 0.0303 0.2727 0.8438   0.099864
 H 0.4612 0.8863 0.5489   0.124565
 H 0.9967 0.7416 0.7026   0.001483
 H 0.9885 0.8356 0.801   0.052668
 H 0.8138 0.7837 0.3573   0.127998
 H 0.6861 0.7998 0.3742   0.110135
 H 0.752 0.7382 0.4171   0.122325
 H 0.0525 0.9166 0.4376   0.096833
 H 0.6337 0.491 0.4251   0.093403
 H 0.2365 0.9837 0.6756   0.09069
 H 0.8749 0.567 0.3522   0.129263
 H 0.0013 0.5667 0.3744   0.11221
 H 0.9359 0.67 0.4141   0.124917
 H 0.5625 0.9885 0.7279   0.025306
 H 0.4565 0.9325 0.6727   0.036826
 H 0.7776 0.9485 0.4751   0.038824
 H 0.7182 0.9018 0.5355   0.042187
 H 0.3168 0.1244 0.7869   0.08714
 H 0.6153 0.3977 0.2677   0.093654
 H 0.4538 0.6258 0.2523   0.099904
 H 0.3974 0.9329 0.7751   0.129865
 H 0.4953 0.0039 0.8323   0.124013
 H 0.5035 0.8857 0.7968   0.15569
 H 0.8361 0.7998 0.7302   0.147301
 H 0.8861 0.8134 0.6451   0.101975
 H 0.877 0.9074 0.745   0.109401
 H 0.2802 0.432 0.2437   0.124249
 H 0.3747 0.4251 0.3647   0.112676
 H 0.1126 0.4064 0.1545   0.099526
 H 0.837 0.3254 0.2425   0.090673
 H 0.9283 0.2131 0.6075   0.079146
 H 0.5911 0.1672 0.718   0.068491
 H 0.9306 0.318 0.3608   0.087686
 H 0.7012 0.3057 0.3734   0.137492
 H 0.742 0.3877 0.6836   0.075892
 H 0.2882 0.946 0.3687   0.103609
 H 0.4034 0.4831 0.5289   0.0372
 H 0.4583 0.3764 0.4662   0.034996
 H 0.3695 0.811 0.2472   0.110532
 H 0.7528 0.3785 0.5266   0.090246
 H 0.5303 0.7273 0.1562   0.099864
 H 0.9612 0.1137 0.4511   0.124569
 H 0.4967 0.2584 0.2974   0.001483
 H 0.4885 0.1644 0.199   0.052669
 H 0.3138 0.2163 0.6427   0.127998
 H 0.1861 0.2002 0.6258   0.110135
 H 0.252 0.2618 0.5829   0.122325
 H 0.5525 0.0834 0.5624   0.096836
 H 0.1337 0.509 0.5749   0.093404
 H 0.7365 0.0163 0.3244   0.090691
 H 0.3749 0.433 0.6478   0.129263
 H 0.5013 0.4333 0.6256   0.11221
 H 0.4359 0.33 0.5859   0.124917
 H 0.0625 0.0115 0.2721   0.025306
 H 0.9565 0.0675 0.3273   0.036826
 H 0.2776 0.0515 0.5249   0.038827
 H 0.2182 0.0982 0.4645   0.042188
 H 0.8168 0.8756 0.2131   0.087141
 H 0.1153 0.6023 0.7323   0.093653
 H 0.9538 0.3742 0.7477   0.099904
 H 0.8974 0.0671 0.2249   0.129865
 H 0.9953 0.9961 0.1677   0.124014
 H 0.0035 0.1143 0.2032   0.15569
 H 0.3361 0.2002 0.2698   0.147301
 H 0.3861 0.1866 0.3549   0.101975
 H 0.377 0.0926 0.255   0.109401
 C 0.1706 0.7122 0.2838   -0.315722
 C 0.5782 0.6398 0.6654   0.047434
 C 0.5623 0.621 0.4359   0.048234
 C 0.4636 0.6327 0.8154   -0.347583
 C 0.5485 0.7807 0.5688   0.255086
 C 0.744 0.5875 0.7151   0.01043
 C 0.0814 0.0416 0.6867   0.050453
 C 0.7461 0.6199 0.5825   0.242018
 C 0.0217 0.1304 0.7387   0.003112
 C 0.1829 0.7236 0.4384   -0.002493
 C 0.6322 0.6125 0.728   -0.014865
 C 0.1197 0.8105 0.6222   0.249191
 C 0.0306 0.9568 0.6167   -0.071446
 C 0.7998 0.5914 0.6436   -0.238263
 C 0.9241 0.9631 0.5954   0.233305
 C 0.5753 0.6103 0.8028   0.045273
 C 0.4122 0.6592 0.7509   0.028303
 C 0.4676 0.7604 0.4271   -0.012784
 C 0.583 0.6833 0.5321   -0.077609
 C 0.1135 0.805 0.3218   0.02925
 C 0.4679 0.6629 0.6803   -0.135796
 C 0.6373 0.6458 0.593   -0.066723
 C 0.0903 0.8595 0.5695   -0.07785
 C 0.1809 0.7237 0.5876   -0.218833
 C 0.2038 0.674 0.3414   0.010162
 C 0.8621 0.0508 0.6461   -0.233412
 C 0.9043 0.5882 0.4845   0.163507
 C 0.5048 0.6588 0.3822   -0.012057
 C 0.9114 0.1311 0.7172   -0.039388
 C 0.121 0.817 0.4761   0.047151
 C 0.2113 0.6813 0.4973   -0.057676
 C 0.0717 0.2144 0.8086   0.013465
 C 0.4878 0.8198 0.5192   -0.248629
 C 0.9897 0.8153 0.7336   0.226027
 C 0.7551 0.7946 0.4017   -0.384523
 C 0.0903 0.8548 0.4146   -0.143514
 C 0.5994 0.5197 0.39   -0.14375
 C 0.1943 0.0422 0.7083   -0.126905
 C 0.9315 0.5989 0.3989   -0.383738
 C 0.5154 0.9298 0.7132   0.23922
 C 0.7759 0.8907 0.4893   0.160603
 C 0.1795 0.2127 0.8262   -0.293401
 C 0.2416 0.1249 0.7746   0.01298
 C 0.5866 0.4636 0.2969   0.018725
 C 0.4914 0.5992 0.2877   0.009871
 C 0.5309 0.5024 0.243   -0.260383
 C 0.476 0.9384 0.7821   -0.428977
 C 0.8906 0.8353 0.712   -0.411611
 C 0.6706 0.2878 0.7162   -0.315722
 C 0.0782 0.3602 0.3346   0.047434
 C 0.0623 0.379 0.5641   0.048234
 C 0.9636 0.3673 0.1846   -0.347583
 C 0.0485 0.2193 0.4312   0.255086
 C 0.244 0.4125 0.2849   0.01043
 C 0.5814 0.9584 0.3133   0.050453
 C 0.2461 0.3801 0.4175   0.242018
 C 0.5217 0.8696 0.2613   0.003112
 C 0.6829 0.2764 0.5616   -0.002492
 C 0.1322 0.3875 0.272   -0.014865
 C 0.6197 0.1895 0.3778   0.249191
 C 0.5306 0.0432 0.3833   -0.071446
 C 0.2998 0.4086 0.3564   -0.238263
 C 0.4241 0.0369 0.4046   0.233305
 C 0.0753 0.3897 0.1972   0.045273
 C 0.9122 0.3408 0.2491   0.028303
 C 0.9676 0.2396 0.5729   -0.012784
 C 0.083 0.3167 0.4679   -0.077609
 C 0.6135 0.195 0.6782   0.029251
 C 0.9679 0.3371 0.3197   -0.135797
 C 0.1373 0.3542 0.407   -0.066723
 C 0.5903 0.1405 0.4305   -0.07785
 C 0.6809 0.2763 0.4124   -0.218833
 C 0.7038 0.326 0.6586   0.010162
 C 0.3621 0.9492 0.3539   -0.233412
 C 0.4043 0.4118 0.5155   0.163506
 C 0.0048 0.3412 0.6178   -0.012058
 C 0.4114 0.8689 0.2828   -0.039388
 C 0.621 0.183 0.5239   0.047151
 C 0.7113 0.3187 0.5027   -0.057676
 C 0.5717 0.7856 0.1914   0.013465
 C 0.9878 0.1802 0.4808   -0.24863
 C 0.4897 0.1847 0.2664   0.226026
 C 0.2551 0.2054 0.5983   -0.384524
 C 0.5903 0.1452 0.5854   -0.143515
 C 0.0994 0.4803 0.61   -0.143751
 C 0.6943 0.9578 0.2917   -0.126906
 C 0.4315 0.4011 0.6011   -0.383738
 C 0.0154 0.0702 0.2868   0.23922
 C 0.2759 0.1093 0.5107   0.160602
 C 0.6795 0.7873 0.1738   -0.293401
 C 0.7416 0.8751 0.2254   0.01298
 C 0.0866 0.5364 0.7031   0.018725
 C 0.9914 0.4008 0.7123   0.009871
 C 0.0309 0.4976 0.757   -0.260383
 C 0.976 0.0616 0.2179   -0.428978
 C 0.3906 0.1647 0.288   -0.411611
 O 0.32 0.7223 0.9503   -0.760597
 O 0.4712 0.6247 0.9772   -0.764929
 O 0.7994 0.6316 0.5129   -0.235289
 O 0.2623 0.5526 0.1515   -0.590288
 O 0.5794 0.8398 0.6599   -0.289817
 O 0.0755 0.5969 0.1211   -0.740164
 O 0.8784 0.8789 0.5244   -0.239345
 O 0.3185 0.5325 0.8687   -0.492675
 O 0.0879 0.8529 0.7163   -0.353969
 O 0.2352 0.7034 0.1196   -0.758883
 O 0.432 0.343 0.1096   -0.592049
 O 0.6211 0.3899 0.0761   -0.75491
 O 0.2821 0.2902 0.9889   -0.532217
 O 0.3539 0.337 0.8694   -0.473767
 O 0.4582 0.4961 0.0823   -0.677746
 O 0.1807 0.4106 0.9435   -0.715315
 O 0.82 0.2777 0.0497   -0.760597
 O 0.9712 0.3753 0.0228   -0.764929
 O 0.2994 0.3684 0.4871   -0.235289
 O 0.7623 0.4474 0.8485   -0.590288
 O 0.0794 0.1602 0.3401   -0.289817
 O 0.5755 0.4031 0.8789   -0.740165
 O 0.3784 0.1211 0.4756   -0.239345
 O 0.8185 0.4675 0.1313   -0.492676
 O 0.5879 0.1471 0.2837   -0.353969
 O 0.7352 0.2966 0.8804   -0.758883
 O 0.932 0.657 0.8904   -0.592049
 O 0.1211 0.6101 0.9239   -0.754911
 O 0.7821 0.7098 0.0111   -0.532217
 O 0.8539 0.663 0.1306   -0.473768
 O 0.9582 0.5039 0.9177   -0.677746
 O 0.6807 0.5894 0.0565   -0.715315
