{'_ref': 'TBD', '_srcid': 'CAKYAQ_clean', 'submitters': [{'name': 'Dalar Nazarian Jeff Camp and David Sholl', 'email': 'dalar@gatech.edu jcamp6@gatech.edu'}], '_method': 'VASP DFT with PBE;DDEC'}
data_Cu4P8H65(C13O4)8
_symmetry_space_group_name_H-M   'P 1'
_cell_length_a   8.21100000
_cell_length_b   13.43080000
_cell_length_c   25.66400000
_cell_angle_alpha   90.00000000
_cell_angle_beta   90.00000000
_cell_angle_gamma   90.00000000
_symmetry_Int_Tables_number   1
_chemical_formula_structural   Cu4P8H65(C13O4)8
_chemical_formula_sum   'Cu4 P8 H65 C104 O32'
_cell_volume   2830.2335884
_cell_formula_units_Z   1
loop_
 _symmetry_equiv_pos_site_id
 _symmetry_equiv_pos_as_xyz
  1  'x, y, z'
loop_
 _atom_site_label
 _atom_site_fract_x
 _atom_site_fract_y
 _atom_site_fract_z
 _atom_site_charge
 Cu 0.15638 0.6902 0.99707   1.1657
 Cu 0.34362 0.3098 0.49707   1.077152
 Cu 0.84362 0.1902 0.50293   1.158774
 Cu 0.65638 0.8098 0.00293   1.17446
 P 0.865 0.68809 0.92571   1.402384
 P 0.6145 0.33246 0.58099   1.441327
 P 0.635 0.31191 0.42571   1.401222
 P 0.8855 0.66754 0.08099   1.451506
 P 0.135 0.18809 0.57429   1.38942
 P 0.3855 0.83246 0.91901   1.438118
 P 0.365 0.81191 0.07429   1.404878
 P 0.1145 0.16754 0.41901   1.436634
 H 0.78463 0.86068 0.86579   0.105874
 H 0.9771 0.56152 0.841   0.117628
 H 0.7458 0.97467 0.78947   0.103108
 H 0.74682 0.00837 0.69348   0.113626
 H 0.00552 0.5995 0.7423   0.095869
 H 0.60934 0.92819 0.60904   0.082072
 H 0.76612 0.96039 0.55942   0.128763
 H 0.77007 0.02135 0.62455   0.078139
 H 0.66134 0.64297 0.68203   0.089539
 H 0.43907 0.82636 0.66844   0.059484
 H 0.34467 0.71548 0.69979   0.035786
 H 0.28785 0.84291 0.72179   0.065842
 H 0.95031 0.39282 0.56619   0.1191
 H 0.51216 0.49617 0.64807   0.08834
 H 0.4468 0.13308 0.73255   0.157306
 H 0.75126 0.3437 0.92916   0.264922
 H 0.71525 0.13965 0.36601   0.103936
 H 0.5229 0.43848 0.341   0.117218
 H 0.7542 0.02533 0.28947   0.101911
 H 0.75318 0.99163 0.19348   0.110927
 H 0.4938 0.40235 0.24355   0.100109
 H 0.75185 0.04935 0.05842   0.136313
 H 0.7142 0.97611 0.11882   0.08831
 H 0.88842 0.06461 0.11577   0.082417
 H 0.83866 0.35703 0.18203   0.08885
 H 0.15017 0.12553 0.20054   0.09468
 H 0.06301 0.23751 0.16814   0.042922
 H 0.21523 0.25222 0.22134   0.031316
 H 0.29475 0.51167 0.07306   0.138653
 H 0.98784 0.50383 0.14807   0.095814
 H 0.15136 0.34662 0.09744   0.153927
 H 0.0532 0.86692 0.23255   0.192058
 H 0.74874 0.6563 0.42916   0.261914
 H 0.21537 0.36068 0.63421   0.103104
 H 0.0229 0.06152 0.659   0.113122
 H 0.2542 0.47467 0.71053   0.098448
 H 0.25318 0.50837 0.80652   0.118198
 H 0.99448 0.0995 0.7577   0.094731
 H 0.3178 0.4893 0.86308   0.072104
 H 0.35545 0.41606 0.92348   0.102701
 H 0.18122 0.50456 0.92043   0.120577
 H 0.33866 0.14297 0.81797   0.094414
 H 0.63544 0.21536 0.8072   0.045989
 H 0.7226 0.32734 0.77479   0.064119
 H 0.57037 0.34205 0.828   0.072133
 H 0.48784 0.99617 0.85193   0.092995
 H 0.5532 0.63308 0.76745   0.182299
 H 0.24874 0.8437 0.57084   0.264062
 H 0.28463 0.63932 0.13421   0.103688
 H 0.4771 0.93848 0.159   0.116
 H 0.2458 0.52533 0.21053   0.099505
 H 0.24682 0.49163 0.30652   0.114195
 H 0.5062 0.90235 0.25645   0.099655
 H 0.32101 0.48824 0.4137   0.119356
 H 0.16424 0.52044 0.36408   0.067685
 H 0.16029 0.5814 0.42921   0.110348
 H 0.16134 0.85703 0.31797   0.090997
 H 0.77533 0.73653 0.2751   0.041682
 H 0.86972 0.62565 0.30644   0.094601
 H 0.92654 0.75308 0.32844   0.039937
 H 0.70525 0.01167 0.42694   0.135529
 H 0.01216 0.00383 0.35193   0.094727
 H 0.84865 0.8477 0.40287   0.154199
 H 0.9468 0.36692 0.26745   0.201694
 H 0.25126 0.1563 0.07084   0.260742
 C 0.8433 0.8207 0.7839   0.02006
 C 0.8807 0.7118 0.8568   -0.305769
 C 0.833 0.8011 0.8382   -0.020789
 C 0.9815 0.6924 0.6595   -0.063143
 C 0.9051 0.7656 0.6948   -0.098211
 C 0.9015 0.7447 0.7494   0.06588
 C 0.9401 0.6366 0.824   -0.012068
 C 0.8941 0.6047 0.6426   0.076172
 C 0.7903 0.9128 0.7626   -0.077023
 C 0.7895 0.9328 0.7084   -0.246681
 C 0.952 0.6574 0.7699   -0.160954
 C 0.1372 0.7065 0.6428   0.194198
 C 0.8423 0.857 0.6755   0.258361
 C 0.7424 0.9493 0.6028   -0.084199
 C 0.7282 0.588 0.6558   -0.152782
 C 0.323 0.7955 0.6867   -0.058493
 C 0.9742 0.5336 0.6099   0.021441
 C 0.1377 0.548 0.5961   0.016013
 C 0.8877 0.45 0.5922   -0.016645
 C 0.646 0.507 0.6377   -0.00488
 C 0.729 0.4348 0.6053   -0.320274
 C 0.219 0.6375 0.611   -0.160604
 C 0.6472 0.2261 0.6646   0.053175
 C 0.5313 0.1723 0.7039   -0.087684
 C 0.74 0.4266 0.938   -0.3985
 C 0.727 0.5223 0.9482   0.170737
 C 0.6567 0.1793 0.2839   0.026181
 C 0.6193 0.2882 0.3568   -0.308339
 C 0.667 0.1989 0.3382   -0.031287
 C 0.5185 0.3076 0.1595   -0.065645
 C 0.5949 0.2344 0.1948   -0.109435
 C 0.5985 0.2553 0.2494   0.072581
 C 0.5599 0.3634 0.324   -0.017512
 C 0.6059 0.3953 0.1426   0.089433
 C 0.7097 0.0872 0.2626   -0.093911
 C 0.7105 0.0672 0.2084   -0.241388
 C 0.548 0.3426 0.2699   -0.174717
 C 0.3628 0.2935 0.1428   0.227357
 C 0.6577 0.143 0.1755   0.256911
 C 0.7576 0.0507 0.1028   -0.102006
 C 0.7718 0.412 0.1558   -0.167715
 C 0.177 0.2045 0.1867   -0.071302
 C 0.5258 0.4664 0.1099   0.010514
 C 0.3623 0.452 0.0961   -0.098294
 C 0.6123 0.55 0.0922   0.118534
 C 0.854 0.493 0.1377   0.007372
 C 0.771 0.5652 0.1053   -0.374366
 C 0.281 0.3625 0.111   -0.242826
 C 0.8528 0.7739 0.1646   0.003588
 C 0.9687 0.8277 0.2039   -0.128529
 C 0.76 0.5734 0.438   -0.397011
 C 0.773 0.4777 0.4482   0.182994
 C 0.1567 0.3207 0.7161   0.019372
 C 0.1193 0.2118 0.6432   -0.301404
 C 0.167 0.3011 0.6618   -0.013899
 C 0.0185 0.1924 0.8405   -0.072935
 C 0.0949 0.2656 0.8052   -0.097617
 C 0.0985 0.2447 0.7506   0.065833
 C 0.0599 0.1366 0.676   -0.014278
 C 0.1059 0.1047 0.8574   0.098456
 C 0.2097 0.4128 0.7374   -0.072147
 C 0.2105 0.4328 0.7916   -0.248993
 C 0.048 0.1574 0.7301   -0.157599
 C 0.8628 0.2065 0.8572   0.216186
 C 0.1577 0.357 0.8245   0.259445
 C 0.2576 0.4493 0.8972   -0.10639
 C 0.2718 0.088 0.8442   -0.164467
 C 0.677 0.2955 0.8133   -0.068183
 C 0.0258 0.0336 0.8901   -0.019641
 C 0.8623 0.048 0.9039   -0.002776
 C 0.1123 0.95 0.9078   0.128066
 C 0.354 0.007 0.8623   0.011199
 C 0.271 0.9348 0.8947   -0.370871
 C 0.781 0.1375 0.889   -0.200344
 C 0.3528 0.7261 0.8354   0.006804
 C 0.4687 0.6723 0.7961   -0.115876
 C 0.26 0.9266 0.562   -0.398084
 C 0.273 0.0223 0.5518   0.171866
 C 0.3433 0.6793 0.2161   0.027084
 C 0.3807 0.7882 0.1432   -0.307847
 C 0.333 0.6989 0.1618   -0.022865
 C 0.4815 0.8076 0.3405   -0.069586
 C 0.4051 0.7344 0.3052   -0.110582
 C 0.4015 0.7553 0.2506   0.073897
 C 0.4401 0.8634 0.176   -0.016505
 C 0.3941 0.8953 0.3574   0.089791
 C 0.2903 0.5872 0.2374   -0.09202
 C 0.2895 0.5672 0.2916   -0.242784
 C 0.452 0.8426 0.2301   -0.171239
 C 0.6372 0.7935 0.3572   0.230158
 C 0.3423 0.643 0.3245   0.258056
 C 0.2424 0.5507 0.3972   -0.105324
 C 0.2282 0.912 0.3442   -0.16585
 C 0.823 0.7045 0.3133   -0.067745
 C 0.4742 0.9664 0.3901   0.011902
 C 0.6377 0.952 0.4039   -0.095847
 C 0.3877 0.05 0.4078   0.120062
 C 0.146 0.993 0.3623   0.003887
 C 0.229 0.0652 0.3947   -0.374413
 C 0.719 0.8625 0.389   -0.246883
 C 0.1472 0.2739 0.3354   0.016157
 C 0.0313 0.3277 0.2961   -0.088076
 C 0.24 0.0734 0.062   -0.397829
 C 0.227 0.9777 0.0518   0.180476
 O 0.0188 0.6369 0.9434   -0.779648
 O 0.2064 0.7975 0.6527   -0.155205
 O 0.848 0.8691 0.6227   -0.212863
 O 0.714 0.6169 0.9319   -0.336218
 O 0.7308 0.265 0.5554   -0.854274
 O 0.5397 0.2795 0.63063   -0.372255
 O 0.4731 0.3712 0.5499   -0.785489
 O 0.8234 0.7851 0.95287   -0.834267
 O 0.4812 0.3631 0.4434   -0.770031
 O 0.2936 0.2025 0.1527   -0.172897
 O 0.652 0.1309 0.1227   -0.209139
 O 0.786 0.3831 0.4319   -0.345174
 O 0.7692 0.735 0.0554   -0.858803
 O 0.9603 0.7205 0.13063   -0.31715
 O 0.0269 0.6288 0.0499   -0.800734
 O 0.6766 0.2149 0.45287   -0.832573
 O 0.9812 0.1369 0.5566   -0.775038
 O 0.7936 0.2975 0.8473   -0.161798
 O 0.152 0.3691 0.8773   -0.198957
 O 0.286 0.1169 0.5681   -0.332373
 O 0.2692 0.765 0.9446   -0.854456
 O 0.4603 0.7795 0.86937   -0.292367
 O 0.5269 0.8712 0.9501   -0.786577
 O 0.1766 0.2851 0.54713   -0.821151
 O 0.5188 0.8631 0.0566   -0.777906
 O 0.7064 0.7025 0.3473   -0.177335
 O 0.348 0.6309 0.3773   -0.204647
 O 0.214 0.8831 0.0681   -0.340401
 O 0.2308 0.235 0.4446   -0.849409
 O 0.0397 0.2205 0.36937   -0.298438
 O 0.9731 0.1288 0.4501   -0.791198
 O 0.3234 0.7149 0.04713   -0.839329
