{'_ref': 'TBD', '_srcid': 'CAKYAQ_clean', 'submitters': [{'name': 'Dalar Nazarian Jeff Camp and David Sholl', 'email': 'dalar@gatech.edu jcamp6@gatech.edu'}], '_method': 'VASP DFT with PBE;DDEC'}
data_Na2CoH8(C2O)8
_symmetry_space_group_name_H-M   'P 1'
_cell_length_a   9.96600000
_cell_length_b   9.96600000
_cell_length_c   20.47200000
_cell_angle_alpha   90.00000000
_cell_angle_beta   90.00000000
_cell_angle_gamma   90.00000000
_symmetry_Int_Tables_number   1
_chemical_formula_structural   Na2CoH8(C2O)8
_chemical_formula_sum   'Na8 Co4 H32 C64 O32'
_cell_volume   2033.30270563
_cell_formula_units_Z   4
loop_
 _symmetry_equiv_pos_site_id
 _symmetry_equiv_pos_as_xyz
  1  'x, y, z'
loop_
 _atom_site_label
 _atom_site_fract_x
 _atom_site_fract_y
 _atom_site_fract_z
 _atom_site_charge
 Na 0.9429 0.8529 0.02078   0.975254
 Na 0.2768 0.7996 0.02966   0.96793
 Na 0.0571 0.1471 0.52078   0.975254
 Na 0.7232 0.2004 0.52966   0.96793
 Na 0.1471 0.9429 0.77078   0.975254
 Na 0.2004 0.2768 0.77966   0.967928
 Na 0.8529 0.0571 0.27078   0.975254
 Na 0.7996 0.7232 0.27966   0.967928
 Co 0.09863 0.78454 0.89562   1.034713
 Co 0.90137 0.21546 0.39562   1.034713
 Co 0.21546 0.09863 0.64562   1.034713
 Co 0.78454 0.90137 0.14562   1.034713
 H 0.6161 0.7814 0.9043   0.10662
 H 0.3987 0.759 0.7378   0.100064
 H 0.5972 0.7676 0.6762   0.10726
 H 0.802 0.7896 0.7285   0.086186
 H 0.1015 0.3235 0.902   0.043594
 H 0.1159 0.4802 0.0839   0.106458
 H 0.1345 0.2642 0.1272   0.111
 H 0.1427 0.0764 0.0575   0.075389
 H 0.3839 0.2186 0.4043   0.10662
 H 0.6013 0.241 0.2378   0.100064
 H 0.4028 0.2324 0.1762   0.10726
 H 0.198 0.2104 0.2285   0.086189
 H 0.8985 0.6765 0.402   0.043594
 H 0.8841 0.5198 0.5839   0.106457
 H 0.8655 0.7358 0.6272   0.111003
 H 0.8573 0.9236 0.5575   0.075389
 H 0.2186 0.6161 0.6543   0.106621
 H 0.241 0.3987 0.4878   0.100065
 H 0.2324 0.5972 0.4262   0.10726
 H 0.2104 0.802 0.4785   0.086186
 H 0.6765 0.1015 0.652   0.043595
 H 0.5198 0.1159 0.8339   0.106458
 H 0.7358 0.1345 0.8772   0.111
 H 0.9236 0.1427 0.8075   0.07539
 H 0.7814 0.3839 0.1543   0.106621
 H 0.759 0.6013 0.9878   0.100065
 H 0.7676 0.4028 0.9262   0.10726
 H 0.7896 0.198 0.9785   0.086189
 H 0.3235 0.8985 0.152   0.043595
 H 0.4802 0.8841 0.3339   0.106458
 H 0.2642 0.8655 0.3772   0.111003
 H 0.0764 0.8573 0.3075   0.07539
 C 0.729 0.7883 0.8211   -0.16659
 C 0.6121 0.7804 0.8579   0.002283
 C 0.4906 0.771 0.8265   -0.173665
 C 0.4832 0.7662 0.759   -0.003235
 C 0.6009 0.772 0.7225   -0.128415
 C 0.7219 0.7841 0.7536   -0.011103
 C 0.8621 0.8008 0.8554   0.702453
 C 0.3642 0.7706 0.8671   0.752195
 C 0.1237 0.1825 0.9729   -0.189693
 C 0.1099 0.311 0.9478   0.019469
 C 0.1083 0.4219 0.9893   -0.152406
 C 0.1175 0.4046 0.0556   -0.016192
 C 0.1292 0.2763 0.0812   -0.112954
 C 0.1334 0.164 0.0398   -0.008349
 C 0.1248 0.0647 0.9276   0.775675
 C 0.0956 0.5611 0.9623   0.699932
 C 0.271 0.2117 0.3211   -0.166589
 C 0.3879 0.2196 0.3579   0.002283
 C 0.5094 0.229 0.3265   -0.173665
 C 0.5168 0.2338 0.259   -0.003235
 C 0.3991 0.228 0.2225   -0.128415
 C 0.2781 0.2159 0.2536   -0.011104
 C 0.1379 0.1992 0.3554   0.702452
 C 0.6358 0.2294 0.3671   0.752195
 C 0.8763 0.8175 0.4729   -0.189693
 C 0.8901 0.689 0.4478   0.019469
 C 0.8917 0.5781 0.4893   -0.152406
 C 0.8825 0.5954 0.5556   -0.016192
 C 0.8708 0.7237 0.5812   -0.112955
 C 0.8666 0.836 0.5398   -0.008348
 C 0.8752 0.9353 0.4276   0.775675
 C 0.9044 0.4389 0.4623   0.699932
 C 0.2117 0.729 0.5711   -0.16659
 C 0.2196 0.6121 0.6079   0.002282
 C 0.229 0.4906 0.5765   -0.173665
 C 0.2338 0.4832 0.509   -0.003236
 C 0.228 0.6009 0.4725   -0.128416
 C 0.2159 0.7219 0.5036   -0.011104
 C 0.1992 0.8621 0.6054   0.702453
 C 0.2294 0.3642 0.6171   0.752195
 C 0.8175 0.1237 0.7229   -0.189693
 C 0.689 0.1099 0.6978   0.019469
 C 0.5781 0.1083 0.7393   -0.152406
 C 0.5954 0.1175 0.8056   -0.016193
 C 0.7237 0.1292 0.8312   -0.112955
 C 0.836 0.1334 0.7898   -0.00835
 C 0.9353 0.1248 0.6776   0.775675
 C 0.4389 0.0956 0.7123   0.699931
 C 0.7883 0.271 0.0711   -0.16659
 C 0.7804 0.3879 0.1079   0.002282
 C 0.771 0.5094 0.0765   -0.173665
 C 0.7662 0.5168 0.009   -0.003236
 C 0.772 0.3991 0.9725   -0.128415
 C 0.7841 0.2781 0.0036   -0.011105
 C 0.8008 0.1379 0.1054   0.702452
 C 0.7706 0.6358 0.1171   0.752195
 C 0.1825 0.8763 0.2229   -0.189694
 C 0.311 0.8901 0.1978   0.019469
 C 0.4219 0.8917 0.2393   -0.152406
 C 0.4046 0.8825 0.3056   -0.016193
 C 0.2763 0.8708 0.3312   -0.112956
 C 0.164 0.8666 0.2898   -0.008349
 C 0.0647 0.8752 0.1776   0.775675
 C 0.5611 0.9044 0.2123   0.699931
 O 0.8708 0.7978 0.91607   -0.666853
 O 0.9673 0.8109 0.8194   -0.679002
 O 0.3672 0.7579 0.9267   -0.716562
 O 0.2543 0.7873 0.8345   -0.713595
 O 0.1345 0.0835 0.86662   -0.734203
 O 0.1157 0.9479 0.95383   -0.80188
 O 0.0887 0.5749 0.9003   -0.59779
 O 0.0984 0.6616 0.9989   -0.793987
 O 0.1292 0.2022 0.41607   -0.666853
 O 0.0327 0.1891 0.3194   -0.679002
 O 0.6328 0.2421 0.4267   -0.716562
 O 0.7457 0.2127 0.3345   -0.713595
 O 0.8655 0.9165 0.36662   -0.734203
 O 0.8843 0.0521 0.45383   -0.80188
 O 0.9113 0.4251 0.4003   -0.59779
 O 0.9016 0.3384 0.4989   -0.793987
 O 0.2022 0.8708 0.66607   -0.666853
 O 0.1891 0.9673 0.5694   -0.679002
 O 0.2421 0.3672 0.6767   -0.716561
 O 0.2127 0.2543 0.5845   -0.713595
 O 0.9165 0.1345 0.61662   -0.734204
 O 0.0521 0.1157 0.70383   -0.80188
 O 0.4251 0.0887 0.6503   -0.59779
 O 0.3384 0.0984 0.7489   -0.793987
 O 0.7978 0.1292 0.16607   -0.666853
 O 0.8109 0.0327 0.0694   -0.679002
 O 0.7579 0.6328 0.1767   -0.716561
 O 0.7873 0.7457 0.0845   -0.713595
 O 0.0835 0.8655 0.11662   -0.734204
 O 0.9479 0.8843 0.20383   -0.80188
 O 0.5749 0.9113 0.1503   -0.59779
 O 0.6616 0.9016 0.2489   -0.793987
