{'_ref': 'TBD', '_srcid': 'CAKYAQ_clean', 'submitters': [{'name': 'Dalar Nazarian Jeff Camp and David Sholl', 'email': 'dalar@gatech.edu jcamp6@gatech.edu'}], '_method': 'VASP DFT with PBE;DDEC'}
data_Na2CoH8(C2O)8
_symmetry_space_group_name_H-M   'P 1'
_cell_length_a   10.02920000
_cell_length_b   10.02920000
_cell_length_c   20.80800000
_cell_angle_alpha   90.00000000
_cell_angle_beta   90.00000000
_cell_angle_gamma   90.00000000
_symmetry_Int_Tables_number   1
_chemical_formula_structural   Na2CoH8(C2O)8
_chemical_formula_sum   'Na8 Co4 H32 C64 O32'
_cell_volume   2092.96961373
_cell_formula_units_Z   4
loop_
 _symmetry_equiv_pos_site_id
 _symmetry_equiv_pos_as_xyz
  1  'x, y, z'
loop_
 _atom_site_label
 _atom_site_fract_x
 _atom_site_fract_y
 _atom_site_fract_z
 _atom_site_charge
 Na 0.9571 0.8456 0.02198   0.96874
 Na 0.289 0.8291 0.025   0.969604
 Na 0.0429 0.1544 0.52198   0.96874
 Na 0.711 0.1709 0.525   0.969604
 Na 0.1544 0.9571 0.77198   0.96874
 Na 0.1709 0.289 0.775   0.969603
 Na 0.8456 0.0429 0.27198   0.96874
 Na 0.8291 0.711 0.275   0.969603
 Co 0.11843 0.79001 0.8944   1.035373
 Co 0.88157 0.20999 0.3944   1.035373
 Co 0.20999 0.11843 0.6444   1.035373
 Co 0.79001 0.88157 0.1444   1.035373
 H 0.6273 0.7922 0.9058   0.10431
 H 0.4183 0.8029 0.7391   0.101017
 H 0.6194 0.8179 0.6809   0.109035
 H 0.8215 0.8208 0.736   0.086862
 H 0.1412 0.3291 0.9046   0.036891
 H 0.1323 0.4778 0.0846   0.106924
 H 0.1356 0.2599 0.126   0.11195
 H 0.1341 0.0779 0.0566   0.063941
 H 0.3727 0.2078 0.4058   0.10431
 H 0.5817 0.1971 0.2391   0.101017
 H 0.3806 0.1821 0.1809   0.109035
 H 0.1785 0.1792 0.236   0.086863
 H 0.8588 0.6709 0.4046   0.036891
 H 0.8677 0.5222 0.5846   0.106924
 H 0.8644 0.7401 0.626   0.111951
 H 0.8659 0.9221 0.5566   0.063941
 H 0.2078 0.6273 0.6558   0.10431
 H 0.1971 0.4183 0.4891   0.101017
 H 0.1821 0.6194 0.4309   0.109035
 H 0.1792 0.8215 0.486   0.086862
 H 0.6709 0.1412 0.6546   0.036891
 H 0.5222 0.1323 0.8346   0.106924
 H 0.7401 0.1356 0.876   0.11195
 H 0.9221 0.1341 0.8066   0.063941
 H 0.7922 0.3727 0.1558   0.10431
 H 0.8029 0.5817 0.9891   0.101017
 H 0.8179 0.3806 0.9309   0.109035
 H 0.8208 0.1785 0.986   0.086863
 H 0.3291 0.8588 0.1546   0.036891
 H 0.4778 0.8677 0.3346   0.106924
 H 0.2599 0.8644 0.376   0.111951
 H 0.0779 0.8659 0.3066   0.063941
 C 0.7442 0.8087 0.8259   -0.178464
 C 0.6252 0.799 0.8603   0.011663
 C 0.5041 0.7993 0.8284   -0.184071
 C 0.5012 0.8049 0.7612   0.002648
 C 0.6207 0.8134 0.7265   -0.134164
 C 0.7404 0.8151 0.7594   -0.005238
 C 0.876 0.8082 0.8596   0.719077
 C 0.3771 0.7926 0.8655   0.755537
 C 0.1381 0.1849 0.9732   -0.203047
 C 0.1383 0.3147 0.9497   0.033607
 C 0.1342 0.4239 0.9909   -0.157392
 C 0.1336 0.4037 0.0562   -0.007016
 C 0.135 0.2738 0.0808   -0.115436
 C 0.1355 0.1658 0.0396   -0.015487
 C 0.1344 0.0672 0.9277   0.783076
 C 0.1259 0.5664 0.9667   0.715346
 C 0.2558 0.1913 0.3259   -0.178464
 C 0.3748 0.201 0.3603   0.011663
 C 0.4959 0.2007 0.3284   -0.184071
 C 0.4988 0.1951 0.2612   0.002648
 C 0.3793 0.1866 0.2265   -0.134164
 C 0.2596 0.1849 0.2594   -0.005238
 C 0.124 0.1918 0.3596   0.719077
 C 0.6229 0.2074 0.3655   0.755537
 C 0.8619 0.8151 0.4732   -0.203047
 C 0.8617 0.6853 0.4497   0.033607
 C 0.8658 0.5761 0.4909   -0.157392
 C 0.8664 0.5963 0.5562   -0.007016
 C 0.865 0.7262 0.5808   -0.115436
 C 0.8645 0.8342 0.5396   -0.015487
 C 0.8656 0.9328 0.4277   0.783076
 C 0.8741 0.4336 0.4667   0.715346
 C 0.1913 0.7442 0.5759   -0.178464
 C 0.201 0.6252 0.6103   0.011663
 C 0.2007 0.5041 0.5784   -0.184071
 C 0.1951 0.5012 0.5112   0.002648
 C 0.1866 0.6207 0.4765   -0.134164
 C 0.1849 0.7404 0.5094   -0.005238
 C 0.1918 0.876 0.6096   0.719077
 C 0.2074 0.3771 0.6155   0.755537
 C 0.8151 0.1381 0.7232   -0.203047
 C 0.6853 0.1383 0.6997   0.033606
 C 0.5761 0.1342 0.7409   -0.157392
 C 0.5963 0.1336 0.8062   -0.007017
 C 0.7262 0.135 0.8308   -0.115436
 C 0.8342 0.1355 0.7896   -0.015487
 C 0.9328 0.1344 0.6777   0.783076
 C 0.4336 0.1259 0.7167   0.715346
 C 0.8087 0.2558 0.0759   -0.178464
 C 0.799 0.3748 0.1103   0.011663
 C 0.7993 0.4959 0.0784   -0.184071
 C 0.8049 0.4988 0.0112   0.002648
 C 0.8134 0.3793 0.9765   -0.134164
 C 0.8151 0.2596 0.0094   -0.005238
 C 0.8082 0.124 0.1096   0.719077
 C 0.7926 0.6229 0.1155   0.755537
 C 0.1849 0.8619 0.2232   -0.203047
 C 0.3147 0.8617 0.1997   0.033606
 C 0.4239 0.8658 0.2409   -0.157392
 C 0.4037 0.8664 0.3062   -0.007017
 C 0.2738 0.865 0.3308   -0.115436
 C 0.1658 0.8645 0.2896   -0.015487
 C 0.0672 0.8656 0.1777   0.783076
 C 0.5664 0.8741 0.2167   0.715346
 O 0.8825 0.7951 0.919   -0.675866
 O 0.9811 0.8196 0.82532   -0.679208
 O 0.3763 0.7831 0.9239   -0.706062
 O 0.2676 0.8015 0.8319   -0.71503
 O 0.1362 0.0878 0.8687   -0.705871
 O 0.1278 0.9512 0.95405   -0.82969
 O 0.1165 0.583 0.9061   -0.612776
 O 0.1264 0.6609 0.0049   -0.790782
 O 0.1175 0.2049 0.419   -0.675866
 O 0.0189 0.1804 0.32532   -0.679208
 O 0.6237 0.2169 0.4239   -0.706062
 O 0.7324 0.1985 0.3319   -0.71503
 O 0.8638 0.9122 0.3687   -0.705871
 O 0.8722 0.0488 0.45405   -0.82969
 O 0.8835 0.417 0.4061   -0.612776
 O 0.8736 0.3391 0.5049   -0.790782
 O 0.2049 0.8825 0.669   -0.675866
 O 0.1804 0.9811 0.57532   -0.679208
 O 0.2169 0.3763 0.6739   -0.706062
 O 0.1985 0.2676 0.5819   -0.71503
 O 0.9122 0.1362 0.6187   -0.705871
 O 0.0488 0.1278 0.70405   -0.82969
 O 0.417 0.1165 0.6561   -0.612776
 O 0.3391 0.1264 0.7549   -0.790782
 O 0.7951 0.1175 0.169   -0.675866
 O 0.8196 0.0189 0.07532   -0.679208
 O 0.7831 0.6237 0.1739   -0.706062
 O 0.8015 0.7324 0.0819   -0.71503
 O 0.0878 0.8638 0.1187   -0.705871
 O 0.9512 0.8722 0.20405   -0.82969
 O 0.583 0.8835 0.1561   -0.612776
 O 0.6609 0.8736 0.2549   -0.790782
