{'_ref': 'TBD', '_srcid': 'CAKYAQ_clean', 'submitters': [{'name': 'Dalar Nazarian Jeff Camp and David Sholl', 'email': 'dalar@gatech.edu jcamp6@gatech.edu'}], '_method': 'VASP DFT with PBE;DDEC'}
data_Fe2P2O8F
_symmetry_space_group_name_H-M   'P 1'
_cell_length_a   9.90449961
_cell_length_b   12.30110000
_cell_length_c   17.32200000
_cell_angle_alpha   90.00000000
_cell_angle_beta   103.70099838
_cell_angle_gamma   90.00000000
_symmetry_Int_Tables_number   1
_chemical_formula_structural   Fe2P2O8F
_chemical_formula_sum   'Fe16 P16 O64 F8'
_cell_volume   2050.39455684
_cell_formula_units_Z   8
loop_
 _symmetry_equiv_pos_site_id
 _symmetry_equiv_pos_as_xyz
  1  'x, y, z'
loop_
 _atom_site_label
 _atom_site_fract_x
 _atom_site_fract_y
 _atom_site_fract_z
 _atom_site_charge
 Fe 0.2444 0.4227 0.7787   1.553021
 Fe 0.4375 0.4742 0.6292   1.576286
 Fe 0.1325 0.6474 0.0753   1.521492
 Fe 0.9691 0.6104 0.7093   1.555564
 Fe 0.2556 0.9227 0.7213   1.55302
 Fe 0.0625 0.9742 0.8708   1.576284
 Fe 0.3675 0.1474 0.4247   1.52149
 Fe 0.5309 0.1104 0.7907   1.555563
 Fe 0.7556 0.5773 0.2213   1.553019
 Fe 0.5625 0.5258 0.3708   1.576286
 Fe 0.8675 0.3526 0.9247   1.521488
 Fe 0.0309 0.3896 0.2907   1.555562
 Fe 0.7444 0.0773 0.2787   1.553018
 Fe 0.9375 0.0258 0.1292   1.576284
 Fe 0.6325 0.8526 0.5753   1.521487
 Fe 0.4691 0.8896 0.2093   1.555562
 P 0.6999 0.5858 0.5594   1.885892
 P 0.2207 0.1551 0.7958   1.71148
 P 0.5622 0.3754 0.808   1.761516
 P 0.0857 0.5423 0.8938   1.788483
 P 0.8001 0.0858 0.9406   1.885891
 P 0.2793 0.6551 0.7042   1.711479
 P 0.9378 0.8754 0.692   1.761514
 P 0.4143 0.0423 0.6062   1.788483
 P 0.3001 0.4142 0.4406   1.885891
 P 0.7793 0.8449 0.2042   1.711479
 P 0.4378 0.6246 0.192   1.761516
 P 0.9143 0.4577 0.1062   1.788483
 P 0.1999 0.9142 0.0594   1.885891
 P 0.7207 0.3449 0.2958   1.711478
 P 0.0622 0.1246 0.308   1.761514
 P 0.5857 0.9577 0.3938   1.788483
 O 0.4288 0.3828 0.8375   -0.691438
 O 0.1728 0.271 0.7684   -0.708019
 O 0.1893 0.4535 0.8804   -0.730677
 O 0.1906 0.0768 0.7245   -0.741715
 O 0.5993 0.5392 0.6042   -0.863533
 O 0.684 0.5294 0.4792   -0.781023
 O 0.1358 0.1203 0.8562   -0.734583
 O 0.5565 0.4529 0.7379   -0.786736
 O 0.1464 0.6006 0.9712   -0.730405
 O 0.6715 0.7073 0.5447   -0.876105
 O 0.9483 0.4877 0.8971   -0.864458
 O 0.6827 0.411 0.8776   -0.707575
 O 0.5918 0.26 0.7844   -0.838569
 O 0.8494 0.5699 0.607   -0.75775
 O 0.3759 0.152 0.8367   -0.739484
 O 0.0575 0.6247 0.8259   -0.792375
 O 0.0712 0.8828 0.6625   -0.691438
 O 0.3272 0.771 0.7316   -0.708019
 O 0.3107 0.9535 0.6196   -0.730677
 O 0.3094 0.5768 0.7755   -0.741715
 O 0.9007 0.0392 0.8958   -0.863532
 O 0.816 0.0294 0.0208   -0.781023
 O 0.3642 0.6203 0.6438   -0.734583
 O 0.9435 0.9529 0.7621   -0.786736
 O 0.3536 0.1006 0.5288   -0.730404
 O 0.8285 0.2073 0.9553   -0.876105
 O 0.5517 0.9877 0.6029   -0.864458
 O 0.8173 0.911 0.6224   -0.707575
 O 0.9082 0.76 0.7156   -0.838569
 O 0.6506 0.0699 0.893   -0.75775
 O 0.1241 0.652 0.6633   -0.739483
 O 0.4425 0.1247 0.6741   -0.792375
 O 0.5712 0.6172 0.1625   -0.691438
 O 0.8272 0.729 0.2316   -0.708019
 O 0.8107 0.5465 0.1196   -0.730677
 O 0.8094 0.9232 0.2755   -0.741715
 O 0.4007 0.4608 0.3958   -0.863533
 O 0.316 0.4706 0.5208   -0.781024
 O 0.8642 0.8797 0.1438   -0.734583
 O 0.4435 0.5471 0.2621   -0.786736
 O 0.8536 0.3994 0.0288   -0.730404
 O 0.3285 0.2927 0.4553   -0.876106
 O 0.0517 0.5123 0.1029   -0.864458
 O 0.3173 0.589 0.1224   -0.707575
 O 0.4082 0.74 0.2156   -0.838569
 O 0.1506 0.4301 0.393   -0.757749
 O 0.6241 0.848 0.1633   -0.739483
 O 0.9425 0.3753 0.1741   -0.792375
 O 0.9288 0.1172 0.3375   -0.691438
 O 0.6728 0.229 0.2684   -0.708019
 O 0.6893 0.0465 0.3804   -0.730676
 O 0.6906 0.4232 0.2245   -0.741715
 O 0.0993 0.9608 0.1042   -0.863532
 O 0.184 0.9706 0.9792   -0.781023
 O 0.6358 0.3797 0.3562   -0.734583
 O 0.0565 0.0471 0.2379   -0.786736
 O 0.6464 0.8994 0.4712   -0.730404
 O 0.1715 0.7927 0.0447   -0.876106
 O 0.4483 0.0123 0.3971   -0.864458
 O 0.1827 0.089 0.3776   -0.707575
 O 0.0918 0.24 0.2844   -0.838569
 O 0.3494 0.9301 0.107   -0.757749
 O 0.8759 0.348 0.3367   -0.739483
 O 0.5575 0.8753 0.3259   -0.792375
 F 0.2855 0.4062 0.672   -0.512176
 F 0.0504 0.4614 0.7212   -0.497106
 F 0.2145 0.9062 0.828   -0.512176
 F 0.4496 0.9614 0.7788   -0.497106
 F 0.7145 0.5938 0.328   -0.512176
 F 0.9496 0.5386 0.2788   -0.497106
 F 0.7855 0.0938 0.172   -0.512176
 F 0.5504 0.0386 0.2212   -0.497106
