{'_ref': 'TBD', '_srcid': 'CAKYAQ_clean', 'submitters': [{'name': 'Dalar Nazarian Jeff Camp and David Sholl', 'email': 'dalar@gatech.edu jcamp6@gatech.edu'}], '_method': 'VASP DFT with PBE;DDEC'}
data_CoH8(C3N)4
_symmetry_space_group_name_H-M   'P 1'
_cell_length_a   12.45799985
_cell_length_b   17.31450053
_cell_length_c   17.31450000
_cell_angle_alpha   82.56370097
_cell_angle_beta   68.91479891
_cell_angle_gamma   68.91479987
_symmetry_Int_Tables_number   1
_chemical_formula_structural   CoH8(C3N)4
_chemical_formula_sum   'Co8 H64 C96 N32'
_cell_volume   3251.43301464
_cell_formula_units_Z   8
loop_
 _symmetry_equiv_pos_site_id
 _symmetry_equiv_pos_as_xyz
  1  'x, y, z'
loop_
 _atom_site_label
 _atom_site_fract_x
 _atom_site_fract_y
 _atom_site_fract_z
 _atom_site_charge
 Co 0.16159 0.17682 0.75   0.628461
 Co 0.58841 0.32318 0.75   0.631281
 Co 0.41159 0.25 0.67682   0.631284
 Co 0.83841 0.25 0.82318   0.628463
 Co 0.83841 0.82318 0.25   0.628461
 Co 0.41159 0.67682 0.25   0.631281
 Co 0.58841 0.75 0.32318   0.631284
 Co 0.16159 0.75 0.17682   0.628463
 H 0.1812 0.0169 0.6615   0.100517
 H 0.821 0.1057 0.7381   0.089729
 H 0.8064 0.0159 0.6599   0.098099
 H 0.3596 0.4831 0.8385   0.099551
 H 0.1648 0.3943 0.7619   0.090905
 H 0.9822 0.4841 0.8401   0.097334
 H 0.3427 0.3385 0.5169   0.09997
 H 0.0591 0.2619 0.6057   0.089519
 H 0.9663 0.3401 0.5159   0.098776
 H 0.6981 0.1615 0.9831   0.099356
 H 0.4267 0.2381 0.8943   0.08992
 H 0.3223 0.1599 0.9841   0.09804
 H 0.6404 0.1615 0.5169   0.099551
 H 0.8352 0.2381 0.6057   0.090905
 H 0.0178 0.1599 0.5159   0.097334
 H 0.8188 0.3385 0.9831   0.100517
 H 0.179 0.2619 0.8943   0.089728
 H 0.1936 0.3401 0.9841   0.098099
 H 0.3019 0.0169 0.8385   0.099356
 H 0.5733 0.1057 0.7619   0.089919
 H 0.6777 0.0159 0.8401   0.09804
 H 0.6573 0.4831 0.6615   0.099969
 H 0.9409 0.3943 0.7381   0.089519
 H 0.0337 0.4841 0.6599   0.098776
 H 0.8188 0.9831 0.3385   0.100518
 H 0.179 0.8943 0.2619   0.089729
 H 0.1936 0.9841 0.3401   0.098099
 H 0.6404 0.5169 0.1615   0.099552
 H 0.8352 0.6057 0.2381   0.090905
 H 0.0178 0.5159 0.1599   0.097334
 H 0.6573 0.6615 0.4831   0.09997
 H 0.9409 0.7381 0.3943   0.089519
 H 0.0337 0.6599 0.4841   0.098776
 H 0.3019 0.8385 0.0169   0.099357
 H 0.5733 0.7619 0.1057   0.08992
 H 0.6777 0.8401 0.0159   0.09804
 H 0.3596 0.8385 0.4831   0.099551
 H 0.1648 0.7619 0.3943   0.090905
 H 0.9822 0.8401 0.4841   0.097334
 H 0.1812 0.6615 0.0169   0.100517
 H 0.821 0.7381 0.1057   0.089728
 H 0.8064 0.6599 0.0159   0.098099
 H 0.6981 0.9831 0.1615   0.099356
 H 0.4267 0.8943 0.2381   0.089919
 H 0.3223 0.9841 0.1599   0.09804
 H 0.3427 0.5169 0.3385   0.09997
 H 0.0591 0.6057 0.2619   0.089519
 H 0.9663 0.5159 0.3401   0.098776
 H 0.1512 0.9529 0.5471   0.103563
 H 0.7981 0.927 0.573   0.103295
 H 0.1512 0.5471 0.9529   0.103563
 H 0.7981 0.573 0.927   0.103295
 H 0.1983 0.4529 0.4529   0.105073
 H 0.8711 0.427 0.427   0.102981
 H 0.6041 0.0471 0.0471   0.105574
 H 0.2251 0.073 0.073   0.102114
 H 0.8488 0.0471 0.4529   0.103563
 H 0.2019 0.073 0.427   0.103295
 H 0.8488 0.4529 0.0471   0.103563
 H 0.2019 0.427 0.073   0.103295
 H 0.3959 0.9529 0.9529   0.105574
 H 0.7749 0.927 0.927   0.102114
 H 0.8017 0.5471 0.5471   0.105073
 H 0.1289 0.573 0.573   0.102981
 C 0.1001 0.0493 0.6871   0.04336
 C 0.9995 0.0344 0.682   -0.150581
 C 0.9026 0.0974 0.729   0.039939
 C 0.9898 0.9845 0.6215   0.160042
 C 0.8786 0.9816 0.6234   -0.174863
 C 0.3365 0.4507 0.8129   0.045117
 C 0.2159 0.4656 0.818   -0.14841
 C 0.229 0.4026 0.771   0.038058
 C 0.0958 0.5155 0.8785   0.156892
 C 0.9836 0.5184 0.8766   -0.172436
 C 0.2872 0.3129 0.5493   0.045673
 C 0.1815 0.318 0.5344   -0.150312
 C 0.1316 0.271 0.5974   0.038403
 C 0.1113 0.3785 0.4845   0.158186
 C 0.002 0.3766 0.4816   -0.1743
 C 0.6494 0.1871 0.9507   0.045892
 C 0.5339 0.182 0.9656   -0.150015
 C 0.5 0.229 0.9026   0.038668
 C 0.4743 0.1215 0.0155   0.158114
 C 0.3602 0.1234 0.0184   -0.176337
 C 0.6635 0.1871 0.5493   0.045118
 C 0.7841 0.182 0.5344   -0.14841
 C 0.771 0.229 0.5974   0.038057
 C 0.9042 0.1215 0.4845   0.156892
 C 0.0164 0.1234 0.4816   -0.172436
 C 0.8999 0.3129 0.9507   0.04336
 C 0.000500000000002 0.318 0.9656   -0.150581
 C 0.0974 0.271 0.9026   0.039939
 C 0.0102 0.3785 0.0155   0.160042
 C 0.1214 0.3766 0.0184   -0.174863
 C 0.3506 0.0493 0.8129   0.045892
 C 0.4661 0.0344 0.818   -0.150014
 C 0.5 0.0974 0.771   0.038668
 C 0.5257 0.9845 0.8785   0.158112
 C 0.6398 0.9816 0.8766   -0.176337
 C 0.7128 0.4507 0.6871   0.045673
 C 0.8185 0.4656 0.682   -0.150312
 C 0.8684 0.4026 0.729   0.038403
 C 0.8887 0.5155 0.6215   0.158186
 C 0.998 0.5184 0.6234   -0.174299
 C 0.8999 0.9507 0.3129   0.04336
 C 0.000500000000002 0.9656 0.318   -0.150581
 C 0.0974 0.9026 0.271   0.039939
 C 0.0102 0.0155 0.3785   0.160042
 C 0.1214 0.0184 0.3766   -0.174863
 C 0.6635 0.5493 0.1871   0.045117
 C 0.7841 0.5344 0.182   -0.14841
 C 0.771 0.5974 0.229   0.038058
 C 0.9042 0.4845 0.1215   0.156892
 C 0.0164 0.4816 0.1234   -0.172436
 C 0.7128 0.6871 0.4507   0.045672
 C 0.8185 0.682 0.4656   -0.150312
 C 0.8684 0.729 0.4026   0.038403
 C 0.8887 0.6215 0.5155   0.158186
 C 0.998 0.6234 0.5184   -0.174299
 C 0.3506 0.8129 0.0493   0.045892
 C 0.4661 0.818 0.0344   -0.150015
 C 0.5 0.771 0.0974   0.038668
 C 0.5257 0.8785 0.9845   0.158113
 C 0.6398 0.8766 0.9816   -0.176337
 C 0.3365 0.8129 0.4507   0.045118
 C 0.2159 0.818 0.4656   -0.14841
 C 0.229 0.771 0.4026   0.038057
 C 0.0958 0.8785 0.5155   0.156892
 C 0.9836 0.8766 0.5184   -0.172436
 C 0.1001 0.6871 0.0493   0.04336
 C 0.9995 0.682 0.0344   -0.150581
 C 0.9026 0.729 0.0974   0.039939
 C 0.9898 0.6215 0.9845   0.160043
 C 0.8786 0.6234 0.9816   -0.174863
 C 0.6494 0.9507 0.1871   0.045892
 C 0.5339 0.9656 0.182   -0.150014
 C 0.5 0.9026 0.229   0.038668
 C 0.4743 0.0155 0.1215   0.158113
 C 0.3602 0.0184 0.1234   -0.176337
 C 0.2872 0.5493 0.3129   0.045672
 C 0.1815 0.5344 0.318   -0.150312
 C 0.1316 0.5974 0.271   0.038403
 C 0.1113 0.4845 0.3785   0.158186
 C 0.002 0.4816 0.3766   -0.1743
 C 0.1047 0.9211 0.5789   -0.333206
 C 0.873 0.9281 0.5719   0.004932
 C 0.1047 0.5789 0.9211   -0.333207
 C 0.873 0.5719 0.9281   0.004932
 C 0.1836 0.4211 0.4211   -0.33229
 C 0.9449 0.4281 0.4281   0.004153
 C 0.5258 0.0789 0.0789   -0.332542
 C 0.3011 0.0719 0.0719   0.00928
 C 0.8953 0.0789 0.4211   -0.333206
 C 0.127 0.0719 0.4281   0.004931
 C 0.8953 0.4211 0.0789   -0.333208
 C 0.127 0.4281 0.0719   0.004931
 C 0.4742 0.9211 0.9211   -0.332541
 C 0.6989 0.9281 0.9281   0.009279
 C 0.8164 0.5789 0.5789   -0.332292
 C 0.0551 0.5719 0.5719   0.004152
 N 0.0648 0.1158 0.7332   -0.214209
 N 0.9409 0.1454 0.76   -0.244997
 N 0.4138 0.3842 0.7668   -0.216027
 N 0.3463 0.3546 0.74   -0.246344
 N 0.298 0.2668 0.6158   -0.218063
 N 0.2009 0.24 0.6454   -0.242727
 N 0.6806 0.2332 0.8842   -0.217307
 N 0.5863 0.26 0.8546   -0.24363
 N 0.5862 0.2332 0.6158   -0.216029
 N 0.6537 0.26 0.6454   -0.246341
 N 0.9352 0.2668 0.8842   -0.214209
 N 0.0591 0.24 0.8546   -0.244997
 N 0.3194 0.1158 0.7668   -0.217307
 N 0.4137 0.1454 0.74   -0.243631
 N 0.702 0.3842 0.7332   -0.218063
 N 0.7991 0.3546 0.76   -0.242728
 N 0.9352 0.8842 0.2668   -0.214209
 N 0.0591 0.8546 0.24   -0.244997
 N 0.5862 0.6158 0.2332   -0.216027
 N 0.6537 0.6454 0.26   -0.246344
 N 0.702 0.7332 0.3842   -0.218063
 N 0.7991 0.76 0.3546   -0.242727
 N 0.3194 0.7668 0.1158   -0.217307
 N 0.4137 0.74 0.1454   -0.24363
 N 0.4138 0.7668 0.3842   -0.216029
 N 0.3463 0.74 0.3546   -0.246341
 N 0.0648 0.7332 0.1158   -0.214209
 N 0.9409 0.76 0.1454   -0.244997
 N 0.6806 0.8842 0.2332   -0.217307
 N 0.5863 0.8546 0.26   -0.243631
 N 0.298 0.6158 0.2668   -0.218062
 N 0.2009 0.6454 0.24   -0.242728
