{'_ref': 'TBD', '_srcid': 'CAKYAQ_clean', 'submitters': [{'name': 'Dalar Nazarian Jeff Camp and David Sholl', 'email': 'dalar@gatech.edu jcamp6@gatech.edu'}], '_method': 'VASP DFT with PBE;DDEC'}
data_MnH8C13NO5
_symmetry_space_group_name_H-M   'P 1'
_cell_length_a   12.56399978
_cell_length_b   12.64610050
_cell_length_c   12.64610000
_cell_angle_alpha   91.63709932
_cell_angle_beta   113.87000153
_cell_angle_gamma   113.87000116
_symmetry_Int_Tables_number   1
_chemical_formula_structural   MnH8C13NO5
_chemical_formula_sum   'Mn4 H32 C52 N4 O20'
_cell_volume   1635.2200103
_cell_formula_units_Z   4
loop_
 _symmetry_equiv_pos_site_id
 _symmetry_equiv_pos_as_xyz
  1  'x, y, z'
loop_
 _atom_site_label
 _atom_site_fract_x
 _atom_site_fract_y
 _atom_site_fract_z
 _atom_site_charge
 Mn 0.25 0.6961 0.3039   1.209059
 Mn 0.75 0.3039 0.6961   1.209059
 Mn 0.0 0.5 0.0   1.222143
 Mn 0.5 0.0 0.5   1.222143
 H 0.5048 0.5772 0.3454   0.103803
 H 0.6006 0.4671 0.4509   0.110335
 H 0.2769 0.1676 0.246   0.085181
 H 0.1876 0.2771 0.1343   0.059688
 H 0.1366 0.7851 0.9643   0.129927
 H 0.0913 0.9391 0.9073   0.125381
 H 0.9534 0.9262 0.1434   0.129031
 H 0.0045 0.7746 0.199   0.151642
 H 0.9952 0.6546 0.4228   0.103808
 H 0.8994 0.5491 0.5329   0.110327
 H 0.2231 0.754 0.8324   0.08518
 H 0.3124 0.8657 0.7229   0.059688
 H 0.3634 0.0357 0.2149   0.129927
 H 0.4087 0.0927 0.0609   0.125382
 H 0.5466 0.8566 0.0738   0.129039
 H 0.4955 0.801 0.2254   0.151647
 H 0.4952 0.4228 0.6546   0.103803
 H 0.3994 0.5329 0.5491   0.110336
 H 0.7231 0.8324 0.754   0.085181
 H 0.8124 0.7229 0.8657   0.059688
 H 0.8634 0.2149 0.0357   0.129927
 H 0.9087 0.0609 0.0927   0.125389
 H 0.0466 0.0738 0.8566   0.129039
 H 0.9955 0.2254 0.801   0.151642
 H 0.0048 0.3454 0.5772   0.103808
 H 0.1006 0.4509 0.4671   0.110328
 H 0.7769 0.246 0.1676   0.085181
 H 0.6876 0.1343 0.2771   0.059688
 H 0.6366 0.9643 0.7851   0.129927
 H 0.5913 0.9073 0.9391   0.12539
 H 0.4534 0.1434 0.9262   0.129046
 H 0.5045 0.199 0.7746   0.151647
 C 0.2684 0.5104 0.1672   0.704402
 C 0.3339 0.43895 0.22965   -0.12486
 C 0.4589 0.4947 0.3249   -0.054617
 C 0.5158 0.4287 0.3895   -0.060085
 C 0.4467 0.3055 0.3629   -0.124107
 C 0.3234 0.2501 0.2663   -0.076629
 C 0.2693 0.3159 0.2001   -0.052975
 C 0.5063 0.2364 0.441   0.692539
 C 0.1009 0.8152 0.0014   -0.029563
 C 0.0727 0.9069 0.9665   -0.143774
 C 0.0166 0.9519 0.0189   0.042057
 C 0.9916 0.8995 0.1065   -0.141904
 C 0.0222 0.8085 0.1401   0.001263
 C 0.2316 0.8328 0.4896   0.704402
 C 0.1661 0.77035 0.56105   -0.12486
 C 0.0411 0.6751 0.5053   -0.054621
 C 0.9842 0.6105 0.5713   -0.060081
 C 0.0533 0.6371 0.6945   -0.124109
 C 0.1766 0.7337 0.7499   -0.076628
 C 0.2307 0.7999 0.6841   -0.052975
 C 0.9937 0.559 0.7636   0.692538
 C 0.3991 0.9986 0.1848   -0.029563
 C 0.4273 0.0335 0.0931   -0.143775
 C 0.4834 0.9811 0.0481   0.042058
 C 0.5084 0.8935 0.1005   -0.141905
 C 0.4778 0.8599 0.1915   0.001262
 C 0.7316 0.4896 0.8328   0.704403
 C 0.6661 0.56105 0.77035   -0.12486
 C 0.5411 0.5053 0.6751   -0.054616
 C 0.4842 0.5713 0.6105   -0.060089
 C 0.5533 0.6945 0.6371   -0.124107
 C 0.6766 0.7499 0.7337   -0.076631
 C 0.7307 0.6841 0.7999   -0.052975
 C 0.4937 0.7636 0.559   0.692537
 C 0.8991 0.1848 0.9986   -0.029562
 C 0.9273 0.0931 0.0335   -0.143777
 C 0.9834 0.0481 0.9811   0.04205
 C 0.0084 0.1005 0.8935   -0.141904
 C 0.9778 0.1915 0.8599   0.001265
 C 0.7684 0.1672 0.5104   0.704404
 C 0.8339 0.22965 0.43895   -0.124859
 C 0.9589 0.3249 0.4947   -0.054619
 C 0.0158 0.3895 0.4287   -0.060085
 C 0.9467 0.3629 0.3055   -0.124108
 C 0.8234 0.2663 0.2501   -0.076631
 C 0.7693 0.2001 0.3159   -0.052976
 C 0.0063 0.441 0.2364   0.692536
 C 0.6009 0.0014 0.8152   -0.029562
 C 0.5727 0.9665 0.9069   -0.143777
 C 0.5166 0.0189 0.9519   0.04205
 C 0.4916 0.1065 0.8995   -0.141905
 C 0.5222 0.1401 0.8085   0.001264
 N 0.0773 0.76938 0.08802   0.354998
 N 0.4227 0.91198 0.23062   0.354998
 N 0.9227 0.23062 0.91198   0.354998
 N 0.5773 0.08802 0.76938   0.354998
 O 0.323 0.62002 0.21322   -0.658601
 O 0.1626 0.4576 0.07248   -0.625506
 O 0.6187 0.29552 0.52406   -0.610847
 O 0.4369 0.12459 0.41729   -0.624963
 O 0.107 0.68209 0.12189   -0.577423
 O 0.177 0.78678 0.37998   -0.658601
 O 0.3374 0.92752 0.5424   -0.625506
 O 0.8813 0.47594 0.70448   -0.610847
 O 0.0631 0.58271 0.87541   -0.624962
 O 0.393 0.87811 0.31791   -0.577423
 O 0.677 0.37998 0.78678   -0.658601
 O 0.8374 0.5424 0.92752   -0.625507
 O 0.3813 0.70448 0.47594   -0.610847
 O 0.5631 0.87541 0.58271   -0.624963
 O 0.893 0.31791 0.87811   -0.577423
 O 0.823 0.21322 0.62002   -0.658601
 O 0.6626 0.07248 0.4576   -0.625507
 O 0.1187 0.52406 0.29552   -0.610846
 O 0.9369 0.41729 0.12459   -0.624962
 O 0.607 0.12189 0.68209   -0.577423
