{'_ref': 'TBD', '_srcid': 'CAKYAQ_clean', 'submitters': [{'name': 'Dalar Nazarian Jeff Camp and David Sholl', 'email': 'dalar@gatech.edu jcamp6@gatech.edu'}], '_method': 'VASP DFT with PBE;DDEC'}
data_MnH8C13NO5
_symmetry_space_group_name_H-M   'P 1'
_cell_length_a   11.19299979
_cell_length_b   12.54690026
_cell_length_c   12.54690000
_cell_angle_alpha   98.56159929
_cell_angle_beta   108.76300212
_cell_angle_gamma   108.76300074
_symmetry_Int_Tables_number   1
_chemical_formula_structural   MnH8C13NO5
_chemical_formula_sum   'Mn4 H32 C52 N4 O20'
_cell_volume   1515.8881101
_cell_formula_units_Z   4
loop_
 _symmetry_equiv_pos_site_id
 _symmetry_equiv_pos_as_xyz
  1  'x, y, z'
loop_
 _atom_site_label
 _atom_site_fract_x
 _atom_site_fract_y
 _atom_site_fract_z
 _atom_site_charge
 Mn 0.75 0.69953 0.30047   1.201355
 Mn 0.25 0.30047 0.69953   1.201355
 Mn 0.0 0.0 0.5   1.226247
 Mn 0.5 0.5 0.0   1.226245
 H 0.9759 0.4426 0.6702   0.103461
 H 0.8896 0.549 0.555   0.107644
 H 0.249 0.8256 0.7188   0.08925
 H 0.3287 0.7205 0.8391   0.059818
 H 0.9941 0.7917 0.1967   0.153316
 H 0.0491 0.8506 0.0482   0.130612
 H 0.903 0.0981 0.0847   0.125929
 H 0.8543 0.0383 0.2363   0.125403
 H 0.5241 0.3298 0.5574   0.103458
 H 0.6104 0.445 0.451   0.107639
 H 0.251 0.2812 0.1744   0.08925
 H 0.1713 0.1609 0.2795   0.05982
 H 0.5059 0.8033 0.2083   0.153316
 H 0.4509 0.9518 0.1494   0.130613
 H 0.597 0.9153 0.9019   0.125929
 H 0.6457 0.7637 0.9617   0.125402
 H 0.0241 0.5574 0.3298   0.103461
 H 0.1104 0.451 0.445   0.107644
 H 0.751 0.1744 0.2812   0.08925
 H 0.6713 0.2795 0.1609   0.059818
 H 0.0059 0.2083 0.8033   0.153316
 H 0.9509 0.1494 0.9518   0.130613
 H 0.097 0.9019 0.9153   0.125931
 H 0.1457 0.9617 0.7637   0.125403
 H 0.4759 0.6702 0.4426   0.103459
 H 0.3896 0.555 0.549   0.10764
 H 0.749 0.7188 0.8256   0.08925
 H 0.8287 0.8391 0.7205   0.05982
 H 0.4941 0.1967 0.7917   0.153317
 H 0.5491 0.0482 0.8506   0.130614
 H 0.403 0.0847 0.0981   0.125931
 H 0.3543 0.2363 0.0383   0.125403
 C 0.2242 0.49937 0.83523   0.698345
 C 0.1628 0.57041 0.76599   -0.119848
 C 0.0308 0.52008 0.68092   -0.049013
 C 0.9792 0.58389 0.61111   -0.058614
 C 0.0592 0.69897 0.62403   -0.130496
 C 0.1924 0.74899 0.70941   -0.079934
 C 0.2408 0.68484 0.78016   -0.050827
 C 0.0038 0.76473 0.54327   0.700345
 C 0.9772 0.8547 0.1745   0.003111
 C 0.0088 0.8896 0.085   -0.142954
 C 0.9824 0.98075 0.04845   0.038963
 C 0.9231 0.03625 0.10675   -0.139446
 C 0.8938 0.000489999999999 0.19731   -0.023746
 C 0.2758 0.16477 0.50063   0.698345
 C 0.3372 0.23401 0.42959   -0.119849
 C 0.4692 0.31908 0.47992   -0.049012
 C 0.5208 0.38889 0.41611   -0.058613
 C 0.4408 0.37597 0.30103   -0.130496
 C 0.3076 0.29059 0.25101   -0.079934
 C 0.2592 0.21984 0.31516   -0.050826
 C 0.4962 0.45673 0.23527   0.700346
 C 0.5228 0.8255 0.1453   0.003111
 C 0.4912 0.915 0.1104   -0.142954
 C 0.5176 0.95155 0.01925   0.038963
 C 0.5769 0.89325 0.96375   -0.139446
 C 0.6062 0.80269 0.99951   -0.023745
 C 0.7758 0.50063 0.16477   0.698345
 C 0.8372 0.42959 0.23401   -0.119848
 C 0.9692 0.47992 0.31908   -0.049014
 C 0.0208 0.41611 0.38889   -0.058617
 C 0.9408 0.30103 0.37597   -0.130495
 C 0.8076 0.25101 0.29059   -0.079936
 C 0.7592 0.31516 0.21984   -0.050827
 C 0.9962 0.23527 0.45673   0.700345
 C 0.0228 0.1453 0.8255   0.003111
 C 0.9912 0.1104 0.915   -0.142955
 C 0.0176 0.01925 0.95155   0.038963
 C 0.0769 0.96375 0.89325   -0.139447
 C 0.1062 0.99951 0.80269   -0.023746
 C 0.7242 0.83523 0.49937   0.698345
 C 0.6628 0.76599 0.57041   -0.119849
 C 0.5308 0.68092 0.52008   -0.049013
 C 0.4792 0.61111 0.58389   -0.058615
 C 0.5592 0.62403 0.69897   -0.130495
 C 0.6924 0.70941 0.74899   -0.079936
 C 0.7408 0.78016 0.68484   -0.050827
 C 0.5038 0.54327 0.76473   0.700346
 C 0.4772 0.1745 0.8547   0.003111
 C 0.5088 0.085 0.8896   -0.142954
 C 0.4824 0.04845 0.98075   0.038963
 C 0.4231 0.10675 0.03625   -0.139446
 C 0.3938 0.19731 0.000489999999999   -0.023745
 N 0.9222 0.91133 0.22917   0.348527
 N 0.5778 0.77083 0.08867   0.348527
 N 0.0778 0.08867 0.77083   0.348527
 N 0.4222 0.22917 0.91133   0.348527
 O 0.3338 0.55355 0.92553   -0.627584
 O 0.1638 0.38873 0.79719   -0.653803
 O 0.8884 0.70773 0.46393   -0.611041
 O 0.0757 0.87212 0.56312   -0.632149
 O 0.8915 0.87713 0.31655   -0.579066
 O 0.1662 0.07447 0.44645   -0.627585
 O 0.3362 0.20281 0.61127   -0.653803
 O 0.6116 0.53607 0.29227   -0.611043
 O 0.4243 0.43688 0.12788   -0.632149
 O 0.6085 0.68345 0.12287   -0.579066
 O 0.6662 0.44645 0.07447   -0.627584
 O 0.8362 0.61127 0.20281   -0.653803
 O 0.1116 0.29227 0.53607   -0.611041
 O 0.9243 0.12788 0.43688   -0.632149
 O 0.1085 0.12287 0.68345   -0.579066
 O 0.8338 0.92553 0.55355   -0.627585
 O 0.6638 0.79719 0.38873   -0.653803
 O 0.3884 0.46393 0.70773   -0.611043
 O 0.5757 0.56312 0.87212   -0.632149
 O 0.3915 0.31655 0.87713   -0.579066
