{'_ref': 'TBD', '_srcid': 'CAKYAQ_clean', 'submitters': [{'name': 'Dalar Nazarian Jeff Camp and David Sholl', 'email': 'dalar@gatech.edu jcamp6@gatech.edu'}], '_method': 'VASP DFT with PBE;DDEC'}
data_MnH8C13NO5
_symmetry_space_group_name_H-M   'P 1'
_cell_length_a   12.71120035
_cell_length_b   12.71119962
_cell_length_c   13.75680000
_cell_angle_alpha   112.14970063
_cell_angle_beta   114.81219839
_cell_angle_gamma   97.92029986
_symmetry_Int_Tables_number   1
_chemical_formula_structural   MnH8C13NO5
_chemical_formula_sum   'Mn4 H32 C52 N4 O20'
_cell_volume   1749.00414872
_cell_formula_units_Z   4
loop_
 _symmetry_equiv_pos_site_id
 _symmetry_equiv_pos_as_xyz
  1  'x, y, z'
loop_
 _atom_site_label
 _atom_site_fract_x
 _atom_site_fract_y
 _atom_site_fract_z
 _atom_site_charge
 Mn 0.5 0.0 0.5   1.213828
 Mn 0.0 0.0 0.0   1.214348
 Mn 0.68731 0.93731 0.75   1.204229
 Mn 0.31269 0.06269 0.25   1.204229
 H 0.2372 0.6133 0.2765   0.082135
 H 0.1343 0.4065 0.1758   0.055568
 H 0.3478 0.3915 0.4755   0.097936
 H 0.4462 0.5981 0.5781   0.106246
 H 0.25 0.177 0.4756   0.143037
 H 0.0999 0.176 0.5263   0.124355
 H 0.0285 0.8272 0.4205   0.121698
 H 0.1845 0.8344 0.3777   0.133919
 H 0.8368 0.9607 0.2235   0.082739
 H 0.7307 0.9585 0.3242   0.055514
 H 0.416 0.8723 0.0245   0.097761
 H 0.52 0.8681 0.9219   0.106609
 H 0.2014 0.7744 0.0244   0.142933
 H 0.1497 0.5736 0.9737   0.124519
 H 0.9067 0.608 0.0795   0.122029
 H 0.9567 0.8068 0.1223   0.134122
 H 0.7628 0.3867 0.7235   0.082135
 H 0.8657 0.5935 0.8242   0.055568
 H 0.6522 0.6085 0.5245   0.097936
 H 0.5538 0.4019 0.4219   0.106246
 H 0.75 0.823 0.5244   0.143037
 H 0.9001 0.824 0.4737   0.124372
 H 0.9715 0.1728 0.5795   0.121716
 H 0.8155 0.1656 0.6223   0.133919
 H 0.1632 0.0393 0.7765   0.082739
 H 0.2693 0.0415 0.6758   0.055514
 H 0.584 0.1277 0.9755   0.097761
 H 0.48 0.1319 0.0781   0.106609
 H 0.7986 0.2256 0.9756   0.142933
 H 0.8503 0.4264 0.0263   0.124536
 H 0.0933 0.392 0.9205   0.122046
 H 0.0433 0.1932 0.8777   0.134122
 C 0.429 0.7602 0.5032   0.691493
 C 0.355 0.6269 0.4375   -0.120649
 C 0.2604 0.5689 0.3173   -0.075227
 C 0.1992 0.4444 0.2566   -0.056232
 C 0.2322 0.3765 0.3131   -0.126102
 C 0.3251 0.4358 0.4345   -0.05834
 C 0.3847 0.5597 0.4958   -0.058271
 C 0.1746 0.2396 0.2442   0.709678
 C 0.2047 0.1051 0.4644   0.003601
 C 0.115 0.1047 0.4955   -0.133374
 C 0.0476 0.0011 0.4821   0.051888
 C 0.0739 0.9005 0.4344   -0.138137
 C 0.1658 0.904 0.406   -0.031506
 C 0.757 0.9258 0.9968   0.690758
 C 0.6894 0.9175 0.0625   -0.119729
 C 0.7516 0.9431 0.1827   -0.076214
 C 0.6878 0.9426 0.2434   -0.056657
 C 0.5634 0.9191 0.1869   -0.125019
 C 0.5013 0.8906 0.0655   -0.057994
 C 0.5639 0.8889 0.0042   -0.059526
 C 0.4954 0.9304 0.2558   0.709527
 C 0.1407 0.7403 0.0356   0.003585
 C 0.1092 0.6195 0.0045   -0.133746
 C 0.019 0.5655 0.0179   0.05254
 C 0.9661 0.6395 0.0656   -0.139536
 C 0.998 0.7598 0.094   -0.030733
 C 0.571 0.2398 0.4968   0.691491
 C 0.645 0.3731 0.5625   -0.120649
 C 0.7396 0.4311 0.6827   -0.075227
 C 0.8008 0.5556 0.7434   -0.056233
 C 0.7678 0.6235 0.6869   -0.126102
 C 0.6749 0.5642 0.5655   -0.058339
 C 0.6153 0.4403 0.5042   -0.058271
 C 0.8254 0.7604 0.7558   0.709677
 C 0.7953 0.8949 0.5356   0.003603
 C 0.885 0.8953 0.5045   -0.133377
 C 0.9524 0.9989 0.5179   0.051882
 C 0.9261 0.0995 0.5656   -0.138143
 C 0.8342 0.096 0.594   -0.031504
 C 0.243 0.0742 0.0032   0.690756
 C 0.3106 0.0825 0.9375   -0.119729
 C 0.2484 0.0569 0.8173   -0.076214
 C 0.3122 0.0574 0.7566   -0.056659
 C 0.4366 0.0809 0.8131   -0.125018
 C 0.4987 0.1094 0.9345   -0.057993
 C 0.4361 0.1111 0.9958   -0.059526
 C 0.5046 0.0696 0.7442   0.709527
 C 0.8593 0.2597 0.9644   0.003587
 C 0.8908 0.3805 0.9955   -0.133749
 C 0.981 0.4345 0.9821   0.052534
 C 0.0339 0.3605 0.9344   -0.139542
 C 0.002 0.2402 0.906   -0.030731
 N 0.2273 0.0054 0.4189   0.374303
 N 0.0865 0.8084 0.0811   0.373835
 N 0.7727 0.9946 0.5811   0.374303
 N 0.9135 0.1916 0.9189   0.373835
 O 0.4071 0.8146 0.4405   -0.626803
 O 0.508 0.8073 0.6147   -0.618043
 O 0.0843 0.1908 0.1373   -0.622877
 O 0.22332 0.18422 0.2991   -0.656441
 O 0.3124 0.0058 0.3862   -0.583058
 O 0.8741 0.9666 0.0595   -0.627269
 O 0.6926 0.8933 0.8853   -0.617162
 O 0.5535 0.947 0.3627   -0.622876
 O 0.38512 0.92422 0.2009   -0.656404
 O 0.1196 0.9262 0.1138   -0.582741
 O 0.5929 0.1854 0.5595   -0.626803
 O 0.492 0.1927 0.3853   -0.618043
 O 0.9157 0.8092 0.8627   -0.622877
 O 0.77668 0.81578 0.7009   -0.656441
 O 0.6876 0.9942 0.6138   -0.583058
 O 0.1259 0.0334 0.9405   -0.627269
 O 0.3074 0.1067 0.1147   -0.617162
 O 0.4465 0.053 0.6373   -0.622876
 O 0.61488 0.07578 0.7991   -0.656404
 O 0.8804 0.0738 0.8862   -0.582741
