{'_ref': 'TBD', '_srcid': 'CAKYAQ_clean', 'submitters': [{'name': 'Dalar Nazarian Jeff Camp and David Sholl', 'email': 'dalar@gatech.edu jcamp6@gatech.edu'}], '_method': 'VASP DFT with PBE;DDEC'}
data_Cu2H3C8SO8
_symmetry_space_group_name_H-M   'P 1'
_cell_length_a   7.30100000
_cell_length_b   10.20999983
_cell_length_c   18.04800000
_cell_angle_alpha   90.00000000
_cell_angle_beta   90.00000000
_cell_angle_gamma   94.33399812
_symmetry_Int_Tables_number   1
_chemical_formula_structural   Cu2H3C8SO8
_chemical_formula_sum   'Cu8 H12 C32 S4 O32'
_cell_volume   1341.50874247
_cell_formula_units_Z   4
loop_
 _symmetry_equiv_pos_site_id
 _symmetry_equiv_pos_as_xyz
  1  'x, y, z'
loop_
 _atom_site_label
 _atom_site_fract_x
 _atom_site_fract_y
 _atom_site_fract_z
 _atom_site_charge
 Cu 0.86504 0.21593 0.90534   1.046298
 Cu 0.04 0.93001 0.93159   1.12372
 Cu 0.63496 0.28407 0.40534   1.046298
 Cu 0.46 0.56999 0.43159   1.12372
 Cu 0.13496 0.78407 0.09466   1.046298
 Cu 0.96 0.06999 0.06841   1.12372
 Cu 0.36504 0.71593 0.59466   1.046298
 Cu 0.54 0.43001 0.56841   1.12372
 H 0.7785 0.1643 0.6922   0.1109
 H 0.936 0.7988 0.7077   0.113455
 H 0.7722 0.9354 0.5107   0.111675
 H 0.7215 0.3357 0.1922   0.1109
 H 0.564 0.7012 0.2077   0.113455
 H 0.7278 0.5646 0.0107   0.111675
 H 0.2215 0.8357 0.3078   0.110901
 H 0.064 0.2012 0.2923   0.113456
 H 0.2278 0.0646 0.4893   0.111675
 H 0.2785 0.6643 0.8078   0.110901
 H 0.436 0.2988 0.7923   0.113456
 H 0.2722 0.4354 0.9893   0.111675
 C 0.8563 0.8487 0.6036   -0.29023
 C 0.7683 0.0701 0.5949   -0.153198
 C 0.8006 0.0851 0.6696   0.038317
 C 0.8646 0.9866 0.7119   -0.167016
 C 0.8986 0.0116 0.793   0.737261
 C 0.8932 0.8665 0.6795   0.047142
 C 0.7953 0.9481 0.561   0.034034
 C 0.6943 0.1808 0.5529   0.730319
 C 0.6437 0.6513 0.1036   -0.29023
 C 0.7317 0.4299 0.0949   -0.153198
 C 0.6994 0.4149 0.1696   0.038317
 C 0.6354 0.5134 0.2119   -0.167016
 C 0.6014 0.4884 0.293   0.737261
 C 0.6068 0.6335 0.1795   0.047142
 C 0.7047 0.5519 0.061   0.034034
 C 0.8057 0.3192 0.0529   0.730319
 C 0.1437 0.1513 0.3964   -0.29023
 C 0.2317 0.9299 0.4051   -0.153198
 C 0.1994 0.9149 0.3304   0.038316
 C 0.1354 0.0134 0.2881   -0.167016
 C 0.1014 0.9884 0.207   0.737261
 C 0.1068 0.1335 0.3205   0.047142
 C 0.2047 0.0519 0.439   0.034035
 C 0.3057 0.8192 0.4471   0.730319
 C 0.3563 0.3487 0.8964   -0.29023
 C 0.2683 0.5701 0.9051   -0.153198
 C 0.3006 0.5851 0.8304   0.038316
 C 0.3646 0.4866 0.7881   -0.167016
 C 0.3986 0.5116 0.707   0.737261
 C 0.3932 0.3665 0.8205   0.047142
 C 0.2953 0.4481 0.939   0.034035
 C 0.1943 0.6808 0.9471   0.730319
 S 0.8767 0.69039 0.56519   1.39511
 S 0.6233 0.80961 0.06519   1.39511
 S 0.1233 0.30961 0.43481   1.395111
 S 0.3767 0.19039 0.93481   1.395111
 O 0.9434 0.9151 0.8322   -0.529841
 O 0.8712 0.0567 0.9652   -0.69559
 O 0.656 0.1627 0.4862   -0.620557
 O 0.8777 0.1243 0.8138   -0.567885
 O 0.8614 0.7005 0.4871   -0.603215
 O 0.6802 0.2828 0.5894   -0.52145
 O 0.7264 0.6121 0.5985   -0.718953
 O 0.0478 0.6476 0.5918   -0.620298
 O 0.5566 0.5849 0.3322   -0.529841
 O 0.6288 0.4433 0.4652   -0.69559
 O 0.844 0.3373 0.9862   -0.620557
 O 0.6223 0.3757 0.3138   -0.567885
 O 0.6386 0.7995 0.9871   -0.603215
 O 0.8198 0.2172 0.0894   -0.52145
 O 0.7736 0.8879 0.0985   -0.718953
 O 0.4522 0.8524 0.0918   -0.620298
 O 0.0566 0.0849 0.1678   -0.529841
 O 0.1288 0.9433 0.0348   -0.69559
 O 0.344 0.8373 0.5138   -0.620557
 O 0.1223 0.8757 0.1862   -0.567885
 O 0.1386 0.2995 0.5129   -0.603214
 O 0.3198 0.7172 0.4106   -0.521449
 O 0.2736 0.3879 0.4015   -0.718953
 O 0.9522 0.3524 0.4082   -0.620298
 O 0.4434 0.4151 0.6678   -0.529841
 O 0.3712 0.5567 0.5348   -0.69559
 O 0.156 0.6627 0.0138   -0.620557
 O 0.3777 0.6243 0.6862   -0.567885
 O 0.3614 0.2005 0.0129   -0.603214
 O 0.1802 0.7828 0.9106   -0.521449
 O 0.2264 0.1121 0.9015   -0.718953
 O 0.5478 0.1476 0.9082   -0.620298
