{'_ref': 'TBD', '_srcid': 'CAKYAQ_clean', 'submitters': [{'name': 'Dalar Nazarian Jeff Camp and David Sholl', 'email': 'dalar@gatech.edu jcamp6@gatech.edu'}], '_method': 'VASP DFT with PBE;DDEC'}
data_Cu2H3C8SO8
_symmetry_space_group_name_H-M   'P 1'
_cell_length_a   7.25200000
_cell_length_b   10.22999953
_cell_length_c   18.06800000
_cell_angle_alpha   90.00000000
_cell_angle_beta   90.00000000
_cell_angle_gamma   94.21600126
_symmetry_Int_Tables_number   1
_chemical_formula_structural   Cu2H3C8SO8
_chemical_formula_sum   'Cu8 H12 C32 S4 O32'
_cell_volume   1336.80078171
_cell_formula_units_Z   4
loop_
 _symmetry_equiv_pos_site_id
 _symmetry_equiv_pos_as_xyz
  1  'x, y, z'
loop_
 _atom_site_label
 _atom_site_fract_x
 _atom_site_fract_y
 _atom_site_fract_z
 _atom_site_charge
 Cu 0.86222 0.21401 0.90587   1.051036
 Cu 0.03628 0.92958 0.93149   1.13452
 Cu 0.63778 0.28599 0.40587   1.051036
 Cu 0.46372 0.57042 0.43149   1.13452
 Cu 0.13778 0.78599 0.09413   1.051036
 Cu 0.96372 0.07042 0.06851   1.134519
 Cu 0.36222 0.71401 0.59413   1.051036
 Cu 0.53628 0.42958 0.56851   1.134519
 H 0.7787 0.165 0.6915   0.108678
 H 0.9329 0.7997 0.7073   0.111079
 H 0.7705 0.9383 0.5118   0.106853
 H 0.7213 0.335 0.1915   0.108678
 H 0.5671 0.7003 0.2073   0.111079
 H 0.7295 0.5617 0.0118   0.106853
 H 0.2213 0.835 0.3085   0.108678
 H 0.0671 0.2003 0.2927   0.111079
 H 0.2295 0.0617 0.4882   0.106853
 H 0.2787 0.665 0.8085   0.108678
 H 0.4329 0.2997 0.7927   0.111079
 H 0.2705 0.4383 0.9882   0.106853
 C 0.8525 0.8492 0.6039   -0.301512
 C 0.764 0.0707 0.5948   -0.15697
 C 0.7979 0.0852 0.6693   0.046039
 C 0.8594 0.9861 0.7122   -0.171372
 C 0.8953 0.008 0.7925   0.740006
 C 0.889 0.8672 0.6794   0.054675
 C 0.7924 0.9504 0.5622   0.044422
 C 0.69 0.1824 0.5531   0.72972
 C 0.6475 0.6508 0.1039   -0.301512
 C 0.736 0.4293 0.0948   -0.15697
 C 0.7021 0.4148 0.1693   0.046039
 C 0.6406 0.5139 0.2122   -0.171372
 C 0.6047 0.492 0.2925   0.740006
 C 0.611 0.6328 0.1794   0.054675
 C 0.7076 0.5496 0.0622   0.044422
 C 0.81 0.3176 0.0531   0.72972
 C 0.1475 0.1508 0.3961   -0.301512
 C 0.236 0.9293 0.4052   -0.15697
 C 0.2021 0.9148 0.3307   0.046039
 C 0.1406 0.0139 0.2878   -0.171372
 C 0.1047 0.992 0.2075   0.740006
 C 0.111 0.1328 0.3206   0.054675
 C 0.2076 0.0496 0.4378   0.044422
 C 0.31 0.8176 0.4469   0.72972
 C 0.3525 0.3492 0.8961   -0.301512
 C 0.264 0.5707 0.9052   -0.15697
 C 0.2979 0.5852 0.8307   0.046039
 C 0.3594 0.4861 0.7878   -0.171372
 C 0.3953 0.508 0.7075   0.740006
 C 0.389 0.3672 0.8206   0.054675
 C 0.2924 0.4504 0.9378   0.044422
 C 0.19 0.6824 0.9469   0.72972
 S 0.8707 0.6932 0.56476   1.401733
 S 0.6293 0.8068 0.06476   1.401733
 S 0.1293 0.3068 0.43524   1.401734
 S 0.3707 0.1932 0.93524   1.401734
 O 0.9407 0.9156 0.8329   -0.523741
 O 0.8685 0.0576 0.9664   -0.699574
 O 0.6562 0.1632 0.4864   -0.61361
 O 0.8739 0.1234 0.814   -0.585454
 O 0.8501 0.7026 0.4875   -0.607553
 O 0.6713 0.2841 0.5899   -0.525054
 O 0.7223 0.6119 0.5998   -0.722933
 O 0.0431 0.6493 0.59   -0.62099
 O 0.5593 0.5844 0.3329   -0.523741
 O 0.6315 0.4424 0.4664   -0.699574
 O 0.8438 0.3368 0.9864   -0.61361
 O 0.6261 0.3766 0.314   -0.585454
 O 0.6499 0.7974 0.9875   -0.607553
 O 0.8287 0.2159 0.0899   -0.525054
 O 0.7777 0.8881 0.0998   -0.722933
 O 0.4569 0.8507 0.09   -0.62099
 O 0.0593 0.0844 0.1671   -0.523741
 O 0.1315 0.9424 0.0336   -0.699574
 O 0.3438 0.8368 0.5136   -0.613609
 O 0.1261 0.8766 0.186   -0.585454
 O 0.1499 0.2974 0.5125   -0.607552
 O 0.3287 0.7159 0.4101   -0.525054
 O 0.2777 0.3881 0.4002   -0.722933
 O 0.9569 0.3507 0.41   -0.620989
 O 0.4407 0.4156 0.6671   -0.523741
 O 0.3685 0.5576 0.5336   -0.699574
 O 0.1562 0.6632 0.0136   -0.613609
 O 0.3739 0.6234 0.686   -0.585454
 O 0.3501 0.2026 0.0125   -0.607552
 O 0.1713 0.7841 0.9101   -0.525054
 O 0.2223 0.1119 0.9002   -0.722933
 O 0.5431 0.1493 0.91   -0.620989
