{'_ref': 'TBD', '_srcid': 'CAKYAQ_clean', 'submitters': [{'name': 'Dalar Nazarian Jeff Camp and David Sholl', 'email': 'dalar@gatech.edu jcamp6@gatech.edu'}], '_method': 'VASP DFT with PBE;DDEC'}
data_Cu2H3C8SO8
_symmetry_space_group_name_H-M   'P 1'
_cell_length_a   7.30100000
_cell_length_b   10.13299995
_cell_length_c   18.03200000
_cell_angle_alpha   90.00000000
_cell_angle_beta   90.00000000
_cell_angle_gamma   94.30700043
_symmetry_Int_Tables_number   1
_chemical_formula_structural   Cu2H3C8SO8
_chemical_formula_sum   'Cu8 H12 C32 S4 O32'
_cell_volume   1330.25864395
_cell_formula_units_Z   4
loop_
 _symmetry_equiv_pos_site_id
 _symmetry_equiv_pos_as_xyz
  1  'x, y, z'
loop_
 _atom_site_label
 _atom_site_fract_x
 _atom_site_fract_y
 _atom_site_fract_z
 _atom_site_charge
 Cu 0.86507 0.21639 0.90536   1.048349
 Cu 0.45869 0.56952 0.43152   1.121683
 Cu 0.63493 0.28361 0.40536   1.048349
 Cu 0.04131 0.93048 0.93152   1.121683
 Cu 0.13493 0.78361 0.09464   1.048349
 Cu 0.54131 0.43048 0.56848   1.121683
 Cu 0.36507 0.71639 0.59464   1.048349
 Cu 0.95869 0.06952 0.06848   1.121683
 H 0.7173 0.3342 0.192   0.111051
 H 0.5592 0.7028 0.207   0.113483
 H 0.7259 0.5644 0.0114   0.110891
 H 0.7827 0.1658 0.692   0.111051
 H 0.9408 0.7972 0.707   0.113483
 H 0.7741 0.9356 0.5114   0.110891
 H 0.2827 0.6658 0.808   0.111051
 H 0.4408 0.2972 0.793   0.113483
 H 0.2741 0.4356 0.9886   0.110891
 H 0.2173 0.8342 0.308   0.111051
 H 0.0592 0.2028 0.293   0.113483
 H 0.2259 0.0644 0.4886   0.110891
 C 0.6409 0.6496 0.1037   -0.288302
 C 0.7299 0.4303 0.0954   -0.151492
 C 0.6971 0.4145 0.1696   0.040714
 C 0.6349 0.5151 0.2121   -0.163956
 C 0.5989 0.4911 0.293   0.738523
 C 0.6037 0.6344 0.1795   0.045654
 C 0.7024 0.5515 0.0617   0.032953
 C 0.8025 0.3197 0.0527   0.730468
 C 0.8591 0.8504 0.6037   -0.288302
 C 0.7701 0.0697 0.5954   -0.151492
 C 0.8029 0.0855 0.6696   0.040714
 C 0.8651 0.9849 0.7121   -0.163956
 C 0.9011 0.0089 0.793   0.738523
 C 0.8963 0.8656 0.6795   0.045654
 C 0.7976 0.9485 0.5617   0.032953
 C 0.6975 0.1803 0.5527   0.730468
 C 0.3591 0.3504 0.8963   -0.288302
 C 0.2701 0.5697 0.9046   -0.151492
 C 0.3029 0.5855 0.8304   0.040713
 C 0.3651 0.4849 0.7879   -0.163956
 C 0.4011 0.5089 0.707   0.738523
 C 0.3963 0.3656 0.8205   0.045654
 C 0.2976 0.4485 0.9383   0.032953
 C 0.1975 0.6803 0.9473   0.730468
 C 0.1409 0.1496 0.3963   -0.288302
 C 0.2299 0.9303 0.4046   -0.151492
 C 0.1971 0.9145 0.3304   0.040713
 C 0.1349 0.0151 0.2879   -0.163956
 C 0.0989 0.9911 0.207   0.738523
 C 0.1037 0.1344 0.3205   0.045654
 C 0.2024 0.0515 0.4383   0.032953
 C 0.3025 0.8197 0.4473   0.730468
 S 0.6223 0.80927 0.06516   1.397501
 S 0.8777 0.69073 0.56516   1.397501
 S 0.3777 0.19073 0.93484   1.397501
 S 0.1223 0.30927 0.43484   1.397501
 O 0.5538 0.5852 0.3316   -0.517577
 O 0.8709 0.0566 0.965   -0.695033
 O 0.8413 0.3368 0.9863   -0.62025
 O 0.6199 0.3752 0.3138   -0.583481
 O 0.634 0.8002 0.9876   -0.602533
 O 0.8177 0.2164 0.0895   -0.525148
 O 0.773 0.8887 0.098   -0.721088
 O 0.4521 0.8533 0.0918   -0.62241
 O 0.9462 0.9148 0.8316   -0.517577
 O 0.6291 0.4434 0.465   -0.695033
 O 0.6587 0.1632 0.4863   -0.62025
 O 0.8801 0.1248 0.8138   -0.583481
 O 0.866 0.6998 0.4876   -0.602532
 O 0.6823 0.2836 0.5895   -0.525148
 O 0.727 0.6113 0.598   -0.721088
 O 0.0479 0.6467 0.5918   -0.62241
 O 0.4462 0.4148 0.6684   -0.517577
 O 0.1291 0.9434 0.035   -0.695034
 O 0.1587 0.6632 0.0137   -0.62025
 O 0.3801 0.6248 0.6862   -0.583481
 O 0.366 0.1998 0.0124   -0.602532
 O 0.1823 0.7836 0.9105   -0.525147
 O 0.227 0.1113 0.902   -0.721089
 O 0.5479 0.1467 0.9082   -0.62241
 O 0.0538 0.0852 0.1684   -0.517577
 O 0.3709 0.5566 0.535   -0.695034
 O 0.3413 0.8368 0.5137   -0.62025
 O 0.1199 0.8752 0.1862   -0.583481
 O 0.134 0.3002 0.5124   -0.602531
 O 0.3177 0.7164 0.4105   -0.525147
 O 0.273 0.3887 0.402   -0.721089
 O 0.9521 0.3533 0.4082   -0.62241
