{'_ref': 'TBD', '_srcid': 'CAKYAQ_clean', 'submitters': [{'name': 'Dalar Nazarian Jeff Camp and David Sholl', 'email': 'dalar@gatech.edu jcamp6@gatech.edu'}], '_method': 'VASP DFT with PBE;DDEC'}
data_CdH14C19N2O5
_symmetry_space_group_name_H-M   'P 1'
_cell_length_a   11.73680041
_cell_length_b   11.73680008
_cell_length_c   15.46200000
_cell_angle_alpha   82.00109864
_cell_angle_beta   82.00109887
_cell_angle_gamma   76.69059949
_symmetry_Int_Tables_number   1
_chemical_formula_structural   CdH14C19N2O5
_chemical_formula_sum   'Cd4 H56 C76 N8 O20'
_cell_volume   2039.83518513
_cell_formula_units_Z   4
loop_
 _symmetry_equiv_pos_site_id
 _symmetry_equiv_pos_as_xyz
  1  'x, y, z'
loop_
 _atom_site_label
 _atom_site_fract_x
 _atom_site_fract_y
 _atom_site_fract_z
 _atom_site_charge
 Cd 0.97196 0.46423 0.12845   0.986519
 Cd 0.53577 0.02804 0.37155   0.986519
 Cd 0.02804 0.53577 0.87155   0.986519
 Cd 0.46423 0.97196 0.62845   0.986519
 H 0.8849 0.4047 0.4536   0.103051
 H 0.7674 0.3626 0.5812   0.090443
 H 0.5773 0.3429 0.5766   0.126214
 H 0.6155 0.4229 0.3154   0.134081
 H 0.3152 0.346 0.4956   0.111162
 H 0.3959 0.3831 0.5545   0.075602
 H 0.8178 0.2832 0.1161   0.052797
 H 0.8105 0.0903 0.1245   0.114143
 H 0.8095 0.9183 0.1091   0.1347
 H 0.8102 0.7228 0.1159   0.090837
 H 0.1334 0.6352 0.1661   0.083134
 H 0.1436 0.8278 0.1606   0.116339
 H 0.1536 0.0084 0.131   0.123499
 H 0.1504 0.2038 0.1249   0.076961
 H 0.5953 0.1151 0.0464   0.103051
 H 0.6374 0.2326 0.9188   0.090443
 H 0.6571 0.4227 0.9234   0.126214
 H 0.5771 0.3845 0.1846   0.134079
 H 0.654 0.6848 0.0044   0.111161
 H 0.6169 0.6041 0.9455   0.075602
 H 0.7168 0.1822 0.3839   0.052797
 H 0.9097 0.1895 0.3755   0.114143
 H 0.0817 0.1905 0.3909   0.1347
 H 0.2772 0.1898 0.3841   0.090836
 H 0.3648 0.8666 0.3339   0.083134
 H 0.1722 0.8564 0.3394   0.116338
 H 0.9916 0.8464 0.369   0.123499
 H 0.7962 0.8496 0.3751   0.076961
 H 0.1151 0.5953 0.5464   0.103047
 H 0.2326 0.6374 0.4188   0.090439
 H 0.4227 0.6571 0.4234   0.126212
 H 0.3845 0.5771 0.6846   0.13408
 H 0.6848 0.654 0.5044   0.111161
 H 0.6041 0.6169 0.4455   0.075602
 H 0.1822 0.7168 0.8839   0.052797
 H 0.1895 0.9097 0.8755   0.114143
 H 0.1905 0.0817 0.8909   0.134701
 H 0.1898 0.2772 0.8841   0.090837
 H 0.8666 0.3648 0.8339   0.083131
 H 0.8564 0.1722 0.8394   0.116338
 H 0.8464 0.9916 0.869   0.123499
 H 0.8496 0.7962 0.8751   0.076962
 H 0.4047 0.8849 0.9536   0.103046
 H 0.3626 0.7674 0.0812   0.090439
 H 0.3429 0.5773 0.0766   0.126212
 H 0.4229 0.6155 0.8154   0.134079
 H 0.346 0.3152 0.9956   0.11116
 H 0.3831 0.3959 0.0545   0.075602
 H 0.2832 0.8178 0.6161   0.052797
 H 0.0903 0.8105 0.6245   0.114143
 H 0.9183 0.8095 0.6091   0.1347
 H 0.7228 0.8102 0.6159   0.090836
 H 0.6352 0.1334 0.6661   0.083131
 H 0.8278 0.1436 0.6606   0.116338
 H 0.0084 0.1536 0.631   0.123499
 H 0.2038 0.1504 0.6249   0.076962
 C 0.8372 0.44166 0.28658   0.623335
 C 0.76161 0.41725 0.37127   -0.053285
 C 0.8076 0.39914 0.45131   -0.146587
 C 0.73748 0.37288 0.52734   -0.033164
 C 0.62328 0.36152 0.52485   -0.251642
 C 0.57769 0.37783 0.44535   0.265253
 C 0.64696 0.40834 0.36886   -0.175949
 C 0.39545 0.33261 0.50996   -0.071924
 C 0.4327 0.20566 0.54794   0.629785
 C 0.88792 0.22712 0.1191   0.194662
 C 0.88276 0.11036 0.1237   -0.187443
 C 0.98115 0.02481 0.12717   0.096769
 C 0.97778 0.8985 0.13186   0.094057
 C 0.87785 0.86265 0.1198   -0.18746
 C 0.87917 0.74437 0.1237   0.18402
 C 0.06763 0.69323 0.153   0.176205
 C 0.07421 0.80921 0.1502   -0.211444
 C 0.08248 0.06268 0.1278   -0.210769
 C 0.07971 0.18131 0.1238   0.17365
 C 0.55834 0.1628 0.21342   0.623335
 C 0.58275 0.23839 0.12873   -0.053285
 C 0.60086 0.1924 0.04869   -0.146586
 C 0.62712 0.26252 0.97266   -0.033164
 C 0.63848 0.37672 0.97515   -0.251642
 C 0.62217 0.42231 0.05465   0.265253
 C 0.59166 0.35304 0.13114   -0.175949
 C 0.66739 0.60455 0.99004   -0.071924
 C 0.79434 0.5673 0.95206   0.629786
 C 0.77288 0.11208 0.3809   0.194663
 C 0.88964 0.11724 0.3763   -0.187442
 C 0.97519 0.01885 0.37283   0.096769
 C 0.1015 0.02222 0.36814   0.094058
 C 0.13735 0.12215 0.3802   -0.18746
 C 0.25563 0.12083 0.3763   0.18402
 C 0.30677 0.93237 0.347   0.176205
 C 0.19079 0.92579 0.3498   -0.211444
 C 0.93732 0.91752 0.3722   -0.210769
 C 0.81869 0.92029 0.3762   0.173651
 C 0.1628 0.55834 0.71342   0.623335
 C 0.23839 0.58275 0.62873   -0.053285
 C 0.1924 0.60086 0.54869   -0.146585
 C 0.26252 0.62712 0.47266   -0.033163
 C 0.37672 0.63848 0.47515   -0.251642
 C 0.42231 0.62217 0.55465   0.265253
 C 0.35304 0.59166 0.63114   -0.175949
 C 0.60455 0.66739 0.49004   -0.071924
 C 0.5673 0.79434 0.45206   0.629785
 C 0.11208 0.77288 0.8809   0.194662
 C 0.11724 0.88964 0.8763   -0.187442
 C 0.01885 0.97519 0.87283   0.09677
 C 0.02222 0.1015 0.86814   0.094057
 C 0.12215 0.13735 0.8802   -0.18746
 C 0.12083 0.25563 0.8763   0.18402
 C 0.93237 0.30677 0.847   0.176205
 C 0.92579 0.19079 0.8498   -0.211444
 C 0.91752 0.93732 0.8722   -0.210769
 C 0.92029 0.81869 0.8762   0.17365
 C 0.44166 0.8372 0.78658   0.623336
 C 0.41725 0.76161 0.87127   -0.053285
 C 0.39914 0.8076 0.95131   -0.146585
 C 0.37288 0.73748 0.02734   -0.033163
 C 0.36152 0.62328 0.02485   -0.251642
 C 0.37783 0.57769 0.94535   0.265253
 C 0.40834 0.64696 0.86886   -0.175948
 C 0.33261 0.39545 0.00996   -0.071924
 C 0.20566 0.4327 0.04794   0.629786
 C 0.22712 0.88792 0.6191   0.194663
 C 0.11036 0.88276 0.6237   -0.187441
 C 0.02481 0.98115 0.62717   0.09677
 C 0.8985 0.97778 0.63186   0.094058
 C 0.86265 0.87785 0.6198   -0.187459
 C 0.74437 0.87917 0.6237   0.18402
 C 0.69323 0.06763 0.653   0.176205
 C 0.80921 0.07421 0.6502   -0.211444
 C 0.06268 0.08248 0.6278   -0.210768
 C 0.18131 0.07971 0.6238   0.173651
 N 0.98434 0.2645 0.11859   -0.322061
 N 0.97241 0.66003 0.13785   -0.32963
 N 0.7355 0.01566 0.38141   -0.322061
 N 0.33997 0.02759 0.36215   -0.32963
 N 0.01566 0.7355 0.88141   -0.322061
 N 0.02759 0.33997 0.86215   -0.32963
 N 0.2645 0.98434 0.61859   -0.322061
 N 0.66003 0.97241 0.63785   -0.32963
 O 0.78844 0.48464 0.21839   -0.600099
 O 0.94733 0.41333 0.28508   -0.623951
 O 0.46799 0.36577 0.43357   -0.228513
 O 0.47899 0.12697 0.49918   -0.633177
 O 0.41014 0.18212 0.62939   -0.590115
 O 0.51536 0.21156 0.28161   -0.6001
 O 0.58667 0.05267 0.21492   -0.623951
 O 0.63423 0.53201 0.06643   -0.228514
 O 0.87303 0.52101 0.000819999999997   -0.633177
 O 0.81788 0.58986 0.87061   -0.590116
 O 0.21156 0.51536 0.78161   -0.600099
 O 0.05267 0.58667 0.71492   -0.623951
 O 0.53201 0.63423 0.56643   -0.228513
 O 0.52101 0.87303 0.50082   -0.633177
 O 0.58986 0.81788 0.37061   -0.590115
 O 0.48464 0.78844 0.71839   -0.6001
 O 0.41333 0.94733 0.78508   -0.623951
 O 0.36577 0.46799 0.93357   -0.228514
 O 0.12697 0.47899 0.99918   -0.633177
 O 0.18212 0.41014 0.12939   -0.590116
