{'_ref': 'TBD', '_srcid': 'CAKYAQ_clean', 'submitters': [{'name': 'Dalar Nazarian Jeff Camp and David Sholl', 'email': 'dalar@gatech.edu jcamp6@gatech.edu'}], '_method': 'VASP DFT with PBE;DDEC'}
data_AgH23C19N5O
_symmetry_space_group_name_H-M   'P 1'
_cell_length_a   12.38080000
_cell_length_b   12.38080000
_cell_length_c   32.55800000
_cell_angle_alpha   90.00000000
_cell_angle_beta   90.00000000
_cell_angle_gamma   90.00000000
_symmetry_Int_Tables_number   1
_chemical_formula_structural   AgH23C19N5O
_chemical_formula_sum   'Ag8 H184 C152 N40 O8'
_cell_volume   4990.6272649
_cell_formula_units_Z   8
loop_
 _symmetry_equiv_pos_site_id
 _symmetry_equiv_pos_as_xyz
  1  'x, y, z'
loop_
 _atom_site_label
 _atom_site_fract_x
 _atom_site_fract_y
 _atom_site_fract_z
 _atom_site_charge
 Ag 0.50714 0.77499 0.395571   0.222976
 Ag 0.49286 0.22501 0.895571   0.222976
 Ag 0.72501 0.00714 0.145571   0.222976
 Ag 0.27499 0.99286 0.645571   0.222976
 Ag 0.99286 0.27499 0.354429   0.222979
 Ag 0.00714 0.72501 0.854429   0.222979
 Ag 0.77499 0.50714 0.604429   0.222979
 Ag 0.22501 0.49286 0.104429   0.222979
 H 0.3483 0.9918 0.5511   0.075551
 H 0.6517 0.0082 0.0511   0.075551
 H 0.5082 0.8483 0.3011   0.075551
 H 0.4918 0.1517 0.8011   0.075551
 H 0.1517 0.4918 0.1989   0.075551
 H 0.8483 0.5082 0.6989   0.075551
 H 0.9918 0.3483 0.4489   0.075551
 H 0.0082 0.6517 0.9489   0.075551
 H 0.4242 0.8874 0.5469   0.052873
 H 0.5758 0.1126 0.0469   0.052873
 H 0.6126 0.9242 0.2969   0.052873
 H 0.3874 0.0758 0.7969   0.052873
 H 0.0758 0.3874 0.2031   0.052873
 H 0.9242 0.6126 0.7031   0.052873
 H 0.8874 0.4242 0.4531   0.052873
 H 0.1126 0.5758 0.9531   0.052873
 H 0.4772 0.8394 0.6481   0.087633
 H 0.5228 0.1606 0.1481   0.087633
 H 0.6606 0.9772 0.3981   0.087633
 H 0.3394 0.0228 0.8981   0.087633
 H 0.0228 0.3394 0.1019   0.087633
 H 0.9772 0.6606 0.6019   0.087633
 H 0.8394 0.4772 0.3519   0.087633
 H 0.1606 0.5228 0.8519   0.087633
 H 0.5007 0.8036 0.6014   0.066265
 H 0.4993 0.1964 0.1014   0.066265
 H 0.6964 0.000700000000002 0.3514   0.066265
 H 0.3036 0.9993 0.8514   0.066265
 H 0.9993 0.3036 0.1486   0.066265
 H 0.000700000000002 0.6964 0.6486   0.066265
 H 0.8036 0.5007 0.3986   0.066265
 H 0.1964 0.4993 0.8986   0.066265
 H 0.6381 0.2881 0.3466   0.078758
 H 0.3619 0.7119 0.8466   0.078758
 H 0.2119 0.1381 0.0966   0.078758
 H 0.7881 0.8619 0.5966   0.078758
 H 0.8619 0.7881 0.4034   0.078758
 H 0.1381 0.2119 0.9034   0.078758
 H 0.2881 0.6381 0.6534   0.078758
 H 0.7119 0.3619 0.1534   0.078758
 H 0.6821 0.4005 0.3289   0.074209
 H 0.3179 0.5995 0.8289   0.074209
 H 0.0995 0.1821 0.0789   0.074209
 H 0.9005 0.8179 0.5789   0.074209
 H 0.8179 0.9005 0.4211   0.074211
 H 0.1821 0.0995 0.9211   0.074211
 H 0.4005 0.6821 0.6711   0.074211
 H 0.5995 0.3179 0.1711   0.074211
 H 0.6163 0.5667 0.3562   0.048175
 H 0.3837 0.4333 0.8562   0.048175
 H 0.9333 0.1163 0.1062   0.048175
 H 0.0667 0.8837 0.6062   0.048175
 H 0.8837 0.0667 0.3938   0.048175
 H 0.1163 0.9333 0.8938   0.048175
 H 0.5667 0.6163 0.6438   0.048175
 H 0.4333 0.3837 0.1438   0.048175
 H 0.3928 0.3995 0.4489   0.109626
 H 0.6072 0.6005 0.9489   0.109626
 H 0.1005 0.8928 0.1989   0.109626
 H 0.8995 0.1072 0.6989   0.109626
 H 0.1072 0.8995 0.3011   0.109626
 H 0.8928 0.1005 0.8011   0.109626
 H 0.3995 0.3928 0.5511   0.109626
 H 0.6005 0.6072 0.0511   0.109626
 H 0.5091 0.293 0.4068   0.090425
 H 0.4909 0.707 0.9068   0.090425
 H 0.207 0.0091 0.1568   0.090425
 H 0.793 0.9909 0.6568   0.090425
 H 0.9909 0.793 0.3432   0.090425
 H 0.0091 0.207 0.8432   0.090425
 H 0.293 0.5091 0.5932   0.090425
 H 0.707 0.4909 0.0932   0.090425
 H 0.3387 0.8653 0.4647   0.051139
 H 0.6613 0.1347 0.9647   0.051139
 H 0.6347 0.8387 0.2147   0.051139
 H 0.3653 0.1613 0.7147   0.051139
 H 0.1613 0.3653 0.2853   0.051139
 H 0.8387 0.6347 0.7853   0.051139
 H 0.8653 0.3387 0.5353   0.051139
 H 0.1347 0.6613 0.0353   0.051139
 H 0.1937 0.6216 0.5231   0.088103
 H 0.8063 0.3784 0.0231   0.088103
 H 0.8784 0.6937 0.2731   0.088103
 H 0.1216 0.3063 0.7731   0.088103
 H 0.3063 0.1216 0.2269   0.088103
 H 0.6937 0.8784 0.7269   0.088103
 H 0.6216 0.1937 0.4769   0.088103
 H 0.3784 0.8063 0.9769   0.088103
 H 0.2833 0.5027 0.4817   0.100987
 H 0.7167 0.4973 0.9817   0.100987
 H 0.9973 0.7833 0.2317   0.100987
 H 0.0027 0.2167 0.7317   0.100987
 H 0.2167 0.0027 0.2683   0.100987
 H 0.7833 0.9973 0.7683   0.100987
 H 0.5027 0.2833 0.5183   0.100987
 H 0.4973 0.7167 0.0183   0.100987
 H 0.2078 0.9134 0.5144   0.074819
 H 0.7922 0.0866 0.0144   0.074819
 H 0.5866 0.7078 0.2644   0.074819
 H 0.4134 0.2922 0.7644   0.074819
 H 0.2922 0.4134 0.2356   0.07482
 H 0.7078 0.5866 0.7356   0.07482
 H 0.9134 0.2078 0.4856   0.07482
 H 0.0866 0.7922 0.9856   0.07482
 H 0.1349 0.8217 0.5352   0.081423
 H 0.8651 0.1783 0.0352   0.081423
 H 0.6783 0.6349 0.2852   0.081423
 H 0.3217 0.3651 0.7852   0.081423
 H 0.3651 0.3217 0.2148   0.081423
 H 0.6349 0.6783 0.7148   0.081423
 H 0.8217 0.1349 0.4648   0.081423
 H 0.1783 0.8651 0.9648   0.081423
 H 0.6252 0.9325 0.5815   0.125284
 H 0.3748 0.0675 0.0815   0.125284
 H 0.5675 0.1252 0.3315   0.125284
 H 0.4325 0.8748 0.8315   0.125284
 H 0.8748 0.4325 0.1685   0.125284
 H 0.1252 0.5675 0.6685   0.125284
 H 0.9325 0.6252 0.4185   0.125284
 H 0.0675 0.3748 0.9185   0.125284
 H 0.6452 0.0595 0.5764   0.145947
 H 0.3548 0.9405 0.0764   0.145947
 H 0.4405 0.1452 0.3264   0.145947
 H 0.5595 0.8548 0.8264   0.145947
 H 0.8548 0.5595 0.1736   0.145947
 H 0.1452 0.4405 0.6736   0.145947
 H 0.0595 0.6452 0.4236   0.145947
 H 0.9405 0.3548 0.9236   0.145947
 H 0.5591 0.9993 0.5477   0.117871
 H 0.4409 0.000700000000002 0.0477   0.117871
 H 0.5007 0.0591 0.2977   0.117871
 H 0.4993 0.9409 0.7977   0.117871
 H 0.9409 0.4993 0.2023   0.117871
 H 0.0591 0.5007 0.7023   0.117871
 H 0.9993 0.5591 0.4523   0.117871
 H 0.000700000000002 0.4409 0.9523   0.117871
 H 0.4989 0.1929 0.6014   0.134667
 H 0.5011 0.8071 0.1014   0.134667
 H 0.3071 0.9989 0.3514   0.134667
 H 0.6929 0.0011 0.8514   0.134667
 H 0.0011 0.6929 0.1486   0.134667
 H 0.9989 0.3071 0.6486   0.134667
 H 0.1929 0.4989 0.3986   0.134667
 H 0.8071 0.5011 0.8986   0.134667
 H 0.3863 0.146 0.6176   0.111771
 H 0.6137 0.854 0.1176   0.111771
 H 0.354 0.8863 0.3676   0.111771
 H 0.646 0.1137 0.8676   0.111771
 H 0.1137 0.646 0.1324   0.111771
 H 0.8863 0.354 0.6324   0.111771
 H 0.146 0.3863 0.3824   0.111771
 H 0.854 0.6137 0.8824   0.111771
 H 0.418 0.1345 0.5702   0.111422
 H 0.582 0.8655 0.0702   0.111422
 H 0.3655 0.918 0.3202   0.111422
 H 0.6345 0.082 0.8202   0.111422
 H 0.082 0.6345 0.1798   0.111422
 H 0.918 0.3655 0.6798   0.111422
 H 0.1345 0.418 0.4298   0.111422
 H 0.8655 0.582 0.9298   0.111422
 H 0.587 0.9619 0.6569   0.135593
 H 0.413 0.0381 0.1569   0.135593
 H 0.5381 0.087 0.4069   0.135593
 H 0.4619 0.913 0.9069   0.135593
 H 0.913 0.4619 0.0931   0.135593
 H 0.087 0.5381 0.5931   0.135593
 H 0.9619 0.587 0.3431   0.135593
 H 0.0381 0.413 0.8431   0.135593
 H 0.4841 0.0307 0.6711   0.108837
 H 0.5159 0.9693 0.1711   0.108837
 H 0.4693 0.9841 0.4211   0.108837
 H 0.5307 0.0159 0.9211   0.108837
 H 0.0159 0.5307 0.0789   0.108837
 H 0.9841 0.4693 0.5789   0.108837
 H 0.0307 0.4841 0.3289   0.108837
 H 0.9693 0.5159 0.8289   0.108837
 H 0.5906 0.0911 0.6553   0.141144
 H 0.4094 0.9089 0.1553   0.141144
 H 0.4089 0.0906 0.4053   0.141144
 H 0.5911 0.9094 0.9053   0.141144
 H 0.9094 0.5911 0.0947   0.141144
 H 0.0906 0.4089 0.5947   0.141144
 H 0.0911 0.5906 0.3447   0.141144
 H 0.9089 0.4094 0.8447   0.141144
 C 0.2676 0.7686 0.59304   0.599784
 C 0.7324 0.2314 0.09304   0.599784
 C 0.7314 0.7676 0.34304   0.599784
 C 0.2686 0.2324 0.84304   0.599784
 C 0.2324 0.2686 0.15696   0.599784
 C 0.7676 0.7314 0.65696   0.599784
 C 0.7686 0.2676 0.40696   0.599784
 C 0.2314 0.7324 0.90696   0.599784
 C 0.3674 0.9218 0.56386   0.123116
 C 0.6326 0.0782 0.06386   0.123116
 C 0.5782 0.8674 0.31386   0.123116
 C 0.4218 0.1326 0.81386   0.123116
 C 0.1326 0.4218 0.18614   0.123116
 C 0.8674 0.5782 0.68614   0.123116
 C 0.9218 0.3674 0.43614   0.123116
 C 0.0782 0.6326 0.93614   0.123116
 C 0.4455 0.8334 0.6203   0.111891
 C 0.5545 0.1666 0.1203   0.111891
 C 0.6666 0.9455 0.3703   0.111891
 C 0.3334 0.0545 0.8703   0.111891
 C 0.0545 0.3334 0.1297   0.111891
 C 0.9455 0.6666 0.6297   0.111891
 C 0.8334 0.4455 0.3797   0.111891
 C 0.1666 0.5545 0.8797   0.111891
 C 0.665 0.3605 0.35444   0.026588
 C 0.335 0.6395 0.85444   0.026588
 C 0.1395 0.165 0.10444   0.026588
 C 0.8605 0.835 0.60444   0.026588
 C 0.835 0.8605 0.39556   0.026588
 C 0.165 0.1395 0.89556   0.026588
 C 0.3605 0.665 0.64556   0.026588
 C 0.6395 0.335 0.14556   0.026588
 C 0.5782 0.4197 0.37767   -0.114169
 C 0.4218 0.5803 0.87767   -0.114169
 C 0.0803 0.0782 0.12767   -0.114169
 C 0.9197 0.9218 0.62767   -0.114169
 C 0.9218 0.9197 0.37233   -0.114169
 C 0.0782 0.0803 0.87233   -0.114169
 C 0.4197 0.5782 0.62233   -0.114169
 C 0.5803 0.4218 0.12233   -0.114169
 C 0.5701 0.5311 0.37514   0.097954
 C 0.4299 0.4689 0.87514   0.097954
 C 0.9689 0.0701 0.12514   0.097954
 C 0.0311 0.9299 0.62514   0.097954
 C 0.9299 0.0311 0.37486   0.097954
 C 0.0701 0.9689 0.87486   0.097954
 C 0.5311 0.5701 0.62486   0.097954
 C 0.4689 0.4299 0.12486   0.097954
 C 0.4372 0.5442 0.42368   0.122685
 C 0.5628 0.4558 0.92368   0.122685
 C 0.9558 0.9372 0.17368   0.122685
 C 0.0442 0.0628 0.67368   0.122685
 C 0.0628 0.0442 0.32632   0.122685
 C 0.9372 0.9558 0.82632   0.122685
 C 0.5442 0.4372 0.57632   0.122685
 C 0.4558 0.5628 0.07632   0.122685
 C 0.4385 0.4328 0.42912   -0.172216
 C 0.5615 0.5672 0.92912   -0.172216
 C 0.0672 0.9385 0.17912   -0.172216
 C 0.9328 0.0615 0.67912   -0.172216
 C 0.0615 0.9328 0.32088   -0.172216
 C 0.9385 0.0672 0.82088   -0.172216
 C 0.4328 0.4385 0.57088   -0.172216
 C 0.5672 0.5615 0.07088   -0.172216
 C 0.5094 0.3695 0.40457   -0.091144
 C 0.4906 0.6305 0.90457   -0.091144
 C 0.1305 0.0094 0.15457   -0.091144
 C 0.8695 0.9906 0.65457   -0.091144
 C 0.9906 0.8695 0.34543   -0.091144
 C 0.0094 0.1305 0.84543   -0.091144
 C 0.3695 0.5094 0.59543   -0.091144
 C 0.6305 0.4906 0.09543   -0.091144
 C 0.3706 0.6159 0.44974   0.114519
 C 0.6294 0.3841 0.94974   0.114519
 C 0.8841 0.8706 0.19974   0.114519
 C 0.1159 0.1294 0.69974   0.114519
 C 0.1294 0.1159 0.30026   0.114519
 C 0.8706 0.8841 0.80026   0.114519
 C 0.6159 0.3706 0.55026   0.114519
 C 0.3841 0.6294 0.05026   0.114519
 C 0.3288 0.79 0.46882   0.086319
 C 0.6712 0.21 0.96882   0.086319
 C 0.71 0.8288 0.21882   0.086319
 C 0.29 0.1712 0.71882   0.086319
 C 0.1712 0.29 0.28118   0.086319
 C 0.8288 0.71 0.78118   0.086319
 C 0.79 0.3288 0.53118   0.086319
 C 0.21 0.6712 0.03118   0.086319
 C 0.258 0.7583 0.49917   -0.127335
 C 0.742 0.2417 0.99917   -0.127335
 C 0.7417 0.758 0.24917   -0.127335
 C 0.2583 0.242 0.74917   -0.127335
 C 0.242 0.2583 0.25083   -0.127335
 C 0.758 0.7417 0.75083   -0.127335
 C 0.7583 0.258 0.50083   -0.127335
 C 0.2417 0.742 0.000830000000001   -0.127335
 C 0.2427 0.6482 0.50309   -0.070336
 C 0.7573 0.3518 0.00309   -0.070336
 C 0.8518 0.7427 0.25309   -0.070336
 C 0.1482 0.2573 0.75309   -0.070336
 C 0.2573 0.1482 0.24691   -0.070336
 C 0.7427 0.8518 0.74691   -0.070336
 C 0.6482 0.2427 0.49691   -0.070336
 C 0.3518 0.7573 0.99691   -0.070336
 C 0.296 0.5781 0.47899   -0.161448
 C 0.704 0.4219 0.97899   -0.161448
 C 0.9219 0.796 0.22899   -0.161448
 C 0.0781 0.204 0.72899   -0.161448
 C 0.204 0.0781 0.27101   -0.161448
 C 0.796 0.9219 0.77101   -0.161448
 C 0.5781 0.296 0.52101   -0.161448
 C 0.4219 0.704 0.02101   -0.161448
 C 0.21 0.8424 0.52834   0.023579
 C 0.79 0.1576 0.02834   0.023579
 C 0.6576 0.71 0.27834   0.023579
 C 0.3424 0.29 0.77834   0.023579
 C 0.29 0.3424 0.22166   0.023579
 C 0.71 0.6576 0.72166   0.023579
 C 0.8424 0.21 0.47166   0.023579
 C 0.1576 0.79 0.97166   0.023579
 C 0.5007 0.025 0.6075   0.33402
 C 0.4993 0.975 0.1075   0.33402
 C 0.475 0.000700000000002 0.3575   0.33402
 C 0.525 0.9993 0.8575   0.33402
 C 0.9993 0.525 0.1425   0.33402
 C 0.000700000000002 0.475 0.6425   0.33402
 C 0.025 0.5007 0.3925   0.33402
 C 0.975 0.4993 0.8925   0.33402
 C 0.5909 0.0019 0.5753   -0.428093
 C 0.4091 0.9981 0.0753   -0.428093
 C 0.4981 0.0909 0.3253   -0.428093
 C 0.5019 0.9091 0.8253   -0.428093
 C 0.9091 0.5019 0.1747   -0.428093
 C 0.0909 0.4981 0.6747   -0.428093
 C 0.0019 0.5909 0.4247   -0.428093
 C 0.9981 0.4091 0.9247   -0.428093
 C 0.446 0.1346 0.5983   -0.417039
 C 0.554 0.8654 0.0983   -0.417039
 C 0.3654 0.946 0.3483   -0.417039
 C 0.6346 0.054 0.8483   -0.417039
 C 0.054 0.6346 0.1517   -0.417039
 C 0.946 0.3654 0.6517   -0.417039
 C 0.1346 0.446 0.4017   -0.417039
 C 0.8654 0.554 0.9017   -0.417039
 C 0.5446 0.0274 0.6517   -0.422069
 C 0.4554 0.9726 0.1517   -0.422069
 C 0.4726 0.0446 0.4017   -0.422069
 C 0.5274 0.9554 0.9017   -0.422069
 C 0.9554 0.5274 0.0983   -0.422069
 C 0.0446 0.4726 0.5983   -0.422069
 C 0.0274 0.5446 0.3483   -0.422069
 C 0.9726 0.4554 0.8483   -0.422069
 N 0.2717 0.8518 0.56546   -0.301668
 N 0.7283 0.1482 0.06546   -0.301668
 N 0.6482 0.7717 0.31546   -0.301668
 N 0.3518 0.2283 0.81546   -0.301668
 N 0.2283 0.3518 0.18454   -0.301668
 N 0.7717 0.6482 0.68454   -0.301668
 N 0.8518 0.2717 0.43454   -0.301668
 N 0.1482 0.7283 0.93454   -0.301668
 N 0.4083 0.9401 0.60572   -0.244959
 N 0.5917 0.0599 0.10572   -0.244959
 N 0.5599 0.9083 0.35572   -0.244959
 N 0.4401 0.0917 0.85572   -0.244959
 N 0.0917 0.4401 0.14428   -0.244959
 N 0.9083 0.5599 0.64428   -0.244959
 N 0.9401 0.4083 0.39428   -0.244959
 N 0.0599 0.5917 0.89428   -0.244959
 N 0.3486 0.7633 0.62099   -0.3038
 N 0.6514 0.2367 0.12099   -0.3038
 N 0.7367 0.8486 0.37099   -0.3038
 N 0.2633 0.1514 0.87099   -0.3038
 N 0.1514 0.2633 0.12901   -0.3038
 N 0.8486 0.7367 0.62901   -0.3038
 N 0.7633 0.3486 0.37901   -0.3038
 N 0.2367 0.6514 0.87901   -0.3038
 N 0.5031 0.5926 0.39702   -0.32211
 N 0.4969 0.4074 0.89702   -0.32211
 N 0.9074 0.0031 0.14702   -0.32211
 N 0.0926 0.9969 0.64702   -0.32211
 N 0.9969 0.0926 0.35298   -0.322111
 N 0.0031 0.9074 0.85298   -0.322111
 N 0.5926 0.5031 0.60298   -0.322111
 N 0.4074 0.4969 0.10298   -0.322111
 N 0.3843 0.7231 0.44491   -0.333312
 N 0.6157 0.2769 0.94491   -0.333312
 N 0.7769 0.8843 0.19491   -0.333312
 N 0.2231 0.1157 0.69491   -0.333312
 N 0.1157 0.2231 0.30509   -0.333312
 N 0.8843 0.7769 0.80509   -0.333312
 N 0.7231 0.3843 0.55509   -0.333312
 N 0.2769 0.6157 0.05509   -0.333312
 O 0.1929 0.7047 0.5933   -0.566255
 O 0.8071 0.2953 0.0933   -0.566255
 O 0.7953 0.6929 0.3433   -0.566255
 O 0.2047 0.3071 0.8433   -0.566255
 O 0.3071 0.2047 0.1567   -0.566255
 O 0.6929 0.7953 0.6567   -0.566255
 O 0.7047 0.1929 0.4067   -0.566255
 O 0.2953 0.8071 0.9067   -0.566255
