{'_ref': 'TBD', '_srcid': 'CAKYAQ_clean', 'submitters': [{'name': 'Dalar Nazarian Jeff Camp and David Sholl', 'email': 'dalar@gatech.edu jcamp6@gatech.edu'}], '_method': 'VASP DFT with PBE;DDEC'}
data_CuH16C16S2Br
_symmetry_space_group_name_H-M   'P 1'
_cell_length_a   7.08200000
_cell_length_b   12.35700000
_cell_length_c   20.72400000
_cell_angle_alpha   90.00000000
_cell_angle_beta   90.00000000
_cell_angle_gamma   90.00000000
_symmetry_Int_Tables_number   1
_chemical_formula_structural   CuH16C16S2Br
_chemical_formula_sum   'Cu4 H64 C64 S8 Br4'
_cell_volume   1813.60436638
_cell_formula_units_Z   4
loop_
 _symmetry_equiv_pos_site_id
 _symmetry_equiv_pos_as_xyz
  1  'x, y, z'
loop_
 _atom_site_label
 _atom_site_fract_x
 _atom_site_fract_y
 _atom_site_fract_z
 _atom_site_charge
 Cu 0.24458 0.33266 0.25   0.123463
 Cu 0.25542 0.83266 0.75   0.123463
 Cu 0.75542 0.66734 0.75   0.123463
 Cu 0.74458 0.16734 0.25   0.123463
 H 0.4897 0.2477 0.5118   0.089556
 H 0.6327 0.3215 0.6036   0.107005
 H 0.8477 0.564 0.494   0.094011
 H 0.7151 0.4865 0.4022   0.095451
 H 0.3682 0.2785 0.406   0.09948
 H 0.5536 0.2757 0.3662   0.105953
 H 0.1218 0.5369 0.3549   0.130495
 H 0.0988 0.4319 0.3951   0.106637
 H 0.0103 0.7477 0.4882   0.089557
 H 0.8673 0.8215 0.3964   0.107004
 H 0.6523 0.064 0.506   0.094011
 H 0.7849 0.9865 0.5978   0.095451
 H 0.1318 0.7785 0.594   0.09948
 H 0.9464 0.7757 0.6338   0.105953
 H 0.3782 0.0369 0.6451   0.130494
 H 0.4012 0.9319 0.6049   0.106637
 H 0.5103 0.7523 0.0118   0.089556
 H 0.3673 0.6785 0.1036   0.107004
 H 0.1523 0.436 0.994   0.094011
 H 0.2849 0.5135 0.9022   0.095451
 H 0.6318 0.7215 0.906   0.09948
 H 0.4464 0.7243 0.8662   0.105953
 H 0.8782 0.4631 0.8549   0.130495
 H 0.9012 0.5681 0.8951   0.106637
 H 0.9897 0.2523 0.9882   0.089557
 H 0.1327 0.1785 0.8964   0.107004
 H 0.3477 0.936 0.006   0.094011
 H 0.2151 0.0135 0.0978   0.095451
 H 0.8682 0.2215 0.094   0.09948
 H 0.0536 0.2243 0.1338   0.105953
 H 0.6218 0.9631 0.1451   0.130494
 H 0.5988 0.0681 0.1049   0.106637
 H 0.5103 0.7523 0.4882   0.089556
 H 0.3673 0.6785 0.3964   0.107001
 H 0.1523 0.436 0.506   0.094011
 H 0.2849 0.5135 0.5978   0.095451
 H 0.6318 0.7215 0.594   0.09948
 H 0.4464 0.7243 0.6338   0.105953
 H 0.8782 0.4631 0.6451   0.130492
 H 0.9012 0.5681 0.6049   0.106637
 H 0.9897 0.2523 0.5118   0.089557
 H 0.1327 0.1785 0.6036   0.107001
 H 0.3477 0.936 0.494   0.094012
 H 0.2151 0.0135 0.4022   0.095451
 H 0.8682 0.2215 0.406   0.09948
 H 0.0536 0.2243 0.3662   0.105953
 H 0.6218 0.9631 0.3549   0.130492
 H 0.5988 0.0681 0.3951   0.106637
 H 0.4897 0.2477 0.9882   0.089556
 H 0.6327 0.3215 0.8964   0.107001
 H 0.8477 0.564 0.006   0.094011
 H 0.7151 0.4865 0.0978   0.095451
 H 0.3682 0.2785 0.094   0.09948
 H 0.5536 0.2757 0.1338   0.105953
 H 0.1218 0.5369 0.1451   0.130492
 H 0.0988 0.4319 0.1049   0.106637
 H 0.0103 0.7477 0.0118   0.089557
 H 0.8673 0.8215 0.1036   0.107001
 H 0.6523 0.064 0.994   0.094012
 H 0.7849 0.9865 0.9022   0.095451
 H 0.1318 0.7785 0.906   0.09948
 H 0.9464 0.7757 0.8662   0.105953
 H 0.3782 0.0369 0.8549   0.130492
 H 0.4012 0.9319 0.8951   0.106637
 C 0.5607 0.313 0.50818   -0.131248
 C 0.6448 0.3574 0.56301   -0.128873
 C 0.7467 0.4541 0.55854   0.049897
 C 0.7727 0.4998 0.4981   -0.115122
 C 0.6926 0.4547 0.44344   -0.121966
 C 0.5788 0.3631 0.44816   0.063678
 C 0.4714 0.3206 0.39057   -0.137459
 C 0.1854 0.487 0.3823   -0.166422
 C 0.9393 0.813 0.49182   -0.131249
 C 0.8552 0.8574 0.43699   -0.128873
 C 0.7533 0.9541 0.44146   0.049897
 C 0.7273 0.9998 0.5019   -0.115122
 C 0.8074 0.9547 0.55656   -0.121966
 C 0.9212 0.8631 0.55184   0.063678
 C 0.0286 0.8206 0.60943   -0.137459
 C 0.3146 0.987 0.6177   -0.166421
 C 0.4393 0.687 0.00818   -0.131249
 C 0.3552 0.6426 0.06301   -0.128873
 C 0.2533 0.5459 0.05854   0.049897
 C 0.2273 0.5002 0.9981   -0.115122
 C 0.3074 0.5453 0.94344   -0.121966
 C 0.4212 0.6369 0.94816   0.063678
 C 0.5286 0.6794 0.89057   -0.137459
 C 0.8146 0.513 0.8823   -0.166421
 C 0.0607 0.187 0.99182   -0.131249
 C 0.1448 0.1426 0.93699   -0.128873
 C 0.2467 0.0459 0.94146   0.049897
 C 0.2727 0.0002 0.0019   -0.115122
 C 0.1926 0.0453 0.05656   -0.121966
 C 0.0788 0.1369 0.05184   0.063678
 C 0.9714 0.1794 0.10943   -0.137459
 C 0.6854 0.013 0.1177   -0.166421
 C 0.4393 0.687 0.49182   -0.131249
 C 0.3552 0.6426 0.43699   -0.128872
 C 0.2533 0.5459 0.44146   0.049898
 C 0.2273 0.5002 0.5019   -0.115122
 C 0.3074 0.5453 0.55656   -0.121965
 C 0.4212 0.6369 0.55184   0.063678
 C 0.5286 0.6794 0.60943   -0.137459
 C 0.8146 0.513 0.6177   -0.166419
 C 0.0607 0.187 0.50818   -0.131249
 C 0.1448 0.1426 0.56301   -0.128872
 C 0.2467 0.0459 0.55854   0.049898
 C 0.2727 0.0002 0.4981   -0.115122
 C 0.1926 0.0453 0.44344   -0.121965
 C 0.0788 0.1369 0.44816   0.063679
 C 0.9714 0.1794 0.39057   -0.137459
 C 0.6854 0.013 0.3823   -0.166419
 C 0.5607 0.313 0.99182   -0.131249
 C 0.6448 0.3574 0.93699   -0.128872
 C 0.7467 0.4541 0.94146   0.049898
 C 0.7727 0.4998 0.0019   -0.115122
 C 0.6926 0.4547 0.05656   -0.121965
 C 0.5788 0.3631 0.05184   0.063678
 C 0.4714 0.3206 0.10943   -0.137459
 C 0.1854 0.487 0.1177   -0.166419
 C 0.9393 0.813 0.00818   -0.131249
 C 0.8552 0.8574 0.06301   -0.128872
 C 0.7533 0.9541 0.05854   0.049898
 C 0.7273 0.9998 0.9981   -0.115122
 C 0.8074 0.9547 0.94344   -0.121965
 C 0.9212 0.8631 0.94816   0.063679
 C 0.0286 0.8206 0.89057   -0.137459
 C 0.3146 0.987 0.8823   -0.166419
 S 0.37724 0.42406 0.33682   -0.001646
 S 0.12276 0.92406 0.66318   -0.001646
 S 0.62276 0.57594 0.83682   -0.001646
 S 0.87724 0.07594 0.16318   -0.001646
 S 0.62276 0.57594 0.66318   -0.001646
 S 0.87724 0.07594 0.33682   -0.001646
 S 0.37724 0.42406 0.16318   -0.001646
 S 0.12276 0.92406 0.83682   -0.001646
 Br 0.89496 0.34829 0.25   -0.402316
 Br 0.60504 0.84829 0.75   -0.402316
 Br 0.10504 0.65171 0.75   -0.402316
 Br 0.39496 0.15171 0.25   -0.402316
