{'_ref': 'TBD', '_srcid': 'CAKYAQ_clean', 'submitters': [{'name': 'Dalar Nazarian Jeff Camp and David Sholl', 'email': 'dalar@gatech.edu jcamp6@gatech.edu'}], '_method': 'VASP DFT with PBE;DDEC'}
data_Zn5P2H8(CO)16
_symmetry_space_group_name_H-M   'P 1'
_cell_length_a   7.41899967
_cell_length_b   9.96900038
_cell_length_c   11.14800000
_cell_angle_alpha   65.15199939
_cell_angle_beta   76.10899601
_cell_angle_gamma   69.96499894
_symmetry_Int_Tables_number   1
_chemical_formula_structural   Zn5P2H8(CO)16
_chemical_formula_sum   'Zn5 P2 H8 C16 O16'
_cell_volume   698.41960578
_cell_formula_units_Z   1
loop_
 _symmetry_equiv_pos_site_id
 _symmetry_equiv_pos_as_xyz
  1  'x, y, z'
loop_
 _atom_site_label
 _atom_site_fract_x
 _atom_site_fract_y
 _atom_site_fract_z
 _atom_site_charge
 Zn 0.55666 0.35307 0.29493   1.109415
 Zn 0.9259 0.28199 0.04792   1.18867
 Zn 0.44334 0.64693 0.70507   1.109416
 Zn 0.0741 0.71801 0.95208   1.1887
 Zn 0.5 0.5 0.0   1.154889
 P 0.1476 0.3886 0.19121   1.547958
 P 0.8524 0.6114 0.80879   1.547958
 H 0.2547 0.1038 0.4067   0.099303
 H 0.8465 0.5036 0.3682   0.104878
 H 0.8764 0.1511 0.7202   0.093146
 H 0.765 0.507 0.113   0.479502
 H 0.7453 0.8962 0.5933   0.099302
 H 0.1535 0.4964 0.6318   0.104878
 H 0.1236 0.8489 0.2798   0.093146
 H 0.235 0.493 0.887   0.479502
 C 0.1503 0.1634 0.4441   0.090368
 C 0.0599 0.314 0.3654   -0.403695
 C 0.9044 0.4028 0.4203   0.060457
 C 0.0834 0.1027 0.5789   -0.181978
 C 0.8344 0.3414 0.5538   -0.132305
 C 0.6665 0.434 0.6176   0.658002
 C 0.9242 0.192 0.6313   0.04748
 C 0.1827 0.9438 0.6672   0.746378
 C 0.8497 0.8366 0.5559   0.090365
 C 0.9401 0.686 0.6346   -0.403696
 C 0.0956 0.5972 0.5797   0.060455
 C 0.9166 0.8973 0.4211   -0.18198
 C 0.1656 0.6586 0.4462   -0.132306
 C 0.3335 0.566 0.3824   0.658
 C 0.0758 0.808 0.3687   0.04748
 C 0.8173 0.0562 0.3328   0.746374
 O 0.7071 0.4391 0.1222   -1.044242
 O 0.3602 0.3831 0.1821   -0.889765
 O 0.6111 0.5794 0.5582   -0.606482
 O 0.5848 0.3682 0.7283   -0.618139
 O 0.3075 0.8587 0.6096   -0.598982
 O 0.1346 0.9057 0.7894   -0.651914
 O 0.1408 0.2804 0.1294   -0.831834
 O 0.0228 0.5509 0.1324   -0.843672
 O 0.2929 0.5609 0.8778   -1.044244
 O 0.6398 0.6169 0.8179   -0.889765
 O 0.3889 0.4206 0.4418   -0.606483
 O 0.4152 0.6318 0.2717   -0.61814
 O 0.6925 0.1413 0.3904   -0.598981
 O 0.8654 0.0943 0.2106   -0.651911
 O 0.8592 0.7196 0.8706   -0.831836
 O 0.9772 0.4491 0.8676   -0.843669
