{'_ref': 'TBD', '_srcid': 'CAKYAQ_clean', 'submitters': [{'name': 'Dalar Nazarian Jeff Camp and David Sholl', 'email': 'dalar@gatech.edu jcamp6@gatech.edu'}], '_method': 'VASP DFT with PBE;DDEC'}
data_ZnPH3C8O7
_symmetry_space_group_name_H-M   'P 1'
_cell_length_a   9.86600000
_cell_length_b   13.96300000
_cell_length_c   15.44900000
_cell_angle_alpha   90.00000000
_cell_angle_beta   90.00000000
_cell_angle_gamma   90.00000000
_symmetry_Int_Tables_number   1
_chemical_formula_structural   ZnPH3C8O7
_chemical_formula_sum   'Zn4 P4 H12 C32 O28'
_cell_volume   2128.23814214
_cell_formula_units_Z   4
loop_
 _symmetry_equiv_pos_site_id
 _symmetry_equiv_pos_as_xyz
  1  'x, y, z'
loop_
 _atom_site_label
 _atom_site_fract_x
 _atom_site_fract_y
 _atom_site_fract_z
 _atom_site_charge
 Zn 0.59721 0.90409 0.90228   1.108389
 Zn 0.90279 0.59591 0.40228   1.108389
 Zn 0.40279 0.09591 0.09772   1.108389
 Zn 0.09721 0.40409 0.59772   1.108389
 P 0.38092 0.07091 0.89468   1.340125
 P 0.11908 0.42909 0.39468   1.340125
 P 0.61908 0.92909 0.10532   1.340125
 P 0.88092 0.57091 0.60532   1.340125
 H 0.1231 0.9718 0.9182   0.102824
 H 0.8734 0.0896 0.7421   0.124717
 H 0.2549 0.1861 0.768   0.109677
 H 0.3769 0.5282 0.4182   0.102824
 H 0.6266 0.4104 0.2421   0.124717
 H 0.2451 0.3139 0.268   0.109677
 H 0.8769 0.0282 0.0818   0.102824
 H 0.1266 0.9104 0.2579   0.124718
 H 0.7451 0.8139 0.232   0.109678
 H 0.6231 0.4718 0.5818   0.102824
 H 0.3734 0.5896 0.7579   0.124718
 H 0.7549 0.6861 0.732   0.109678
 C 0.2122 0.0758 0.8481   -0.302493
 C 0.1077 0.0157 0.874   0.074943
 C 0.98 0.0196 0.8352   -0.110146
 C 0.9576 0.0865 0.769   0.020112
 C 0.0612 0.1483 0.7433   -0.105246
 C 0.1869 0.1435 0.7839   0.084707
 C 0.8697 0.9504 0.8616   0.63142
 C 0.042 0.2194 0.6704   0.640195
 C 0.2878 0.4242 0.3481   -0.302493
 C 0.3923 0.4843 0.374   0.074943
 C 0.52 0.4804 0.3352   -0.110146
 C 0.5424 0.4135 0.269   0.020112
 C 0.4388 0.3517 0.2433   -0.105246
 C 0.3131 0.3565 0.2839   0.084708
 C 0.6303 0.5496 0.3616   0.63142
 C 0.458 0.2806 0.1704   0.640195
 C 0.7878 0.9242 0.1519   -0.302493
 C 0.8923 0.9843 0.126   0.074942
 C 0.02 0.9804 0.1648   -0.110146
 C 0.0424 0.9135 0.231   0.020111
 C 0.9388 0.8517 0.2567   -0.105246
 C 0.8131 0.8565 0.2161   0.084707
 C 0.1303 0.0496 0.1384   0.63142
 C 0.958 0.7806 0.3296   0.640195
 C 0.7122 0.5758 0.6519   -0.302493
 C 0.6077 0.5157 0.626   0.074942
 C 0.48 0.5196 0.6648   -0.110146
 C 0.4576 0.5865 0.731   0.020111
 C 0.5612 0.6483 0.7567   -0.105246
 C 0.6869 0.6435 0.7161   0.084708
 C 0.3697 0.4504 0.6384   0.63142
 C 0.542 0.7194 0.8296   0.640195
 O 0.4175 0.96546 0.90741   -0.706216
 O 0.3739 0.12869 0.97823   -0.692268
 O 0.4742 0.11905 0.8291   -0.49419
 O 0.9026 0.8682 0.8803   -0.379271
 O 0.7503 0.9844 0.86213   -0.540014
 O 0.9767 0.1967 0.60579   -0.355252
 O 0.096 0.30112 0.68398   -0.552012
 O 0.0825 0.53454 0.40741   -0.706216
 O 0.1261 0.37131 0.47823   -0.692268
 O 0.0258 0.38095 0.3291   -0.49419
 O 0.5974 0.6318 0.3803   -0.379271
 O 0.7497 0.5156 0.36213   -0.540014
 O 0.5233 0.3033 0.10579   -0.355251
 O 0.404 0.19888 0.18398   -0.552012
 O 0.5825 0.03454 0.09259   -0.706216
 O 0.6261 0.87131 0.02177   -0.692268
 O 0.5258 0.88095 0.1709   -0.49419
 O 0.0974 0.1318 0.1197   -0.379271
 O 0.2497 0.0156 0.13787   -0.540014
 O 0.0233 0.8033 0.39421   -0.355251
 O 0.904 0.69888 0.31602   -0.552012
 O 0.9175 0.46546 0.59259   -0.706216
 O 0.8739 0.62869 0.52177   -0.692268
 O 0.9742 0.61905 0.6709   -0.49419
 O 0.4026 0.3682 0.6197   -0.379271
 O 0.2503 0.4844 0.63787   -0.540014
 O 0.4767 0.6967 0.89421   -0.355251
 O 0.596 0.80112 0.81602   -0.552012
