{'_ref': 'TBD', '_srcid': 'CAKYAQ_clean', 'submitters': [{'name': 'Dalar Nazarian Jeff Camp and David Sholl', 'email': 'dalar@gatech.edu jcamp6@gatech.edu'}], '_method': 'VASP DFT with PBE;DDEC'}
data_MnH4(C2O)4
_symmetry_space_group_name_H-M   'P 1'
_cell_length_a   9.53470005
_cell_length_b   13.37779797
_cell_length_c   14.47438341
_cell_angle_alpha   79.94776702
_cell_angle_beta   70.76988953
_cell_angle_gamma   69.12301711
_symmetry_Int_Tables_number   1
_chemical_formula_structural   MnH4(C2O)4
_chemical_formula_sum   'Mn6 H24 C48 O24'
_cell_volume   1625.36879279
_cell_formula_units_Z   6
loop_
 _symmetry_equiv_pos_site_id
 _symmetry_equiv_pos_as_xyz
  1  'x, y, z'
loop_
 _atom_site_label
 _atom_site_fract_x
 _atom_site_fract_y
 _atom_site_fract_z
 _atom_site_charge
 Mn 0.87249 0.53248 0.11544   1.099203
 Mn 0.52041 0.96752 0.38456   1.099759
 Mn 0.12751 0.46752 0.88456   1.099203
 Mn 0.47959 0.03248 0.61544   1.099759
 Mn 0.78888 0.75 0.25   1.250061
 Mn 0.21112 0.25 0.75   1.250061
 H 0.8477 0.9079 0.0207   0.088294
 H 0.9236 0.0438 0.919   0.101985
 H 0.2394 0.8311 0.7293   0.103379
 H 0.1544 0.6954 0.8266   0.094203
 H 0.6761 0.3567 0.4103   0.109043
 H 0.4666 0.6728 0.4308   0.107002
 H 0.7763 0.5921 0.4793   0.089949
 H 0.8864 0.4562 0.581   0.101268
 H 0.7998 0.6689 0.7707   0.104816
 H 0.6764 0.8046 0.6734   0.093411
 H 0.4431 0.1433 0.0897   0.109587
 H 0.5702 0.8272 0.0692   0.107413
 H 0.1523 0.0921 0.9793   0.088294
 H 0.0764 0.9562 0.081   0.101985
 H 0.7606 0.1689 0.2707   0.103379
 H 0.8456 0.3046 0.1734   0.094203
 H 0.3239 0.6433 0.5897   0.109043
 H 0.5334 0.3272 0.5692   0.107001
 H 0.2237 0.4079 0.5207   0.089949
 H 0.1136 0.5438 0.419   0.101268
 H 0.2002 0.3311 0.2293   0.104817
 H 0.3236 0.1954 0.3266   0.093411
 H 0.5569 0.8567 0.9103   0.109587
 H 0.4298 0.1728 0.9308   0.107412
 C 0.9491 0.699 0.002   0.734697
 C 0.995 0.7877 0.9347   -0.160321
 C 0.926 0.8923 0.9615   -0.029769
 C 0.9727 0.9734 0.901   -0.058706
 C 0.0919 0.9512 0.8138   -0.119087
 C 0.1592 0.8472 0.7876   -0.053863
 C 0.11 0.7653 0.8465   -0.039931
 C 0.1562 0.0373 0.7523   0.706551
 C 0.6786 0.5366 0.301   0.683983
 C 0.5836 0.5185 0.4039   -0.123338
 C 0.6047 0.4144 0.4464   -0.057263
 C 0.4799 0.603 0.4584   -0.044726
 C 0.6501 0.801 0.498   0.734629
 C 0.7174 0.7123 0.5653   -0.158659
 C 0.7798 0.6077 0.5385   -0.034336
 C 0.8471 0.5266 0.599   -0.055917
 C 0.8569 0.5488 0.6862   -0.119093
 C 0.794 0.6528 0.7124   -0.056833
 C 0.7218 0.7347 0.6535   -0.037946
 C 0.9458 0.4627 0.7477   0.705853
 C 0.5162 0.9634 0.199   0.683791
 C 0.506 0.9815 0.0961   -0.122151
 C 0.4655 0.0856 0.0536   -0.058125
 C 0.5413 0.897 0.0416   -0.045746
 C 0.0509 0.301 0.998   0.734697
 C 0.005 0.2123 0.0653   -0.160321
 C 0.074 0.1077 0.0385   -0.029769
 C 0.0273 0.0266 0.099   -0.058705
 C 0.9081 0.0488 0.1862   -0.119086
 C 0.8408 0.1528 0.2124   -0.053864
 C 0.89 0.2347 0.1535   -0.03993
 C 0.8438 0.9627 0.2477   0.706551
 C 0.3214 0.4634 0.699   0.683983
 C 0.4164 0.4815 0.5961   -0.123341
 C 0.3953 0.5856 0.5536   -0.057255
 C 0.5201 0.397 0.5416   -0.044718
 C 0.3499 0.199 0.502   0.734629
 C 0.2826 0.2877 0.4347   -0.158659
 C 0.2202 0.3923 0.4615   -0.034336
 C 0.1529 0.4734 0.401   -0.055916
 C 0.1431 0.4512 0.3138   -0.119093
 C 0.206 0.3472 0.2876   -0.056833
 C 0.2782 0.2653 0.3465   -0.037946
 C 0.0542 0.5373 0.2523   0.705853
 C 0.4838 0.0366 0.801   0.683791
 C 0.494 0.0185 0.9039   -0.122153
 C 0.5345 0.9144 0.9464   -0.058119
 C 0.4587 0.103 0.9584   -0.04574
 O 0.99982 0.60606 0.9717   -0.64317
 O 0.7583 0.4582 0.2502   -0.580863
 O 0.67722 0.63056 0.2682   -0.659545
 O 0.8624 0.716 0.0878   -0.6389
 O 0.10475 0.1278 0.7851   -0.611775
 O 0.25868 0.01064 0.672   -0.632065
 O 0.57758 0.89394 0.5283   -0.64371
 O 0.4667 0.0418 0.2498   -0.581077
 O 0.57598 0.86944 0.2318   -0.659721
 O 0.6662 0.784 0.4122   -0.639053
 O 0.01765 0.3722 0.7149   -0.610558
 O 0.94132 0.48936 0.828   -0.632643
 O 0.00018 0.39394 0.0283   -0.64317
 O 0.2417 0.5418 0.7498   -0.580863
 O 0.32278 0.36944 0.7318   -0.659545
 O 0.1376 0.284 0.9122   -0.6389
 O 0.89525 0.8722 0.2149   -0.611775
 O 0.74132 0.98936 0.328   -0.632065
 O 0.42242 0.10606 0.4717   -0.64371
 O 0.5333 0.9582 0.7502   -0.581077
 O 0.42402 0.13056 0.7682   -0.659721
 O 0.3338 0.216 0.5878   -0.639053
 O 0.98235 0.6278 0.2851   -0.610558
 O 0.05868 0.51064 0.172   -0.632643
