{'_ref': 'TBD', '_srcid': 'CAKYAQ_clean', 'submitters': [{'name': 'Dalar Nazarian Jeff Camp and David Sholl', 'email': 'dalar@gatech.edu jcamp6@gatech.edu'}], '_method': 'VASP DFT with PBE;DDEC'}
data_CdH9C14NO5
_symmetry_space_group_name_H-M   'P 1'
_cell_length_a   10.05800021
_cell_length_b   16.67900001
_cell_length_c   18.52710000
_cell_angle_alpha   106.22700053
_cell_angle_beta   105.74999940
_cell_angle_gamma   90.00000074
_symmetry_Int_Tables_number   1
_chemical_formula_structural   CdH9C14NO5
_chemical_formula_sum   'Cd8 H72 C112 N8 O40'
_cell_volume   2862.50501096
_cell_formula_units_Z   8
loop_
 _symmetry_equiv_pos_site_id
 _symmetry_equiv_pos_as_xyz
  1  'x, y, z'
loop_
 _atom_site_label
 _atom_site_fract_x
 _atom_site_fract_y
 _atom_site_fract_z
 _atom_site_charge
 Cd 0.41094 0.87757 0.41838   1.161608
 Cd 0.81234 0.78206 0.69376   1.05024
 Cd 0.99256 0.62243 0.58162   1.161758
 Cd 0.11858 0.71794 0.30624   1.050919
 Cd 0.58906 0.12243 0.58162   1.161608
 Cd 0.18766 0.21794 0.30624   1.05024
 Cd 0.00744 0.37757 0.41838   1.161758
 Cd 0.88142 0.28206 0.69376   1.050919
 H 0.5165 0.8541 0.2258   0.121975
 H 0.1975 0.8624 0.993   0.138825
 H 0.1265 0.8207 0.0868   0.095296
 H 0.7872 0.83 0.1714   0.07571
 H 0.7166 0.8827 0.2336   0.081797
 H 0.0215 0.8924 0.1972   0.122172
 H 0.1755 0.0063 0.2346   0.079357
 H 0.8826 0.1556 0.2592   0.0676
 H 0.7244 0.0451 0.2256   0.115627
 H 0.3266 0.9149 0.9086   0.070145
 H 0.3282 0.8202 0.907   0.063086
 H 0.3412 0.8018 0.7686   0.147279
 H 0.4888 0.7802 0.6896   0.104768
 H 0.8036 0.8736 0.8738   0.083368
 H 0.6615 0.907 0.952   0.135974
 H 0.8343 0.9065 0.393   0.09261
 H 0.1325 0.0799 0.4156   0.103365
 H 0.7619 0.1485 0.4416   0.098414
 H 0.2907 0.6459 0.7742   0.122875
 H 0.2045 0.6376 0.007   0.139159
 H 0.0397 0.6793 0.9132   0.092865
 H 0.6158 0.67 0.8286   0.075299
 H 0.483 0.6173 0.7664   0.082677
 H 0.8243 0.6076 0.8028   0.122991
 H 0.9409 0.4937 0.7654   0.079261
 H 0.6234 0.3444 0.7408   0.06715
 H 0.4988 0.4549 0.7744   0.114459
 H 0.418 0.5851 0.0914   0.071413
 H 0.4212 0.6798 0.093   0.063871
 H 0.5726 0.6982 0.2314   0.146531
 H 0.7992 0.7198 0.3104   0.104611
 H 0.9298 0.6264 0.1262   0.08316
 H 0.7095 0.593 0.048   0.135173
 H 0.4413 0.5935 0.607   0.092735
 H 0.7169 0.4201 0.5844   0.102985
 H 0.3203 0.3515 0.5584   0.097927
 H 0.4835 0.1459 0.7742   0.121975
 H 0.8025 0.1376 0.007   0.138824
 H 0.8735 0.1793 0.9132   0.095296
 H 0.2128 0.17 0.8286   0.07571
 H 0.2834 0.1173 0.7664   0.081797
 H 0.9785 0.1076 0.8028   0.122172
 H 0.8245 0.9937 0.7654   0.079357
 H 0.1174 0.8444 0.7408   0.067599
 H 0.2756 0.9549 0.7744   0.115627
 H 0.6734 0.0851 0.0914   0.070145
 H 0.6718 0.1798 0.093   0.063086
 H 0.6588 0.1982 0.2314   0.147278
 H 0.5112 0.2198 0.3104   0.104769
 H 0.1964 0.1264 0.1262   0.083367
 H 0.3385 0.093 0.048   0.135974
 H 0.1657 0.0935 0.607   0.09261
 H 0.8675 0.9201 0.5844   0.103365
 H 0.2381 0.8515 0.5584   0.098415
 H 0.7093 0.3541 0.2258   0.122875
 H 0.7955 0.3624 0.993   0.139158
 H 0.9603 0.3207 0.0868   0.092865
 H 0.3842 0.33 0.1714   0.075299
 H 0.517 0.3827 0.2336   0.082677
 H 0.1757 0.3924 0.1972   0.122991
 H 0.0591 0.5063 0.2346   0.079261
 H 0.3766 0.6556 0.2592   0.067149
 H 0.5012 0.5451 0.2256   0.114459
 H 0.582 0.4149 0.9086   0.071413
 H 0.5788 0.3202 0.907   0.063871
 H 0.4274 0.3018 0.7686   0.14653
 H 0.2008 0.2802 0.6896   0.104613
 H 0.0702 0.3736 0.8738   0.083159
 H 0.2905 0.407 0.952   0.135172
 H 0.5587 0.4065 0.393   0.092735
 H 0.2831 0.5799 0.4156   0.102985
 H 0.6797 0.6485 0.4416   0.097928
 C 0.2632 0.7978 0.2222   0.666868
 C 0.3104 0.8315 0.1654   -0.139492
 C 0.4529 0.8535 0.1786   -0.171851
 C 0.497 0.8741 0.1212   0.157873
 C 0.4039 0.8756 0.052   0.176908
 C 0.2615 0.8584 0.0384   -0.243314
 C 0.2202 0.8349 0.0958   -0.035853
 C 0.7476 0.8826 0.1884   0.080083
 C 0.852 0.9547 0.2082   0.11543
 C 0.991 0.9457 0.2102   -0.196666
 C 0.0827 0.0142 0.2312   0.193886
 C 0.9107 0.1016 0.246   0.180449
 C 0.8157 0.0353 0.2264   -0.204075
 C 0.3862 0.8713 0.9192   0.075585
 C 0.4851 0.8576 0.8686   0.124077
 C 0.4351 0.8188 0.7906   -0.225108
 C 0.525 0.8046 0.7434   0.193586
 C 0.7087 0.861 0.8516   0.179966
 C 0.6246 0.8795 0.8988   -0.210125
 C 0.6352 0.0011 0.4226   0.693495
 C 0.7761 0.0247 0.4196   -0.174916
 C 0.8643 0.9623 0.4028   0.018041
 C 0.9997 0.9829 0.4008   -0.199696
 C 0.0428 0.0658 0.4152   0.032216
 C 0.955 0.1282 0.4286   -0.17594
 C 0.821 0.1065 0.4316   0.024512
 C 0.0935 0.9138 0.384   0.698789
 C 0.9913 0.2165 0.4324   0.678996
 C 0.041 0.7022 0.7778   0.667045
 C 0.145 0.6685 0.8346   -0.141953
 C 0.2743 0.6465 0.8214   -0.171852
 C 0.3758 0.6259 0.8788   0.157893
 C 0.3519 0.6244 0.948   0.176425
 C 0.2231 0.6416 0.9616   -0.24528
 C 0.1244 0.6651 0.9042   -0.03157
 C 0.5592 0.6174 0.8116   0.080583
 C 0.6438 0.5453 0.7918   0.11526
 C 0.7808 0.5543 0.7898   -0.198739
 C 0.8515 0.4858 0.7688   0.194565
 C 0.6647 0.3984 0.754   0.182565
 C 0.5893 0.4647 0.7736   -0.20221
 C 0.467 0.6287 0.0808   0.072614
 C 0.6165 0.6424 0.1314   0.121402
 C 0.6445 0.6812 0.2094   -0.224617
 C 0.7816 0.6954 0.2566   0.195316
 C 0.8571 0.639 0.1484   0.179647
 C 0.7258 0.6205 0.1012   -0.205905
 C 0.2126 0.4989 0.5774   0.695271
 C 0.3565 0.4753 0.5804   -0.176247
 C 0.4615 0.5377 0.5972   0.019147
 C 0.5989 0.5171 0.5992   -0.200782
 C 0.6276 0.4342 0.5848   0.033772
 C 0.5264 0.3718 0.5714   -0.179544
 C 0.3894 0.3935 0.5684   0.02809
 C 0.7095 0.5862 0.616   0.696095
 C 0.5589 0.2835 0.5676   0.679392
 C 0.7368 0.2022 0.7778   0.666868
 C 0.6896 0.1685 0.8346   -0.139492
 C 0.5471 0.1465 0.8214   -0.17185
 C 0.503 0.1259 0.8788   0.157873
 C 0.5961 0.1244 0.948   0.176908
 C 0.7385 0.1416 0.9616   -0.243313
 C 0.7798 0.1651 0.9042   -0.035853
 C 0.2524 0.1174 0.8116   0.080083
 C 0.148 0.0453 0.7918   0.11543
 C 0.009 0.0543 0.7898   -0.196666
 C 0.9173 0.9858 0.7688   0.193886
 C 0.0893 0.8984 0.754   0.180449
 C 0.1843 0.9647 0.7736   -0.204075
 C 0.6138 0.1287 0.0808   0.075585
 C 0.5149 0.1424 0.1314   0.124077
 C 0.5649 0.1812 0.2094   -0.225108
 C 0.475 0.1954 0.2566   0.193587
 C 0.2913 0.139 0.1484   0.179966
 C 0.3754 0.1205 0.1012   -0.210124
 C 0.3648 0.9989 0.5774   0.693496
 C 0.2239 0.9753 0.5804   -0.174916
 C 0.1357 0.0377 0.5972   0.018041
 C 0.000300000000003 0.0171 0.5992   -0.199697
 C 0.9572 0.9342 0.5848   0.032215
 C 0.045 0.8718 0.5714   -0.17594
 C 0.179 0.8935 0.5684   0.024511
 C 0.9065 0.0862 0.616   0.698788
 C 0.0087 0.7835 0.5676   0.678995
 C 0.959 0.2978 0.2222   0.667044
 C 0.855 0.3315 0.1654   -0.141953
 C 0.7257 0.3535 0.1786   -0.171851
 C 0.6242 0.3741 0.1212   0.157893
 C 0.6481 0.3756 0.052   0.176425
 C 0.7769 0.3584 0.0384   -0.24528
 C 0.8756 0.3349 0.0958   -0.03157
 C 0.4408 0.3826 0.1884   0.080583
 C 0.3562 0.4547 0.2082   0.11526
 C 0.2192 0.4457 0.2102   -0.198739
 C 0.1485 0.5142 0.2312   0.194565
 C 0.3353 0.6016 0.246   0.182565
 C 0.4107 0.5353 0.2264   -0.20221
 C 0.533 0.3713 0.9192   0.072614
 C 0.3835 0.3576 0.8686   0.121402
 C 0.3555 0.3188 0.7906   -0.224617
 C 0.2184 0.3046 0.7434   0.195317
 C 0.1429 0.361 0.8516   0.179648
 C 0.2742 0.3795 0.8988   -0.205905
 C 0.7874 0.5011 0.4226   0.695272
 C 0.6435 0.5247 0.4196   -0.176247
 C 0.5385 0.4623 0.4028   0.019147
 C 0.4011 0.4829 0.4008   -0.200782
 C 0.3724 0.5658 0.4152   0.033772
 C 0.4736 0.6282 0.4286   -0.179544
 C 0.6106 0.6065 0.4316   0.028089
 C 0.2905 0.4138 0.384   0.696094
 C 0.4411 0.7165 0.4324   0.679392
 N 0.6608 0.8249 0.773   -0.388917
 N 0.0433 0.0917 0.2468   -0.401394
 N 0.8878 0.6751 0.227   -0.390151
 N 0.7965 0.4083 0.7532   -0.403512
 N 0.3392 0.1751 0.227   -0.388917
 N 0.9567 0.9083 0.7532   -0.401394
 N 0.1122 0.3249 0.773   -0.390152
 N 0.2035 0.5917 0.2468   -0.403512
 O 0.353 0.7976 0.2852   -0.648492
 O 0.1397 0.768 0.2028   -0.620411
 O 0.6344 0.8933 0.1264   -0.275416
 O 0.4627 0.8949 0.9984   -0.25296
 O 0.5933 0.9249 0.395   -0.596643
 O 0.5618 0.057 0.4496   -0.663662
 O 0.0472 0.8401 0.3642   -0.604543
 O 0.2182 0.9385 0.3924   -0.638582
 O 0.1016 0.236 0.4182   -0.671083
 O 0.9111 0.2718 0.4494   -0.560846
 O 0.0678 0.7024 0.7148   -0.647035
 O 0.9369 0.732 0.7972   -0.621872
 O 0.508 0.6067 0.8736   -0.274931
 O 0.4643 0.6051 0.0016   -0.251774
 O 0.1983 0.5751 0.605   -0.597499
 O 0.1122 0.443 0.5504   -0.664215
 O 0.683 0.6599 0.6358   -0.60352
 O 0.8258 0.5615 0.6076   -0.637314
 O 0.6834 0.264 0.5818   -0.671267
 O 0.4617 0.2282 0.5506   -0.561101
 O 0.647 0.2024 0.7148   -0.648492
 O 0.8603 0.232 0.7972   -0.620411
 O 0.3656 0.1067 0.8736   -0.275416
 O 0.5373 0.1051 0.0016   -0.25296
 O 0.4067 0.0751 0.605   -0.596643
 O 0.4382 0.943 0.5504   -0.663662
 O 0.9528 0.1599 0.6358   -0.604543
 O 0.7818 0.0615 0.6076   -0.638582
 O 0.8984 0.764 0.5818   -0.671083
 O 0.0889 0.7282 0.5506   -0.560846
 O 0.9322 0.2976 0.2852   -0.647035
 O 0.0631 0.268 0.2028   -0.621872
 O 0.492 0.3933 0.1264   -0.274931
 O 0.5357 0.3949 0.9984   -0.251774
 O 0.8017 0.4249 0.395   -0.597498
 O 0.8878 0.557 0.4496   -0.664215
 O 0.317 0.3401 0.3642   -0.60352
 O 0.1742 0.4385 0.3924   -0.637314
 O 0.3166 0.736 0.4182   -0.671267
 O 0.5383 0.7718 0.4494   -0.561101
