{'_ref': 'TBD', '_srcid': 'CAKYAQ_clean', 'submitters': [{'name': 'Dalar Nazarian Jeff Camp and David Sholl', 'email': 'dalar@gatech.edu jcamp6@gatech.edu'}], '_method': 'VASP DFT with PBE;DDEC'}
data_Co3H13(CO)11
_symmetry_space_group_name_H-M   'P 1'
_cell_length_a   9.08620029
_cell_length_b   10.72990014
_cell_length_c   19.54960000
_cell_angle_alpha   89.45199753
_cell_angle_beta   87.33700290
_cell_angle_gamma   80.34699744
_symmetry_Int_Tables_number   1
_chemical_formula_structural   Co3H13(CO)11
_chemical_formula_sum   'Co12 H52 C44 O44'
_cell_volume   1876.95098404
_cell_formula_units_Z   4
loop_
 _symmetry_equiv_pos_site_id
 _symmetry_equiv_pos_as_xyz
  1  'x, y, z'
loop_
 _atom_site_label
 _atom_site_fract_x
 _atom_site_fract_y
 _atom_site_fract_z
 _atom_site_charge
 Co 0.82793 0.74841 0.77844   1.045808
 Co 0.15303 0.76516 0.72303   1.016935
 Co 0.93453 0.75918 0.5894   1.226408
 Co 0.05762 0.74403 0.91108   1.224389
 Co 0.17207 0.25159 0.22156   1.045808
 Co 0.84697 0.23484 0.27697   1.016935
 Co 0.06547 0.24082 0.4106   1.226408
 Co 0.94238 0.25597 0.08892   1.224389
 Co 0.0 0.5 0.5   1.166192
 Co 0.0 0.0 0.0   1.153354
 Co 0.0 0.5 0.0   1.194377
 Co 0.0 0.0 0.5   1.204064
 H 0.922 0.883 0.69   0.466099
 H 0.063 0.63 0.807   0.470502
 H 0.8864 0.2622 0.8295   0.135727
 H 0.0029 0.1394 0.8488   0.134047
 H 0.4645 0.8442 0.5477   0.149711
 H 0.367 0.9821 0.5433   0.145531
 H 0.6443 0.5035 0.9602   0.13887
 H 0.5328 0.6339 0.9515   0.145131
 H 0.4519 0.8354 0.4361   0.119991
 H 0.2825 0.815 0.4493   0.131173
 H 0.6319 0.9282 0.968   0.080729
 H 0.4987 0.8668 0.0031   0.066052
 H 0.6982 0.6931 0.0483   0.135494
 H 0.538 0.6531 0.0622   0.118725
 H 0.5008 0.6336 0.4988   0.064996
 H 0.3678 0.5704 0.5328   0.080537
 H 0.5009 0.884 0.8766   0.132953
 H 0.4451 0.0326 0.8874   0.127316
 H 0.705 0.151 0.8424   0.140079
 H 0.7359 0.1376 0.9224   0.126351
 H 0.5547 0.4608 0.6116   0.126523
 H 0.501 0.609 0.6248   0.137664
 H 0.2737 0.3722 0.5794   0.125339
 H 0.3024 0.3571 0.6597   0.142082
 H 0.9988 0.3601 0.6496   0.139769
 H 0.1161 0.2393 0.6714   0.134101
 H 0.078 0.117 0.31   0.466099
 H 0.937 0.37 0.193   0.470502
 H 0.1136 0.7378 0.1705   0.135727
 H 0.9971 0.8606 0.1512   0.134046
 H 0.5355 0.1558 0.4523   0.149712
 H 0.633 0.0179 0.4567   0.145535
 H 0.3557 0.4965 0.0398   0.138877
 H 0.4672 0.3661 0.0485   0.145133
 H 0.5481 0.1646 0.5639   0.119995
 H 0.7175 0.185 0.5507   0.131172
 H 0.3681 0.0718 0.032   0.080729
 H 0.5013 0.1332 0.9969   0.066056
 H 0.3018 0.3069 0.9517   0.135495
 H 0.462 0.3469 0.9378   0.118732
 H 0.4992 0.3664 0.5012   0.064999
 H 0.6322 0.4296 0.4672   0.080537
 H 0.4991 0.116 0.1234   0.132953
 H 0.5549 0.9674 0.1126   0.127318
 H 0.295 0.849 0.1576   0.140079
 H 0.2641 0.8624 0.0776   0.126356
 H 0.4453 0.5392 0.3884   0.126524
 H 0.499 0.391 0.3752   0.137664
 H 0.7263 0.6278 0.4206   0.125345
 H 0.6976 0.6429 0.3403   0.142081
 H 0.0012 0.6399 0.3504   0.139768
 H 0.8839 0.7607 0.3286   0.134101
 C 0.912 0.1974 0.86535   -0.295103
 C 0.7108 0.5125 0.08589   0.731547
 C 0.9459 0.2615 0.92957   0.764558
 C 0.715 0.568 0.58131   0.741832
 C 0.3667 0.8914 0.53446   -0.318412
 C 0.3 0.9968 0.4202   0.728145
 C 0.0683 0.238 0.56934   0.774938
 C 0.6331 0.5961 0.96648   -0.315636
 C 0.8356 0.9823 0.86662   0.760203
 C 0.1603 0.5226 0.63676   0.752738
 C 0.2865 0.9253 0.91906   0.739391
 C 0.3532 0.874 0.45649   -0.318787
 C 0.5224 0.9414 0.97736   -0.083359
 C 0.6407 0.6233 0.04337   -0.323413
 C 0.4772 0.5578 0.52333   -0.085309
 C 0.7499 0.6455 0.92016   0.778649
 C 0.445 0.9483 0.90834   -0.34634
 C 0.7822 0.1217 0.87578   -0.306676
 C 0.2457 0.8491 0.58036   0.778022
 C 0.5556 0.5461 0.59201   -0.347987
 C 0.2257 0.3848 0.6259   -0.307864
 C 0.092 0.3034 0.635   -0.3037
 C 0.088 0.8026 0.13465   -0.295103
 C 0.2892 0.4875 0.91411   0.731548
 C 0.0541 0.7385 0.07043   0.764558
 C 0.285 0.432 0.41869   0.741832
 C 0.6333 0.1086 0.46554   -0.318414
 C 0.7 0.0032 0.5798   0.728145
 C 0.9317 0.762 0.43066   0.774937
 C 0.3669 0.4039 0.03352   -0.315638
 C 0.1644 0.0177 0.13338   0.760203
 C 0.8397 0.4774 0.36324   0.752739
 C 0.7135 0.0747 0.08094   0.739391
 C 0.6468 0.126 0.54351   -0.318788
 C 0.4776 0.0586 0.02264   -0.08336
 C 0.3593 0.3767 0.95663   -0.323416
 C 0.5228 0.4422 0.47667   -0.085309
 C 0.2501 0.3545 0.07984   0.77865
 C 0.555 0.0517 0.09166   -0.34634
 C 0.2178 0.8783 0.12422   -0.306678
 C 0.7543 0.1509 0.41964   0.778023
 C 0.4444 0.4539 0.40799   -0.347987
 C 0.7743 0.6152 0.3741   -0.307865
 C 0.908 0.6966 0.365   -0.303699
 O 0.9376 0.808 0.68925   -1.03378
 O 0.6595 0.5006 0.14559   -0.582004
 O 0.0435 0.7027 0.81188   -1.041693
 O 0.3775 0.0355 0.37358   -0.571319
 O 0.7912 0.9293 0.81674   -0.599614
 O 0.036 0.1287 0.57412   -0.617199
 O 0.7491 0.6681 0.60539   -0.63319
 O 0.195 0.5777 0.68809   -0.583448
 O 0.2552 0.8207 0.89941   -0.634622
 O 0.8799 0.6444 0.94314   -0.699104
 O 0.2789 0.8155 0.63984   -0.606376
 O 0.9785 0.3717 0.92442   -0.60943
 O 0.1963 0.0106 0.95067   -0.630523
 O 0.7121 0.6839 0.86206   -0.618405
 O 0.9269 0.9263 0.90986   -0.703236
 O 0.0704 0.3004 0.51403   -0.683938
 O 0.0683 0.575 0.59292   -0.703133
 O 0.1725 0.0595 0.44203   -0.716848
 O 0.8253 0.4393 0.05966   -0.707002
 O 0.1156 0.8522 0.55689   -0.705997
 O 0.8044 0.4842 0.54796   -0.627069
 O 0.9406 0.2018 0.9859   -0.677551
 O 0.0624 0.192 0.31075   -1.03378
 O 0.3405 0.4994 0.85441   -0.582001
 O 0.9565 0.2973 0.18812   -1.041693
 O 0.6225 0.9645 0.62642   -0.571318
 O 0.2088 0.0707 0.18326   -0.599614
 O 0.964 0.8713 0.42588   -0.617199
 O 0.2509 0.3319 0.39461   -0.633189
 O 0.805 0.4223 0.31191   -0.583447
 O 0.7448 0.1793 0.10059   -0.634621
 O 0.1201 0.3556 0.05686   -0.699105
 O 0.7211 0.1845 0.36016   -0.606375
 O 0.0215 0.6283 0.07558   -0.60943
 O 0.8037 0.9894 0.04933   -0.630523
 O 0.2879 0.3161 0.13794   -0.618404
 O 0.0731 0.0737 0.09014   -0.703236
 O 0.9296 0.6996 0.48597   -0.683938
 O 0.9317 0.425 0.40708   -0.703133
 O 0.8275 0.9405 0.55797   -0.716848
 O 0.1747 0.5607 0.94034   -0.707002
 O 0.8844 0.1478 0.44311   -0.705997
 O 0.1956 0.5158 0.45204   -0.627069
 O 0.0594 0.7982 0.0141   -0.677551
