{'_ref': 'TBD', '_srcid': 'CAKYAQ_clean', 'submitters': [{'name': 'Dalar Nazarian Jeff Camp and David Sholl', 'email': 'dalar@gatech.edu jcamp6@gatech.edu'}], '_method': 'VASP DFT with PBE;DDEC'}
data_ErH6(C2O3)3
_symmetry_space_group_name_H-M   'P 1'
_cell_length_a   5.95649963
_cell_length_b   7.37159982
_cell_length_c   13.17690000
_cell_angle_alpha   102.92500282
_cell_angle_beta   101.63699717
_cell_angle_gamma   90.78500329
_symmetry_Int_Tables_number   1
_chemical_formula_structural   ErH6(C2O3)3
_chemical_formula_sum   'Er2 H12 C12 O18'
_cell_volume   551.283681548
_cell_formula_units_Z   2
loop_
 _symmetry_equiv_pos_site_id
 _symmetry_equiv_pos_as_xyz
  1  'x, y, z'
loop_
 _atom_site_label
 _atom_site_fract_x
 _atom_site_fract_y
 _atom_site_fract_z
 _atom_site_charge
 Er 0.97961 0.1808 0.32099   1.409653
 Er 0.02035 0.81943 0.67895   1.40842
 H 0.6472 0.0423 0.9427   0.108384
 H 0.3485 0.1024 0.0428   0.100593
 H 0.5061 0.6804 0.4343   0.112706
 H 0.5283 0.7212 0.27   0.119749
 H 0.4883 0.2453 0.5665   0.11553
 H 0.4494 0.4029 0.7332   0.123429
 H 0.7964 0.7804 0.9343   0.379881
 H 0.2301 0.8914 0.1041   0.385755
 H 0.7597 0.9906 0.5128   0.371547
 H 0.8336 0.7959 0.2439   0.420381
 H 0.234 0.489 0.4921   0.371119
 H 0.1441 0.5017 0.7529   0.420833
 C 0.788 0.0567 0.1027   0.582095
 C 0.6288 0.9695 0.9964   0.063941
 C 0.379 0.9712 0.0108   0.072792
 C 0.22 0.911 0.8994   0.600607
 C 0.8424 0.6109 0.4317   0.637386
 C 0.6516 0.7484 0.4331   0.068245
 C 0.6159 0.821 0.3299   0.029468
 C 0.4848 0.9951 0.3358   0.606318
 C 0.1507 0.1661 0.5657   0.626452
 C 0.3418 0.3097 0.5677   0.068077
 C 0.3709 0.4572 0.6733   0.028234
 C 0.5089 0.629 0.6714   0.617501
 O 0.7433 0.2192 0.1516   -0.515268
 O 0.9566 0.9802 0.1414   -0.585928
 O 0.6756 0.7835 0.9596   -0.48722
 O 0.3521 0.8627 0.0817   -0.475164
 O 0.2512 0.0119 0.8361   -0.562784
 O 0.0794 0.7842 0.8765   -0.562308
 O 0.8217 0.4733 0.3555   -0.536862
 O 0.0166 0.6527 0.5075   -0.584107
 O 0.7121 0.8937 0.5289   -0.539284
 O 0.8362 0.8566 0.3071   -0.55504
 O 0.5927 0.1432 0.3294   -0.554281
 O 0.2824 0.989 0.3444   -0.557066
 O 0.9754 0.1463 0.4916   -0.576326
 O 0.1763 0.0831 0.6404   -0.533786
 O 0.2836 0.3813 0.4746   -0.537907
 O 0.1495 0.5134 0.6907   -0.556559
 O 0.4051 0.7771 0.6729   -0.540302
 O 0.7174 0.6154 0.6685   -0.588906
