{'_ref': 'TBD', '_srcid': 'CAKYAQ_clean', 'submitters': [{'name': 'Dalar Nazarian Jeff Camp and David Sholl', 'email': 'dalar@gatech.edu jcamp6@gatech.edu'}], '_method': 'VASP DFT with PBE;DDEC'}
data_BaZnH4(C3O4)2
_symmetry_space_group_name_H-M   'P 1'
_cell_length_a   6.84340000
_cell_length_b   9.42030000
_cell_length_c   19.01400000
_cell_angle_alpha   90.00000000
_cell_angle_beta   90.00000000
_cell_angle_gamma   90.00000000
_symmetry_Int_Tables_number   1
_chemical_formula_structural   BaZnH4(C3O4)2
_chemical_formula_sum   'Ba4 Zn4 H16 C24 O32'
_cell_volume   1225.77327571
_cell_formula_units_Z   4
loop_
 _symmetry_equiv_pos_site_id
 _symmetry_equiv_pos_as_xyz
  1  'x, y, z'
loop_
 _atom_site_label
 _atom_site_fract_x
 _atom_site_fract_y
 _atom_site_fract_z
 _atom_site_charge
 Ba 0.75 0.47182 0.75   1.723441
 Ba 0.25 0.02818 0.25   1.723441
 Ba 0.25 0.52818 0.25   1.723442
 Ba 0.75 0.97182 0.75   1.723442
 Zn 0.0 0.0 0.5   1.160891
 Zn 0.5 0.0 0.0   1.160891
 Zn 0.5 0.5 0.5   1.160891
 Zn 0.0 0.5 0.0   1.160891
 H 0.436 0.8357 0.5705   0.201098
 H 0.644 0.897 0.5845   0.147673
 H 0.064 0.8357 0.9295   0.201098
 H 0.856 0.897 0.9155   0.147673
 H 0.936 0.6643 0.4295   0.201098
 H 0.144 0.603 0.4155   0.147673
 H 0.564 0.6643 0.0705   0.201098
 H 0.356 0.603 0.0845   0.147673
 H 0.564 0.1643 0.4295   0.201098
 H 0.356 0.103 0.4155   0.147673
 H 0.936 0.1643 0.0705   0.201098
 H 0.144 0.103 0.0845   0.147673
 H 0.064 0.3357 0.5705   0.201098
 H 0.856 0.397 0.5845   0.147673
 H 0.436 0.3357 0.9295   0.201098
 H 0.644 0.397 0.9155   0.147673
 C 0.6224 0.8007 0.48937   0.801978
 C 0.5744 0.8147 0.56678   -0.603131
 C 0.6175 0.6921 0.61561   0.866753
 C 0.8776 0.8007 0.01063   0.801978
 C 0.9256 0.8147 0.93322   -0.603131
 C 0.8825 0.6921 0.88439   0.866753
 C 0.1224 0.6993 0.51063   0.801978
 C 0.0744 0.6853 0.43322   -0.603131
 C 0.1175 0.8079 0.38439   0.866753
 C 0.3776 0.6993 0.98937   0.801978
 C 0.4256 0.6853 0.06678   -0.603131
 C 0.3825 0.8079 0.11561   0.866753
 C 0.3776 0.1993 0.51063   0.801978
 C 0.4256 0.1853 0.43322   -0.603131
 C 0.3825 0.3079 0.38439   0.866753
 C 0.1224 0.1993 0.98937   0.801978
 C 0.0744 0.1853 0.06678   -0.603131
 C 0.1175 0.3079 0.11561   0.866753
 C 0.8776 0.3007 0.48937   0.801978
 C 0.9256 0.3147 0.56678   -0.603131
 C 0.8825 0.1921 0.61561   0.866753
 C 0.6224 0.3007 0.01063   0.801978
 C 0.5744 0.3147 0.93322   -0.603131
 C 0.6175 0.1921 0.88439   0.866753
 O 0.7092 0.9015 0.45989   -0.644215
 O 0.5658 0.6908 0.45563   -0.674407
 O 0.6138 0.5644 0.59384   -0.690668
 O 0.6546 0.7226 0.67803   -0.847248
 O 0.7908 0.9015 0.04011   -0.644215
 O 0.9342 0.6908 0.04437   -0.674407
 O 0.8862 0.5644 0.90616   -0.690668
 O 0.8454 0.7226 0.82197   -0.847248
 O 0.2092 0.5985 0.54011   -0.644215
 O 0.0658 0.8092 0.54437   -0.674407
 O 0.1138 0.9356 0.40616   -0.690668
 O 0.1546 0.7774 0.32197   -0.847248
 O 0.2908 0.5985 0.95989   -0.644215
 O 0.4342 0.8092 0.95563   -0.674407
 O 0.3862 0.9356 0.09384   -0.690668
 O 0.3454 0.7774 0.17803   -0.847248
 O 0.2908 0.0985 0.54011   -0.644215
 O 0.4342 0.3092 0.54437   -0.674407
 O 0.3862 0.4356 0.40616   -0.690668
 O 0.3454 0.2774 0.32197   -0.847248
 O 0.2092 0.0985 0.95989   -0.644215
 O 0.0658 0.3092 0.95563   -0.674407
 O 0.1138 0.4356 0.09384   -0.690668
 O 0.1546 0.2774 0.17803   -0.847248
 O 0.7908 0.4015 0.45989   -0.644215
 O 0.9342 0.1908 0.45563   -0.674407
 O 0.8862 0.0644 0.59384   -0.690668
 O 0.8454 0.2226 0.67803   -0.847248
 O 0.7092 0.4015 0.04011   -0.644215
 O 0.5658 0.1908 0.04437   -0.674407
 O 0.6138 0.0644 0.90616   -0.690668
 O 0.6546 0.2226 0.82197   -0.847248
