{'_ref': 'TBD', '_srcid': 'CAKYAQ_clean', 'submitters': [{'name': 'Dalar Nazarian Jeff Camp and David Sholl', 'email': 'dalar@gatech.edu jcamp6@gatech.edu'}], '_method': 'VASP DFT with PBE;DDEC'}
data_ZnH10(C2N)4
_symmetry_space_group_name_H-M   'P 1'
_cell_length_a   14.73280009
_cell_length_b   14.73280051
_cell_length_c   14.73280000
_cell_angle_alpha   109.47099993
_cell_angle_beta   109.47100052
_cell_angle_gamma   109.47100071
_symmetry_Int_Tables_number   1
_chemical_formula_structural   ZnH10(C2N)4
_chemical_formula_sum   'Zn6 H60 C48 N24'
_cell_volume   2461.71373236
_cell_formula_units_Z   6
loop_
 _symmetry_equiv_pos_site_id
 _symmetry_equiv_pos_as_xyz
  1  'x, y, z'
loop_
 _atom_site_label
 _atom_site_fract_x
 _atom_site_fract_y
 _atom_site_fract_z
 _atom_site_charge
 Zn 0.75 0.25 0.5   0.763913
 Zn 0.25 0.75 0.5   0.752332
 Zn 0.5 0.75 0.25   0.752176
 Zn 0.5 0.25 0.75   0.764135
 Zn 0.25 0.5 0.75   0.750715
 Zn 0.75 0.5 0.25   0.750711
 H 0.89702 0.42689 0.77938   0.104306
 H 0.64751 0.11764 0.22062   0.101681
 H 0.35249 0.57311 0.47013   0.104378
 H 0.10298 0.88236 0.52987   0.10383
 H 0.77938 0.89702 0.42689   0.10437
 H 0.22062 0.64751 0.11764   0.105237
 H 0.47013 0.35249 0.57311   0.105716
 H 0.52987 0.10298 0.88236   0.101054
 H 0.42689 0.77938 0.89702   0.102833
 H 0.11764 0.22062 0.64751   0.105224
 H 0.57311 0.47013 0.35249   0.105994
 H 0.88236 0.52987 0.10298   0.103376
 H 0.42689 0.89702 0.77938   0.101583
 H 0.11764 0.64751 0.22062   0.10565
 H 0.57311 0.35249 0.47013   0.105293
 H 0.88236 0.10298 0.52987   0.103811
 H 0.89702 0.77938 0.42689   0.105211
 H 0.64751 0.22062 0.11764   0.102839
 H 0.35249 0.47013 0.57311   0.103488
 H 0.10298 0.52987 0.88236   0.105861
 H 0.77938 0.42689 0.89702   0.104595
 H 0.22062 0.11764 0.64751   0.102337
 H 0.47013 0.57311 0.35249   0.104089
 H 0.52987 0.88236 0.10298   0.103203
 H 0.55724 0.47162 0.80108   0.143236
 H 0.51832 0.53901 0.90142   0.141828
 H 0.47743 0.54236 0.76911   0.139648
 H 0.92398 0.23226 0.45027   0.141433
 H 0.07867 0.31311 0.52703   0.142507
 H 0.99736 0.37325 0.46971   0.14345
 H 0.90306 0.52379 0.53401   0.146709
 H 0.77638 0.47504 0.5468   0.141306
 H 0.79217 0.55415 0.47217   0.143166
 H 0.24638 0.77518 0.73297   0.133433
 H 0.17362 0.64698 0.73629   0.144091
 H 0.10839 0.65921 0.61212   0.145158
 H 0.97931 0.46099 0.3624   0.141529
 H 0.08562 0.52838 0.32946   0.143206
 H 0.93507 0.45764 0.22676   0.139292
 H 0.51447 0.04467 0.26931   0.13332
 H 0.49488 0.04467 0.38778   0.144068
 H 0.43766 0.91065 0.26153   0.144384
 H 0.54811 0.7788 0.47442   0.140832
 H 0.47248 0.78947 0.55308   0.142251
 H 0.5324 0.90334 0.52549   0.144225
 H 0.68301 0.21053 0.76361   0.143032
 H 0.76931 0.2212 0.69562   0.141733
 H 0.62905 0.09666 0.62215   0.141097
 H 0.38778 0.04467 0.49488   0.144656
 H 0.26931 0.04467 0.51447   0.132526
 H 0.26153 0.91065 0.43766   0.143986
 H 0.30134 0.52496 0.07176   0.14111
 H 0.37927 0.47621 0.01022   0.146382
 H 0.23802 0.44585 0.91802   0.142768
 H 0.76556 0.68689 0.21392   0.142723
 H 0.69172 0.76774 0.21801   0.141774
 H 0.6241 0.62675 0.09645   0.143359
 H 0.52663 0.35302 0.0893   0.144067
 H 0.4712 0.22482 0.95779   0.133279
 H 0.44918 0.34079 0.95291   0.145097
 C 0.9444 0.415 0.7332   -0.061504
 C 0.6818 0.2112 0.2668   -0.064855
 C 0.3182 0.585 0.5294   -0.061752
 C 0.0556 0.7888 0.4706   -0.05697
 C 0.7332 0.9444 0.415   -0.066891
 C 0.2668 0.6818 0.2112   -0.065883
 C 0.5294 0.3182 0.585   -0.06025
 C 0.4706 0.0556 0.7888   -0.059427
 C 0.415 0.7332 0.9444   -0.06031
 C 0.2112 0.2668 0.6818   -0.064637
 C 0.585 0.5294 0.3182   -0.065767
 C 0.7888 0.4706 0.0556   -0.067022
 C 0.415 0.9444 0.7332   -0.065482
 C 0.2112 0.6818 0.2668   -0.06203
 C 0.585 0.3182 0.5294   -0.063929
 C 0.7888 0.0556 0.4706   -0.060668
 C 0.9444 0.7332 0.415   -0.067419
 C 0.6818 0.2668 0.2112   -0.057373
 C 0.3182 0.5294 0.585   -0.067057
 C 0.0556 0.4706 0.7888   -0.065601
 C 0.7332 0.415 0.9444   -0.060817
 C 0.2668 0.2112 0.6818   -0.061134
 C 0.5294 0.585 0.3182   -0.062295
 C 0.4706 0.7888 0.0556   -0.06054
 C 0.0 0.36875 0.61465   0.457366
 C 0.7541 0.38535 0.38535   0.451265
 C 0.2459 0.63125 0.63125   0.458454
 C 0.0 0.61465 0.36875   0.451376
 C 0.61465 0.0 0.36875   0.454394
 C 0.38535 0.7541 0.38535   0.461888
 C 0.63125 0.2459 0.63125   0.44919
 C 0.36875 0.0 0.61465   0.455608
 C 0.36875 0.61465 0.0   0.450406
 C 0.38535 0.38535 0.7541   0.452137
 C 0.63125 0.63125 0.2459   0.456787
 C 0.61465 0.36875 0.0   0.459067
 C 0.0 0.319 0.5094   -0.480916
 C 0.8096 0.4906 0.4906   -0.48483
 C 0.1904 0.681 0.681   -0.479151
 C 0.0 0.5094 0.319   -0.478449
 C 0.5094 0.0 0.319   -0.47612
 C 0.4906 0.8096 0.4906   -0.480032
 C 0.681 0.1904 0.681   -0.479615
 C 0.319 0.0 0.5094   -0.475921
 C 0.319 0.5094 0.0   -0.484157
 C 0.4906 0.4906 0.8096   -0.478874
 C 0.681 0.681 0.1904   -0.480788
 C 0.5094 0.319 0.0   -0.479513
 N 0.90717 0.3489 0.62133   -0.431403
 N 0.72757 0.28584 0.37867   -0.428214
 N 0.27243 0.6511 0.55827   -0.431489
 N 0.09283 0.71416 0.44173   -0.43208
 N 0.62133 0.90717 0.3489   -0.428409
 N 0.37867 0.72757 0.28584   -0.431491
 N 0.55827 0.27243 0.6511   -0.435374
 N 0.44173 0.09283 0.71416   -0.429936
 N 0.3489 0.62133 0.90717   -0.428603
 N 0.28584 0.37867 0.72757   -0.427822
 N 0.6511 0.55827 0.27243   -0.432538
 N 0.71416 0.44173 0.09283   -0.426263
 N 0.3489 0.90717 0.62133   -0.425028
 N 0.28584 0.72757 0.37867   -0.433011
 N 0.6511 0.27243 0.55827   -0.433678
 N 0.71416 0.09283 0.44173   -0.432949
 N 0.90717 0.62133 0.3489   -0.427752
 N 0.72757 0.37867 0.28584   -0.428695
 N 0.27243 0.55827 0.6511   -0.426158
 N 0.09283 0.44173 0.71416   -0.432668
 N 0.62133 0.3489 0.90717   -0.435452
 N 0.37867 0.28584 0.72757   -0.431343
 N 0.55827 0.6511 0.27243   -0.427415
 N 0.44173 0.71416 0.09283   -0.428797
