{'_ref': 'TBD', '_srcid': 'CAKYAQ_clean', 'submitters': [{'name': 'Dalar Nazarian Jeff Camp and David Sholl', 'email': 'dalar@gatech.edu jcamp6@gatech.edu'}], '_method': 'VASP DFT with PBE;DDEC'}
data_ZnH6C7O4
_symmetry_space_group_name_H-M   'P 1'
_cell_length_a   10.16100000
_cell_length_b   13.01899974
_cell_length_c   18.70500000
_cell_angle_alpha   90.00000000
_cell_angle_beta   90.00000000
_cell_angle_gamma   98.66999995
_symmetry_Int_Tables_number   1
_chemical_formula_structural   ZnH6C7O4
_chemical_formula_sum   'Zn8 H48 C56 O32'
_cell_volume   2446.13547356
_cell_formula_units_Z   8
loop_
 _symmetry_equiv_pos_site_id
 _symmetry_equiv_pos_as_xyz
  1  'x, y, z'
loop_
 _atom_site_label
 _atom_site_fract_x
 _atom_site_fract_y
 _atom_site_fract_z
 _atom_site_charge
 Zn 0.81972 0.1451 0.63882   1.011088
 Zn 0.64719 0.32664 0.57585   1.136227
 Zn 0.68028 0.3549 0.13882   1.011088
 Zn 0.85281 0.17336 0.07585   1.136227
 Zn 0.18028 0.8549 0.36118   1.011088
 Zn 0.35281 0.67336 0.42415   1.136226
 Zn 0.31972 0.6451 0.86118   1.011088
 Zn 0.14719 0.82664 0.92415   1.136226
 H 0.2883 0.1379 0.6876   0.103437
 H 0.2819 0.1366 0.602   0.100383
 H 0.1573 0.9929 0.7587   0.093501
 H 0.0681 0.8987 0.7179   0.100629
 H 0.1792 0.7673 0.6495   0.101872
 H 0.3385 0.7798 0.6458   0.109393
 H 0.3905 0.0051 0.5319   0.100104
 H 0.4668 0.9242 0.5739   0.102436
 H 0.4785 0.9288 0.709   0.10885
 H 0.4086 0.0114 0.753   0.10145
 H 0.0572 0.8948 0.584   0.107794
 H 0.1389 0.9869 0.5377   0.112477
 H 0.2117 0.3621 0.1876   0.103437
 H 0.2181 0.3634 0.102   0.100383
 H 0.3427 0.5071 0.2587   0.093501
 H 0.4319 0.6013 0.2179   0.100629
 H 0.3208 0.7327 0.1495   0.101872
 H 0.1615 0.7202 0.1458   0.109393
 H 0.1095 0.4949 0.0319   0.100104
 H 0.0332 0.5758 0.0739   0.102436
 H 0.0215 0.5712 0.209   0.10885
 H 0.0914 0.4886 0.253   0.10145
 H 0.4428 0.6052 0.084   0.107794
 H 0.3611 0.5131 0.0377   0.112477
 H 0.7117 0.8621 0.3124   0.103438
 H 0.7181 0.8634 0.398   0.100383
 H 0.8427 0.0071 0.2413   0.093501
 H 0.9319 0.1013 0.2821   0.100629
 H 0.8208 0.2327 0.3505   0.101872
 H 0.6615 0.2202 0.3542   0.109393
 H 0.6095 0.9949 0.4681   0.100104
 H 0.5332 0.0758 0.4261   0.102435
 H 0.5215 0.0712 0.291   0.10885
 H 0.5914 0.9886 0.247   0.10145
 H 0.9428 0.1052 0.416   0.107794
 H 0.8611 0.0131 0.4623   0.112477
 H 0.7883 0.6379 0.8124   0.103438
 H 0.7819 0.6366 0.898   0.100383
 H 0.6573 0.4929 0.7413   0.093501
 H 0.5681 0.3987 0.7821   0.100629
 H 0.6792 0.2673 0.8505   0.101872
 H 0.8385 0.2798 0.8542   0.109393
 H 0.8905 0.5051 0.9681   0.100104
 H 0.9668 0.4242 0.9261   0.102435
 H 0.9785 0.4288 0.791   0.10885
 H 0.9086 0.5114 0.747   0.10145
 H 0.5572 0.3948 0.916   0.107794
 H 0.6389 0.4869 0.9623   0.112477
 C 0.5328 0.1073 0.6364   0.696897
 C 0.032 0.074 0.648   0.625049
 C 0.2767 0.8256 0.782   0.716137
 C 0.2592 0.8161 0.5136   0.690591
 C 0.402 0.0346 0.6426   0.009992
 C 0.1527 0.0161 0.648   0.032417
 C 0.2716 0.8887 0.7134   0.00998
 C 0.2608 0.8857 0.5795   0.022978
 C 0.2819 0.0923 0.645   -0.224297
 C 0.152 0.9484 0.7156   -0.218075
 C 0.2617 0.8184 0.6473   -0.214495
 C 0.3898 0.9626 0.5758   -0.208857
 C 0.4011 0.9667 0.71   -0.197255
 C 0.1409 0.9447 0.5816   -0.218859
 C 0.9672 0.3927 0.1364   0.696897
 C 0.468 0.426 0.148   0.625049
 C 0.2233 0.6744 0.282   0.716137
 C 0.2408 0.6839 0.0136   0.690591
 C 0.098 0.4654 0.1426   0.009992
 C 0.3473 0.4839 0.148   0.032417
 C 0.2284 0.6113 0.2134   0.00998
 C 0.2392 0.6143 0.0795   0.022978
 C 0.2181 0.4077 0.145   -0.224297
 C 0.348 0.5516 0.2156   -0.218075
 C 0.2383 0.6816 0.1473   -0.214495
 C 0.1102 0.5374 0.0758   -0.208857
 C 0.0989 0.5333 0.21   -0.197255
 C 0.3591 0.5553 0.0816   -0.218859
 C 0.4672 0.8927 0.3636   0.696897
 C 0.968 0.926 0.352   0.625049
 C 0.7233 0.1744 0.218   0.716137
 C 0.7408 0.1839 0.4864   0.690591
 C 0.598 0.9654 0.3574   0.009992
 C 0.8473 0.9839 0.352   0.032417
 C 0.7284 0.1113 0.2866   0.00998
 C 0.7392 0.1143 0.4205   0.022978
 C 0.7181 0.9077 0.355   -0.224298
 C 0.848 0.0516 0.2844   -0.218076
 C 0.7383 0.1816 0.3527   -0.214495
 C 0.6102 0.0374 0.4242   -0.208857
 C 0.5989 0.0333 0.29   -0.197255
 C 0.8591 0.0553 0.4184   -0.218859
 C 0.0328 0.6073 0.8636   0.696897
 C 0.532 0.574 0.852   0.625049
 C 0.7767 0.3256 0.718   0.716137
 C 0.7592 0.3161 0.9864   0.690591
 C 0.902 0.5346 0.8574   0.009992
 C 0.6527 0.5161 0.852   0.032417
 C 0.7716 0.3887 0.7866   0.00998
 C 0.7608 0.3857 0.9205   0.022978
 C 0.7819 0.5923 0.855   -0.224298
 C 0.652 0.4484 0.7844   -0.218076
 C 0.7617 0.3184 0.8527   -0.214495
 C 0.8898 0.4626 0.9242   -0.208857
 C 0.9011 0.4667 0.79   -0.197255
 C 0.6409 0.4447 0.9184   -0.218859
 O 0.6371 0.0653 0.6389   -0.586643
 O 0.5317 0.2028 0.6285   -0.6677
 O 0.3078 0.7365 0.7786   -0.5492
 O 0.2569 0.8707 0.84   -0.685726
 O 0.0467 0.1702 0.6367   -0.597659
 O 0.919 0.0238 0.6575   -0.599215
 O 0.1752 0.821 0.465   -0.613273
 O 0.3484 0.7585 0.5102   -0.612427
 O 0.8629 0.4347 0.1389   -0.586643
 O 0.9683 0.2972 0.1285   -0.6677
 O 0.1922 0.7635 0.2786   -0.5492
 O 0.2431 0.6293 0.34   -0.685726
 O 0.4533 0.3298 0.1367   -0.597659
 O 0.581 0.4762 0.1575   -0.599215
 O 0.3248 0.679 0.965   -0.613273
 O 0.1516 0.7415 0.0102   -0.612427
 O 0.3629 0.9347 0.3611   -0.586643
 O 0.4683 0.7972 0.3715   -0.6677
 O 0.6922 0.2635 0.2214   -0.5492
 O 0.7431 0.1293 0.16   -0.685726
 O 0.9533 0.8298 0.3633   -0.597659
 O 0.081 0.9762 0.3425   -0.599215
 O 0.8248 0.179 0.535   -0.613273
 O 0.6516 0.2415 0.4898   -0.612427
 O 0.1371 0.5653 0.8611   -0.586643
 O 0.0317 0.7028 0.8715   -0.6677
 O 0.8078 0.2365 0.7214   -0.5492
 O 0.7569 0.3707 0.66   -0.685726
 O 0.5467 0.6702 0.8633   -0.597659
 O 0.419 0.5238 0.8425   -0.599215
 O 0.6752 0.321 0.035   -0.613273
 O 0.8484 0.2585 0.9898   -0.612427
