{'_ref': 'TBD', '_srcid': 'CAKYAQ_clean', 'submitters': [{'name': 'Dalar Nazarian Jeff Camp and David Sholl', 'email': 'dalar@gatech.edu jcamp6@gatech.edu'}], '_method': 'VASP DFT with PBE;DDEC'}
data_Mn5NiH20C52N4(ClO9)2
_symmetry_space_group_name_H-M   'P 1'
_cell_length_a   18.77720041
_cell_length_b   18.77719992
_cell_length_c   19.74400000
_cell_angle_alpha   112.88100064
_cell_angle_beta   112.88100001
_cell_angle_gamma   100.50499993
_symmetry_Int_Tables_number   1
_chemical_formula_structural   Mn5NiH20C52N4(ClO9)2
_chemical_formula_sum   'Mn10 Ni2 H40 C104 N8 Cl4 O36'
_cell_volume   5433.78799454
_cell_formula_units_Z   2
loop_
 _symmetry_equiv_pos_site_id
 _symmetry_equiv_pos_as_xyz
  1  'x, y, z'
loop_
 _atom_site_label
 _atom_site_fract_x
 _atom_site_fract_y
 _atom_site_fract_z
 _atom_site_charge
 Mn 0.31527 0.31527 0.30246   1.132584
 Mn 0.98719 0.98719 0.30246   1.140297
 Mn 0.68473 0.68473 0.69754   1.132584
 Mn 0.01281 0.01281 0.69754   1.140297
 Mn 0.5 0.5 0.5   1.328941
 Mn 0.0 0.0 0.5   1.145497
 Mn 0.03029 0.58589 0.0   1.118267
 Mn 0.96971 0.41411 0.0   1.118249
 Mn 0.41411 0.96971 0.0   1.118269
 Mn 0.58589 0.03029 0.0   1.11825
 Ni 0.5 0.0 0.5   0.500614
 Ni 0.0 0.5 0.5   0.500614
 H 0.2941 0.7381 0.4414   0.126673
 H 0.4467 0.7191 0.2654   0.131324
 H 0.4264 0.6634 0.4098   0.117231
 H 0.2259 0.4647 0.2048   0.101543
 H 0.2602 0.6904 0.2318   0.11794
 H 0.1473 0.7033 0.4414   0.126351
 H 0.8187 0.5463 0.2654   0.130557
 H 0.9834 0.7464 0.4098   0.119253
 H 0.9789 0.7401 0.2048   0.101582
 H 0.9716 0.5414 0.2318   0.118504
 H 0.2619 0.7059 0.5586   0.126664
 H 0.2809 0.5533 0.7346   0.131325
 H 0.3366 0.5736 0.5902   0.11723
 H 0.5353 0.7741 0.7952   0.101543
 H 0.3096 0.7398 0.7682   0.11794
 H 0.2967 0.8527 0.5586   0.126341
 H 0.4537 0.1813 0.7346   0.130558
 H 0.2536 0.0166 0.5902   0.119253
 H 0.2599 0.0211 0.7952   0.101583
 H 0.4586 0.0284 0.7682   0.118504
 H 0.7059 0.2619 0.5586   0.126673
 H 0.5533 0.2809 0.7346   0.13144
 H 0.5736 0.3366 0.5902   0.117231
 H 0.7741 0.5353 0.7952   0.10156
 H 0.7398 0.3096 0.7682   0.11794
 H 0.8527 0.2967 0.5586   0.126351
 H 0.1813 0.4537 0.7346   0.130673
 H 0.0166 0.2536 0.5902   0.119253
 H 0.0211 0.2599 0.7952   0.101599
 H 0.0284 0.4586 0.7682   0.118505
 H 0.7381 0.2941 0.4414   0.126664
 H 0.7191 0.4467 0.2654   0.13144
 H 0.6634 0.4264 0.4098   0.117231
 H 0.4647 0.2259 0.2048   0.101561
 H 0.6904 0.2602 0.2318   0.11794
 H 0.7033 0.1473 0.4414   0.126341
 H 0.5463 0.8187 0.2654   0.130673
 H 0.7464 0.9834 0.4098   0.119253
 H 0.7401 0.9789 0.2048   0.101599
 H 0.5414 0.9716 0.2318   0.118505
 C 0.3259 0.7951 0.468   -0.169386
 C 0.3826 0.8324 0.4484   0.204452
 C 0.39753 0.78633 0.38406   -0.109162
 C 0.4514 0.8236 0.3672   0.21396
 C 0.4697 0.7771 0.301   -0.155913
 C 0.349 0.6928 0.332   0.050452
 C 0.3761 0.6409 0.359   -0.061083
 C 0.329 0.554 0.3112   -0.162011
 C 0.2574 0.5224 0.2366   0.009803
 C 0.2292 0.5722 0.2062   -0.131847
 C 0.27674 0.65634 0.25328   -0.058626
 C 0.1463 0.5353 0.1238   0.692469
 C 0.3612 0.4992 0.3428   0.760549
 C 0.1421 0.6729 0.468   -0.169364
 C 0.0658 0.616 0.4484   0.204651
 C 0.98653 0.59773 0.38406   -0.109935
 C 0.9158 0.5436 0.3672   0.214537
 C 0.8313 0.5239 0.301   -0.155918
 C 0.983 0.6392 0.332   0.052994
 C 0.9829 0.7181 0.359   -0.065596
 C 0.9822 0.7572 0.3112   -0.159396
 C 0.9792 0.7142 0.2366   0.010028
 C 0.977 0.634 0.2062   -0.129939
 C 0.97654 0.59694 0.25328   -0.059425
 C 0.9775 0.5885 0.1238   0.692304
 C 0.9816 0.8436 0.3428   0.747726
 C 0.2049 0.6741 0.532   -0.16933
 C 0.1676 0.6174 0.5516   0.20444
 C 0.21367 0.60247 0.61594   -0.109161
 C 0.1764 0.5486 0.6328   0.21396
 C 0.2229 0.5303 0.699   -0.155913
 C 0.3072 0.651 0.668   0.050451
 C 0.3591 0.6239 0.641   -0.061083
 C 0.446 0.671 0.6888   -0.162013
 C 0.4776 0.7426 0.7634   0.009803
 C 0.4278 0.7708 0.7938   -0.131847
 C 0.34366 0.72326 0.74672   -0.058626
 C 0.4647 0.8537 0.8762   0.692469
 C 0.5008 0.6388 0.6572   0.760549
 C 0.3271 0.8579 0.532   -0.16931
 C 0.384 0.9342 0.5516   0.20464
 C 0.40227 0.01347 0.61594   -0.109934
 C 0.4564 0.0842 0.6328   0.214537
 C 0.4761 0.1687 0.699   -0.155918
 C 0.3608 0.017 0.668   0.052993
 C 0.2819 0.0171 0.641   -0.065596
 C 0.2428 0.0178 0.6888   -0.1594
 C 0.2858 0.0208 0.7634   0.010029
 C 0.366 0.023 0.7938   -0.129939
 C 0.40306 0.02346 0.74672   -0.059425
 C 0.4115 0.0225 0.8762   0.692304
 C 0.1564 0.0184 0.6572   0.747726
 C 0.6741 0.2049 0.532   -0.169386
 C 0.6174 0.1676 0.5516   0.204451
 C 0.60247 0.21367 0.61594   -0.109163
 C 0.5486 0.1764 0.6328   0.213968
 C 0.5303 0.2229 0.699   -0.156017
 C 0.651 0.3072 0.668   0.050453
 C 0.6239 0.3591 0.641   -0.061084
 C 0.671 0.446 0.6888   -0.16201
 C 0.7426 0.4776 0.7634   0.009808
 C 0.7708 0.4278 0.7938   -0.131847
 C 0.72326 0.34366 0.74672   -0.058626
 C 0.8537 0.4647 0.8762   0.692477
 C 0.6388 0.5008 0.6572   0.760554
 C 0.8579 0.3271 0.532   -0.169364
 C 0.9342 0.384 0.5516   0.204651
 C 0.01347 0.40227 0.61594   -0.109936
 C 0.0842 0.4564 0.6328   0.214545
 C 0.1687 0.4761 0.699   -0.156022
 C 0.017 0.3608 0.668   0.052995
 C 0.0171 0.2819 0.641   -0.065596
 C 0.0178 0.2428 0.6888   -0.159396
 C 0.0208 0.2858 0.7634   0.010034
 C 0.023 0.366 0.7938   -0.12994
 C 0.02346 0.40306 0.74672   -0.059425
 C 0.0225 0.4115 0.8762   0.692313
 C 0.0184 0.1564 0.6572   0.747731
 C 0.7951 0.3259 0.468   -0.16933
 C 0.8324 0.3826 0.4484   0.20444
 C 0.78633 0.39753 0.38406   -0.109162
 C 0.8236 0.4514 0.3672   0.213969
 C 0.7771 0.4697 0.301   -0.156017
 C 0.6928 0.349 0.332   0.050452
 C 0.6409 0.3761 0.359   -0.061084
 C 0.554 0.329 0.3112   -0.162013
 C 0.5224 0.2574 0.2366   0.009808
 C 0.5722 0.2292 0.2062   -0.131847
 C 0.65634 0.27674 0.25328   -0.058626
 C 0.5353 0.1463 0.1238   0.692477
 C 0.4992 0.3612 0.3428   0.760554
 C 0.6729 0.1421 0.468   -0.169309
 C 0.616 0.0658 0.4484   0.20464
 C 0.59773 0.98653 0.38406   -0.109935
 C 0.5436 0.9158 0.3672   0.214545
 C 0.5239 0.8313 0.301   -0.156022
 C 0.6392 0.983 0.332   0.052994
 C 0.7181 0.9829 0.359   -0.065596
 C 0.7572 0.9822 0.3112   -0.1594
 C 0.7142 0.9792 0.2366   0.010034
 C 0.634 0.977 0.2062   -0.12994
 C 0.59694 0.97654 0.25328   -0.059425
 C 0.5885 0.9775 0.1238   0.692313
 C 0.8436 0.9816 0.3428   0.747731
 N 0.419 0.919 0.5   -0.344159
 N 0.081 0.581 0.5   -0.344159
 N 0.581 0.081 0.5   -0.344159
 N 0.919 0.419 0.5   -0.344159
 N 0.4984 0.9062 0.4046   -0.325023
 N 0.9062 0.4984 0.4046   -0.325023
 N 0.0938 0.5016 0.5954   -0.325023
 N 0.5016 0.0938 0.5954   -0.325023
 Cl 0.08857 0.70677 0.0   -0.504579
 Cl 0.91143 0.29323 0.0   -0.504578
 Cl 0.29323 0.91143 0.0   -0.504618
 Cl 0.70677 0.08857 0.0   -0.504617
 O 0.13303 0.58323 0.09506   -0.572966
 O 0.09654 0.46334 0.09328   -0.537879
 O 0.3173 0.4239 0.2966   -0.642385
 O 0.42714 0.53342 0.41236   -0.579271
 O 0.96203 0.51183 0.09506   -0.57353
 O 0.99674 0.62994 0.09328   -0.537423
 O 0.9793 0.8727 0.2966   -0.638197
 O 0.98522 0.87894 0.41236   -0.522283
 O 0.41677 0.86697 0.90494   -0.572966
 O 0.53666 0.90346 0.90672   -0.53788
 O 0.5761 0.6827 0.7034   -0.642385
 O 0.46658 0.57286 0.58764   -0.579271
 O 0.48817 0.03797 0.90494   -0.57353
 O 0.37006 0.00326 0.90672   -0.537423
 O 0.1273 0.0207 0.7034   -0.638197
 O 0.12106 0.01478 0.58764   -0.522283
 O 0.86697 0.41677 0.90494   -0.572965
 O 0.90346 0.53666 0.90672   -0.537882
 O 0.6827 0.5761 0.7034   -0.642386
 O 0.57286 0.46658 0.58764   -0.579272
 O 0.03797 0.48817 0.90494   -0.573532
 O 0.00326 0.37006 0.90672   -0.537423
 O 0.0207 0.1273 0.7034   -0.638198
 O 0.01478 0.12106 0.58764   -0.522284
 O 0.58323 0.13303 0.09506   -0.572966
 O 0.46334 0.09654 0.09328   -0.537883
 O 0.4239 0.3173 0.2966   -0.642386
 O 0.53342 0.42714 0.41236   -0.579272
 O 0.51183 0.96203 0.09506   -0.573532
 O 0.62994 0.99674 0.09328   -0.537423
 O 0.8727 0.9793 0.2966   -0.638198
 O 0.87894 0.98522 0.41236   -0.522284
 O 0.3827 0.3827 0.4474   -0.686921
 O 0.0647 0.0647 0.4474   -0.69961
 O 0.6173 0.6173 0.5526   -0.686921
 O 0.9353 0.9353 0.5526   -0.69961
