{'_ref': 'TBD', '_srcid': 'CAKYAQ_clean', 'submitters': [{'name': 'Dalar Nazarian Jeff Camp and David Sholl', 'email': 'dalar@gatech.edu jcamp6@gatech.edu'}], '_method': 'VASP DFT with PBE;DDEC'}
data_CuH7C5NO4
_symmetry_space_group_name_H-M   'P 1'
_cell_length_a   7.22140000
_cell_length_b   10.29500000
_cell_length_c   11.04100000
_cell_angle_alpha   90.00000000
_cell_angle_beta   90.00000000
_cell_angle_gamma   90.00000000
_symmetry_Int_Tables_number   1
_chemical_formula_structural   CuH7C5NO4
_chemical_formula_sum   'Cu4 H28 C20 N4 O16'
_cell_volume   820.835559833
_cell_formula_units_Z   4
loop_
 _symmetry_equiv_pos_site_id
 _symmetry_equiv_pos_as_xyz
  1  'x, y, z'
loop_
 _atom_site_label
 _atom_site_fract_x
 _atom_site_fract_y
 _atom_site_fract_z
 _atom_site_charge
 Cu 0.3994 0.93303 0.02927   0.833818
 Cu 0.1006 0.06697 0.52927   0.833818
 Cu 0.6006 0.43303 0.47073   0.833818
 Cu 0.8994 0.56697 0.97073   0.833818
 H 0.3302 0.7152 0.7708   0.111065
 H 0.3201 0.9645 0.813   0.334666
 H 0.1832 0.8641 0.8674   0.3419
 H 0.5059 0.8837 0.6427   0.090354
 H 0.6115 0.7654 0.6735   0.095859
 H 0.6661 0.9777 0.8108   0.118075
 H 0.7707 0.847 0.8133   0.116141
 H 0.1698 0.2848 0.2708   0.111065
 H 0.1799 0.0355 0.313   0.334666
 H 0.3168 0.1359 0.3674   0.3419
 H 0.9941 0.1163 0.1427   0.090354
 H 0.8885 0.2346 0.1735   0.095859
 H 0.8339 0.0223 0.3108   0.118075
 H 0.7293 0.153 0.3133   0.116141
 H 0.6698 0.2152 0.7292   0.111065
 H 0.6799 0.4645 0.687   0.334669
 H 0.8168 0.3641 0.6326   0.3419
 H 0.4941 0.3837 0.8573   0.090354
 H 0.3885 0.2654 0.8265   0.095863
 H 0.3339 0.4777 0.6892   0.118076
 H 0.2293 0.347 0.6867   0.116141
 H 0.8302 0.7848 0.2292   0.111065
 H 0.8201 0.5355 0.187   0.334669
 H 0.6832 0.6359 0.1326   0.3419
 H 0.0059 0.6163 0.3573   0.090354
 H 0.1115 0.7346 0.3265   0.095863
 H 0.1661 0.5223 0.1892   0.118076
 H 0.2707 0.653 0.1867   0.116141
 C 0.528 0.7163 0.9101   0.624704
 C 0.4211 0.7834 0.8101   0.049365
 C 0.5495 0.8322 0.712   -0.157038
 C 0.708 0.9182 0.7562   -0.320311
 C 0.827 0.9676 0.6541   0.693594
 C 0.972 0.2837 0.4101   0.624704
 C 0.0789 0.2166 0.3101   0.049365
 C 0.9505 0.1678 0.212   -0.157038
 C 0.792 0.0818 0.2562   -0.320311
 C 0.673 0.0324 0.1541   0.693594
 C 0.472 0.2163 0.5899   0.624704
 C 0.5789 0.2834 0.6899   0.049366
 C 0.4505 0.3322 0.788   -0.15704
 C 0.292 0.4182 0.7438   -0.320311
 C 0.173 0.4676 0.8459   0.693594
 C 0.028 0.7837 0.0899   0.624705
 C 0.9211 0.7166 0.1899   0.049366
 C 0.0495 0.6678 0.288   -0.15704
 C 0.208 0.5818 0.2438   -0.320311
 C 0.327 0.5324 0.3459   0.693595
 N 0.3086 0.8909 0.8629   -0.672525
 N 0.1914 0.1091 0.3629   -0.672525
 N 0.6914 0.3909 0.6371   -0.672527
 N 0.8086 0.6091 0.1371   -0.672527
 O 0.5186 0.7627 0.0169   -0.543617
 O 0.6246 0.6203 0.8814   -0.569503
 O 0.9751 0.0291 0.6844   -0.575254
 O 0.7851 0.9499 0.547   -0.571292
 O 0.9814 0.2373 0.5169   -0.543618
 O 0.8754 0.3797 0.3814   -0.569503
 O 0.5249 0.9709 0.1844   -0.575257
 O 0.7149 0.0501 0.047   -0.571294
 O 0.4814 0.2627 0.4831   -0.543617
 O 0.3754 0.1203 0.6186   -0.569505
 O 0.0249 0.5291 0.8156   -0.575255
 O 0.2149 0.4499 0.953   -0.571293
 O 0.0186 0.7373 0.9831   -0.543619
 O 0.1246 0.8797 0.1186   -0.569505
 O 0.4751 0.4709 0.3156   -0.575257
 O 0.2851 0.5501 0.453   -0.571295
