{'_ref': 'TBD', '_srcid': 'CAKYAQ_clean', 'submitters': [{'name': 'Dalar Nazarian Jeff Camp and David Sholl', 'email': 'dalar@gatech.edu jcamp6@gatech.edu'}], '_method': 'VASP DFT with PBE;DDEC'}
data_ZnH8C11(N3O)2
_symmetry_space_group_name_H-M   'P 1'
_cell_length_a   8.94540000
_cell_length_b   10.69810000
_cell_length_c   18.44740000
_cell_angle_alpha   90.00000000
_cell_angle_beta   90.00000000
_cell_angle_gamma   90.00000000
_symmetry_Int_Tables_number   1
_chemical_formula_structural   ZnH8C11(N3O)2
_chemical_formula_sum   'Zn4 H32 C44 N24 O8'
_cell_volume   1765.39374317
_cell_formula_units_Z   4
loop_
 _symmetry_equiv_pos_site_id
 _symmetry_equiv_pos_as_xyz
  1  'x, y, z'
loop_
 _atom_site_label
 _atom_site_fract_x
 _atom_site_fract_y
 _atom_site_fract_z
 _atom_site_charge
 Zn 0.13167 0.0146 0.60247   0.824186
 Zn 0.63167 0.9854 0.39753   0.824186
 Zn 0.13167 0.4854 0.10247   0.824186
 Zn 0.63167 0.5146 0.89753   0.824186
 H 0.827 0.958 0.528   0.059072
 H 0.2362 0.3586 0.4031   0.041312
 H 0.8425 0.3002 0.2717   0.354028
 H 0.7517 0.2011 0.3074   0.325745
 H 0.9632 0.6744 0.7062   0.125265
 H 0.8512 0.531 0.7802   0.070926
 H 0.5877 0.7861 0.8603   0.0896
 H 0.6942 0.937 0.7889   0.126099
 H 0.327 0.042 0.472   0.059072
 H 0.7362 0.6414 0.5969   0.041312
 H 0.3425 0.6998 0.7283   0.354028
 H 0.2517 0.7989 0.6926   0.325745
 H 0.4632 0.3256 0.2938   0.125265
 H 0.3512 0.469 0.2198   0.070926
 H 0.0877 0.2139 0.1397   0.0896
 H 0.1942 0.063 0.2111   0.126099
 H 0.827 0.542 0.028   0.059072
 H 0.2362 0.1414 0.9031   0.041312
 H 0.8425 0.1998 0.7717   0.354028
 H 0.7517 0.2989 0.8074   0.325745
 H 0.9632 0.8256 0.2062   0.125265
 H 0.8512 0.969 0.2802   0.070927
 H 0.5877 0.7139 0.3603   0.0896
 H 0.6942 0.563 0.2889   0.126099
 H 0.327 0.458 0.972   0.059072
 H 0.7362 0.8586 0.0969   0.041312
 H 0.3425 0.8002 0.2283   0.354029
 H 0.2517 0.7011 0.1926   0.325745
 H 0.4632 0.1744 0.7938   0.125265
 H 0.3512 0.031 0.7198   0.070927
 H 0.0877 0.2861 0.6397   0.089601
 H 0.1942 0.437 0.7111   0.126099
 C 0.8745 0.0198 0.501   0.316177
 C 0.1558 0.3041 0.4079   0.408324
 C 0.9331 0.238 0.359   0.490057
 C 0.922 0.1536 0.4184   -0.104695
 C 0.0357 0.1564 0.4684   0.410943
 C 0.9207 0.9223 0.6948   0.640057
 C 0.8886 0.6999 0.7381   -0.130336
 C 0.8475 0.8222 0.7406   -0.008468
 C 0.8205 0.6139 0.7824   0.164341
 C 0.6658 0.7641 0.8295   0.159285
 C 0.729 0.8551 0.7871   -0.130868
 C 0.3745 0.9802 0.499   0.316178
 C 0.6558 0.6959 0.5921   0.408324
 C 0.4331 0.762 0.641   0.490057
 C 0.422 0.8464 0.5816   -0.104695
 C 0.5357 0.8436 0.5316   0.410943
 C 0.4207 0.0777 0.3052   0.640057
 C 0.3886 0.3001 0.2619   -0.130336
 C 0.3475 0.1778 0.2594   -0.008468
 C 0.3205 0.3861 0.2176   0.164341
 C 0.1658 0.2359 0.1705   0.159285
 C 0.229 0.1449 0.2129   -0.130868
 C 0.8745 0.4802 0.000999999999998   0.316178
 C 0.1558 0.1959 0.9079   0.408324
 C 0.9331 0.262 0.859   0.490057
 C 0.922 0.3464 0.9184   -0.104695
 C 0.0357 0.3436 0.9684   0.410944
 C 0.9207 0.5777 0.1948   0.640057
 C 0.8886 0.8001 0.2381   -0.130336
 C 0.8475 0.6778 0.2406   -0.008467
 C 0.8205 0.8861 0.2824   0.164341
 C 0.6658 0.7359 0.3295   0.159285
 C 0.729 0.6449 0.2871   -0.130869
 C 0.3745 0.5198 0.999   0.316178
 C 0.6558 0.8041 0.0921   0.408324
 C 0.4331 0.738 0.141   0.490056
 C 0.422 0.6536 0.0816   -0.104695
 C 0.5357 0.6564 0.0316   0.410943
 C 0.4207 0.4223 0.8052   0.640057
 C 0.3886 0.1999 0.7619   -0.130336
 C 0.3475 0.3222 0.7594   -0.008467
 C 0.3205 0.1139 0.7176   0.164341
 C 0.1658 0.2641 0.6705   0.159285
 C 0.229 0.3551 0.7129   -0.130869
 N 0.0061 0.0708 0.5216   -0.501426
 N 0.1607 0.2308 0.4657   -0.556871
 N 0.8176 0.0643 0.4394   -0.409881
 N 0.0527 0.3121 0.355   -0.581187
 N 0.8301 0.2476 0.3064   -0.67362
 N 0.7115 0.6453 0.8287   -0.330887
 N 0.5061 0.9292 0.4784   -0.501426
 N 0.6607 0.7692 0.5343   -0.556871
 N 0.3176 0.9357 0.5606   -0.409881
 N 0.5527 0.6879 0.645   -0.581187
 N 0.3301 0.7524 0.6936   -0.67362
 N 0.2115 0.3547 0.1713   -0.330887
 N 0.0061 0.4292 0.0216   -0.501426
 N 0.1607 0.2692 0.9657   -0.556871
 N 0.8176 0.4357 0.9394   -0.409881
 N 0.0527 0.1879 0.855   -0.581187
 N 0.8301 0.2524 0.8064   -0.67362
 N 0.7115 0.8547 0.3287   -0.330887
 N 0.5061 0.5708 0.9784   -0.501426
 N 0.6607 0.7308 0.0343   -0.556871
 N 0.3176 0.5643 0.0606   -0.409881
 N 0.5527 0.8121 0.145   -0.581187
 N 0.3301 0.7476 0.1936   -0.673621
 N 0.2115 0.1453 0.6713   -0.330887
 O 0.0386 0.8836 0.66108   -0.611173
 O 0.8712 0.0274 0.6919   -0.566006
 O 0.5386 0.1164 0.33892   -0.611173
 O 0.3712 0.9726 0.3081   -0.566006
 O 0.0386 0.6164 0.16108   -0.611173
 O 0.8712 0.4726 0.1919   -0.566006
 O 0.5386 0.3836 0.83892   -0.611173
 O 0.3712 0.5274 0.8081   -0.566006
