{'_ref': 'TBD', '_srcid': 'CAKYAQ_clean', 'submitters': [{'name': 'Dalar Nazarian Jeff Camp and David Sholl', 'email': 'dalar@gatech.edu jcamp6@gatech.edu'}], '_method': 'VASP DFT with PBE;DDEC'}
data_CdH10C12(NO)4
_symmetry_space_group_name_H-M   'P 1'
_cell_length_a   17.35039987
_cell_length_b   17.35039974
_cell_length_c   17.35038499
_cell_angle_alpha   98.85355853
_cell_angle_beta   115.02697046
_cell_angle_gamma   115.02700054
_symmetry_Int_Tables_number   1
_chemical_formula_structural   CdH10C12(NO)4
_chemical_formula_sum   'Cd8 H80 C96 N32 O32'
_cell_volume   3920.06594587
_cell_formula_units_Z   8
loop_
 _symmetry_equiv_pos_site_id
 _symmetry_equiv_pos_as_xyz
  1  'x, y, z'
loop_
 _atom_site_label
 _atom_site_fract_x
 _atom_site_fract_y
 _atom_site_fract_z
 _atom_site_charge
 Cd 0.38628 0.59048 0.05196   0.963017
 Cd 0.88628 0.83432 0.7958   0.963018
 Cd 0.11372 0.16568 0.2042   0.963018
 Cd 0.61372 0.40952 0.94804   0.963017
 Cd 0.46148 0.05196 0.16568   0.963018
 Cd 0.96148 0.7958 0.40952   0.96302
 Cd 0.03852 0.2042 0.59048   0.96302
 Cd 0.53852 0.94804 0.83432   0.963018
 H 0.4918 0.6832 0.2872   0.122258
 H 0.5698 0.554 0.162   0.083646
 H 0.6446 0.7483 0.4669   0.110547
 H 0.7604 0.675 0.4856   0.146878
 H 0.2042 0.386 0.0402   0.114177
 H 0.3036 0.4217 0.8757   0.088033
 H 0.0765 0.1893 0.9542   0.096987
 H 0.1051 0.1241 0.8226   0.128038
 H 0.6859 0.6148 0.3229   0.295289
 H 0.1911 0.2603 0.8248   0.287375
 H 0.9918 0.7046 0.8086   0.122258
 H 0.0698 0.9078 0.0158   0.083647
 H 0.1446 0.6777 0.8963   0.110547
 H 0.2604 0.7748 0.0854   0.146878
 H 0.7042 0.664 0.8182   0.114176
 H 0.8036 0.9279 0.8819   0.088034
 H 0.5765 0.6223 0.8872   0.09699
 H 0.6051 0.7825 0.981   0.12804
 H 0.1859 0.863 0.0711   0.295289
 H 0.6911 0.8663 0.9308   0.287375
 H 0.0082 0.2954 0.1914   0.122258
 H 0.9302 0.0922 0.9842   0.083647
 H 0.8554 0.3223 0.1037   0.110547
 H 0.7396 0.2252 0.9146   0.146878
 H 0.2958 0.336 0.1818   0.114176
 H 0.1964 0.0721 0.1181   0.088034
 H 0.4235 0.3777 0.1128   0.09699
 H 0.3949 0.2175 0.019   0.12804
 H 0.8141 0.137 0.9289   0.295289
 H 0.3089 0.1337 0.0692   0.287375
 H 0.5082 0.3168 0.7128   0.122259
 H 0.4302 0.446 0.838   0.083646
 H 0.3554 0.2517 0.5331   0.110547
 H 0.2396 0.325 0.5144   0.146878
 H 0.7958 0.614 0.9598   0.114177
 H 0.6964 0.5783 0.1243   0.088032
 H 0.9235 0.8107 0.0458   0.096987
 H 0.8949 0.8759 0.1774   0.128038
 H 0.3141 0.3852 0.6771   0.295289
 H 0.8089 0.7397 0.1752   0.287375
 H 0.604 0.2872 0.2954   0.122254
 H 0.608 0.162 0.0922   0.08365
 H 0.7186 0.4669 0.3223   0.110547
 H 0.8106 0.4856 0.2252   0.146878
 H 0.6542 0.0402 0.336   0.114173
 H 0.454 0.8757 0.0721   0.088034
 H 0.7649 0.9542 0.3777   0.096983
 H 0.6985 0.8226 0.2175   0.128041
 H 0.7081 0.3229 0.137   0.295288
 H 0.5645 0.8248 0.1337   0.287378
 H 0.104 0.8086 0.3168   0.122257
 H 0.108 0.0158 0.446   0.083649
 H 0.2186 0.8963 0.2517   0.110548
 H 0.3106 0.0854 0.325   0.146878
 H 0.1542 0.8182 0.614   0.114174
 H 0.954 0.8819 0.5783   0.088032
 H 0.2649 0.8872 0.8107   0.096989
 H 0.1985 0.981 0.8759   0.128041
 H 0.2081 0.0711 0.3852   0.295291
 H 0.0645 0.9308 0.7397   0.287379
 H 0.896 0.1914 0.6832   0.122257
 H 0.892 0.9842 0.554   0.083648
 H 0.7814 0.1037 0.7483   0.110548
 H 0.6894 0.9146 0.675   0.146878
 H 0.8458 0.1818 0.386   0.114173
 H 0.046 0.1181 0.4217   0.088032
 H 0.7351 0.1128 0.1893   0.096989
 H 0.8015 0.019 0.1241   0.128041
 H 0.7919 0.9289 0.6148   0.295291
 H 0.9355 0.0692 0.2603   0.287379
 H 0.396 0.7128 0.7046   0.122254
 H 0.392 0.838 0.9078   0.08365
 H 0.2814 0.5331 0.6777   0.110547
 H 0.1894 0.5144 0.7748   0.146878
 H 0.3458 0.9598 0.664   0.114173
 H 0.546 0.1243 0.9279   0.088034
 H 0.2351 0.0458 0.6223   0.096983
 H 0.3015 0.1774 0.7825   0.128041
 H 0.2919 0.6771 0.863   0.295288
 H 0.4355 0.1752 0.8663   0.287378
 C 0.6108 0.6676 0.345   0.063981
 C 0.526 0.658 0.2768   0.006797
 C 0.5682 0.5873 0.2081   0.233237
 C 0.6639 0.7126 0.4441   -0.046251
 C 0.7374 0.7082 0.5058   -0.278109
 C 0.7839 0.7546 0.6061   0.675856
 C 0.1705 0.2873 0.9292   0.053674
 C 0.215 0.3737 0.9929   0.00655
 C 0.2697 0.3938 0.9029   0.244731
 C 0.1033 0.1945 0.9174   -0.036047
 C 0.0781 0.1188 0.8593   -0.28164
 C 0.0082 0.0229 0.8469   0.679582
 C 0.1108 0.7658 0.9432   0.063978
 C 0.026 0.7492 0.868   0.006795
 C 0.0682 0.8601 0.9809   0.233229
 C 0.1639 0.7198 0.9513   -0.046245
 C 0.2374 0.7316 0.0292   -0.27811
 C 0.2839 0.6778 0.0293   0.675855
 C 0.6705 0.7413 0.8832   0.053675
 C 0.715 0.7221 0.8413   0.00655
 C 0.7697 0.8668 0.8759   0.24473
 C 0.6033 0.6859 0.9088   -0.036049
 C 0.5781 0.7188 0.9593   -0.281642
 C 0.5082 0.6613 0.9853   0.679583
 C 0.8892 0.2342 0.0568   0.063978
 C 0.974 0.2508 0.132   0.006795
 C 0.9318 0.1399 0.0191   0.233229
 C 0.8361 0.2802 0.0487   -0.046245
 C 0.7626 0.2684 0.9708   -0.27811
 C 0.7161 0.3222 0.9707   0.675855
 C 0.3295 0.2587 0.1168   0.053675
 C 0.285 0.2779 0.1587   0.00655
 C 0.2303 0.1332 0.1241   0.24473
 C 0.3967 0.3141 0.0912   -0.036049
 C 0.4219 0.2812 0.0407   -0.281642
 C 0.4918 0.3387 0.0147   0.679583
 C 0.3892 0.3324 0.655   0.063981
 C 0.474 0.342 0.7232   0.006797
 C 0.4318 0.4127 0.7919   0.233237
 C 0.3361 0.2874 0.5559   -0.046251
 C 0.2626 0.2918 0.4942   -0.278109
 C 0.2161 0.2454 0.3939   0.675856
 C 0.8295 0.7127 0.0708   0.053674
 C 0.785 0.6263 0.0071   0.00655
 C 0.7303 0.6062 0.0971   0.244731
 C 0.8967 0.8055 0.0826   -0.036047
 C 0.9219 0.8812 0.1407   -0.28164
 C 0.9918 0.9771 0.1531   0.679582
 C 0.6774 0.345 0.2342   0.063985
 C 0.6188 0.2768 0.2508   0.006797
 C 0.6208 0.2081 0.1399   0.233236
 C 0.7315 0.4441 0.2802   -0.046241
 C 0.7976 0.5058 0.2684   -0.278115
 C 0.8515 0.6061 0.3222   0.675855
 C 0.6419 0.9292 0.2587   0.053668
 C 0.6192 0.9929 0.2779   0.006555
 C 0.5091 0.9029 0.1332   0.24473
 C 0.7229 0.9174 0.3141   -0.036029
 C 0.7405 0.8593 0.2812   -0.281651
 C 0.824 0.8469 0.3387   0.679587
 C 0.1774 0.9432 0.3324   0.064001
 C 0.1188 0.868 0.342   0.00679
 C 0.1208 0.9809 0.4127   0.233236
 C 0.2315 0.9513 0.2874   -0.046252
 C 0.2976 0.0292 0.2918   -0.278115
 C 0.3515 0.0293 0.2454   0.675857
 C 0.1419 0.8832 0.7127   0.053669
 C 0.1192 0.8413 0.6263   0.006555
 C 0.0091 0.8759 0.6062   0.24473
 C 0.2229 0.9088 0.8055   -0.03604
 C 0.2405 0.9593 0.8812   -0.281648
 C 0.324 0.9853 0.9771   0.67959
 C 0.8226 0.0568 0.6676   0.064001
 C 0.8812 0.132 0.658   0.006789
 C 0.8792 0.0191 0.5873   0.233236
 C 0.7685 0.0487 0.7126   -0.046252
 C 0.7024 0.9708 0.7082   -0.278115
 C 0.6485 0.9707 0.7546   0.675857
 C 0.8581 0.1168 0.2873   0.053669
 C 0.8808 0.1587 0.3737   0.006555
 C 0.9909 0.1241 0.3938   0.24473
 C 0.7771 0.0912 0.1945   -0.03604
 C 0.7595 0.0407 0.1188   -0.281648
 C 0.676 0.0147 0.0229   0.67959
 C 0.3226 0.655 0.7658   0.063985
 C 0.3812 0.7232 0.7492   0.006796
 C 0.3792 0.7919 0.8601   0.233236
 C 0.2685 0.5559 0.7198   -0.046241
 C 0.2024 0.4942 0.7316   -0.278115
 C 0.1485 0.3939 0.6778   0.675855
 C 0.3581 0.0708 0.7413   0.053668
 C 0.3808 0.0071 0.7221   0.006555
 C 0.4909 0.0971 0.8668   0.24473
 C 0.2771 0.0826 0.6859   -0.036028
 C 0.2595 0.1407 0.7188   -0.281651
 C 0.176 0.1531 0.6613   0.679587
 N 0.4983 0.6066 0.1915   -0.417139
 N 0.6354 0.621 0.298   -0.217627
 N 0.2778 0.4395 0.9769   -0.408864
 N 0.2067 0.3025 0.872   -0.216818
 N 0.9983 0.8068 0.8917   -0.41713
 N 0.1354 0.8374 0.0144   -0.217624
 N 0.7778 0.8009 0.8383   -0.408863
 N 0.7067 0.8347 0.9042   -0.216816
 N 0.0017 0.1932 0.1083   -0.41713
 N 0.8646 0.1626 0.9856   -0.217624
 N 0.2222 0.1991 0.1617   -0.408863
 N 0.2933 0.1653 0.0958   -0.216816
 N 0.5017 0.3934 0.8085   -0.417139
 N 0.3646 0.379 0.702   -0.217627
 N 0.7222 0.5605 0.0231   -0.408864
 N 0.7933 0.6975 0.128   -0.216818
 N 0.5849 0.1915 0.1932   -0.417139
 N 0.677 0.298 0.1626   -0.217621
 N 0.5374 0.9769 0.1991   -0.408867
 N 0.5695 0.872 0.1653   -0.216821
 N 0.0849 0.8917 0.3934   -0.417132
 N 0.177 0.0144 0.379   -0.217627
 N 0.0374 0.8383 0.5605   -0.408868
 N 0.0695 0.9042 0.6975   -0.21682
 N 0.9151 0.1083 0.6066   -0.417132
 N 0.823 0.9856 0.621   -0.217627
 N 0.9626 0.1617 0.4395   -0.408868
 N 0.9305 0.0958 0.3025   -0.21682
 N 0.4151 0.8085 0.8068   -0.417139
 N 0.323 0.702 0.8374   -0.217621
 N 0.4626 0.0231 0.8009   -0.408867
 N 0.4305 0.128 0.8347   -0.216821
 O 0.9593 0.009 0.8833   -0.606759
 O 0.0048 0.9581 0.7979   -0.626848
 O 0.7736 0.8163 0.6389   -0.627555
 O 0.8354 0.7278 0.6608   -0.637002
 O 0.4593 0.576 0.9503   -0.606764
 O 0.5048 0.7069 0.0467   -0.626844
 O 0.2736 0.6347 0.9573   -0.627554
 O 0.3354 0.6746 0.1076   -0.637
 O 0.5407 0.424 0.0497   -0.606764
 O 0.4952 0.2931 0.9533   -0.626844
 O 0.7264 0.3653 0.0427   -0.627554
 O 0.6646 0.3254 0.8924   -0.637
 O 0.0407 0.991 0.1167   -0.606759
 O 0.9952 0.0419 0.2021   -0.626848
 O 0.2264 0.1837 0.3611   -0.627555
 O 0.1646 0.2722 0.3392   -0.637002
 O 0.8743 0.8833 0.424   -0.606764
 O 0.8398 0.7979 0.2931   -0.626854
 O 0.8226 0.6389 0.3653   -0.627551
 O 0.933 0.6608 0.3254   -0.637009
 O 0.3743 0.9503 0.991   -0.606762
 O 0.3398 0.0467 0.0419   -0.626859
 O 0.3226 0.9573 0.1837   -0.62755
 O 0.433 0.1076 0.2722   -0.637005
 O 0.6257 0.0497 0.009   -0.606762
 O 0.6602 0.9533 0.9581   -0.626859
 O 0.6774 0.0427 0.8163   -0.62755
 O 0.567 0.8924 0.7278   -0.637005
 O 0.1257 0.1167 0.576   -0.606764
 O 0.1602 0.2021 0.7069   -0.626854
 O 0.1774 0.3611 0.6347   -0.627551
 O 0.067 0.3392 0.6746   -0.637009
