{'_ref': 'TBD', '_srcid': 'CAKYAQ_clean', 'submitters': [{'name': 'Dalar Nazarian Jeff Camp and David Sholl', 'email': 'dalar@gatech.edu jcamp6@gatech.edu'}], '_method': 'VASP DFT with PBE;DDEC'}
data_Zn4H12C24O13
_symmetry_space_group_name_H-M   'P 1'
_cell_length_a   18.22050011
_cell_length_b   18.22049995
_cell_length_c   18.22050000
_cell_angle_alpha   59.99999992
_cell_angle_beta   60.00000020
_cell_angle_gamma   60.00000090
_symmetry_Int_Tables_number   1
_chemical_formula_structural   Zn4H12C24O13
_chemical_formula_sum   'Zn8 H24 C48 O26'
_cell_volume   4277.26224975
_cell_formula_units_Z   2
loop_
 _symmetry_equiv_pos_site_id
 _symmetry_equiv_pos_as_xyz
  1  'x, y, z'
loop_
 _atom_site_label
 _atom_site_fract_x
 _atom_site_fract_y
 _atom_site_fract_z
 _atom_site_charge
 Zn 0.29361 0.29361 0.11917   1.134091
 Zn 0.29361 0.29361 0.29361   1.13409
 Zn 0.11917 0.29361 0.29361   1.134091
 Zn 0.29361 0.11917 0.29361   1.134091
 Zn 0.70639 0.70639 0.88083   1.134091
 Zn 0.70639 0.70639 0.70639   1.13409
 Zn 0.70639 0.88083 0.70639   1.134091
 Zn 0.88083 0.70639 0.70639   1.134091
 H 0.4558 0.4558 0.937   0.102675
 H 0.4558 0.4558 0.1514   0.102675
 H 0.937 0.1514 0.4558   0.102674
 H 0.1514 0.937 0.4558   0.102674
 H 0.4558 0.937 0.1514   0.102674
 H 0.4558 0.1514 0.937   0.102674
 H 0.937 0.4558 0.4558   0.102674
 H 0.1514 0.4558 0.4558   0.102674
 H 0.4558 0.1514 0.4558   0.102674
 H 0.4558 0.937 0.4558   0.102674
 H 0.937 0.4558 0.1514   0.102673
 H 0.1514 0.4558 0.937   0.102673
 H 0.5442 0.5442 0.063   0.102671
 H 0.5442 0.5442 0.8486   0.102671
 H 0.8486 0.063 0.5442   0.102671
 H 0.063 0.8486 0.5442   0.102671
 H 0.063 0.5442 0.8486   0.10267
 H 0.8486 0.5442 0.063   0.10267
 H 0.5442 0.063 0.5442   0.10267
 H 0.5442 0.8486 0.5442   0.10267
 H 0.8486 0.5442 0.5442   0.10267
 H 0.063 0.5442 0.5442   0.10267
 H 0.5442 0.063 0.8486   0.10267
 H 0.5442 0.8486 0.063   0.10267
 C 0.4735 0.4735 0.9639   -0.053501
 C 0.4735 0.4735 0.0891   -0.053502
 C 0.9639 0.0891 0.4735   -0.053501
 C 0.0891 0.9639 0.4735   -0.053502
 C 0.4735 0.9639 0.0891   -0.053502
 C 0.4735 0.0891 0.9639   -0.053502
 C 0.9639 0.4735 0.4735   -0.053502
 C 0.0891 0.4735 0.4735   -0.053502
 C 0.4735 0.0891 0.4735   -0.053502
 C 0.4735 0.9639 0.4735   -0.053502
 C 0.9639 0.4735 0.0891   -0.053502
 C 0.0891 0.4735 0.9639   -0.053501
 C 0.5265 0.5265 0.0361   -0.053486
 C 0.5265 0.5265 0.9109   -0.053487
 C 0.9109 0.0361 0.5265   -0.053486
 C 0.0361 0.9109 0.5265   -0.053486
 C 0.0361 0.5265 0.9109   -0.053487
 C 0.9109 0.5265 0.0361   -0.053486
 C 0.5265 0.0361 0.5265   -0.053487
 C 0.5265 0.9109 0.5265   -0.053487
 C 0.9109 0.5265 0.5265   -0.053487
 C 0.0361 0.5265 0.5265   -0.053487
 C 0.5265 0.0361 0.9109   -0.053487
 C 0.5265 0.9109 0.0361   -0.053486
 C 0.3885 0.3885 0.1115   0.734044
 C 0.4466 0.4466 0.0534   -0.122674
 C 0.1115 0.1115 0.3885   0.734044
 C 0.0534 0.0534 0.4466   -0.122673
 C 0.3885 0.1115 0.1115   0.734045
 C 0.4466 0.0534 0.0534   -0.122674
 C 0.1115 0.3885 0.3885   0.734045
 C 0.0534 0.4466 0.4466   -0.122674
 C 0.3885 0.1115 0.3885   0.734045
 C 0.4466 0.0534 0.4466   -0.122674
 C 0.1115 0.3885 0.1115   0.734045
 C 0.0534 0.4466 0.0534   -0.122674
 C 0.6115 0.6115 0.8885   0.734045
 C 0.5534 0.5534 0.9466   -0.12268
 C 0.8885 0.8885 0.6115   0.734045
 C 0.9466 0.9466 0.5534   -0.12268
 C 0.8885 0.6115 0.8885   0.734046
 C 0.9466 0.5534 0.9466   -0.12268
 C 0.6115 0.8885 0.6115   0.734046
 C 0.5534 0.9466 0.5534   -0.12268
 C 0.8885 0.6115 0.6115   0.734046
 C 0.9466 0.5534 0.5534   -0.12268
 C 0.6115 0.8885 0.8885   0.734046
 C 0.5534 0.9466 0.9466   -0.12268
 O 0.25 0.25 0.25   -1.292063
 O 0.75 0.75 0.75   -1.292063
 O 0.36609 0.36609 0.07351   -0.625221
 O 0.36609 0.36609 0.19431   -0.62522
 O 0.07351 0.19431 0.36609   -0.625221
 O 0.19431 0.07351 0.36609   -0.625221
 O 0.36609 0.07351 0.19431   -0.625221
 O 0.36609 0.19431 0.07351   -0.625221
 O 0.07351 0.36609 0.36609   -0.625221
 O 0.19431 0.36609 0.36609   -0.62522
 O 0.36609 0.19431 0.36609   -0.62522
 O 0.36609 0.07351 0.36609   -0.625221
 O 0.07351 0.36609 0.19431   -0.625221
 O 0.19431 0.36609 0.07351   -0.625221
 O 0.63391 0.63391 0.92649   -0.625221
 O 0.63391 0.63391 0.80569   -0.62522
 O 0.80569 0.92649 0.63391   -0.625221
 O 0.92649 0.80569 0.63391   -0.625221
 O 0.92649 0.63391 0.80569   -0.625221
 O 0.80569 0.63391 0.92649   -0.625221
 O 0.63391 0.92649 0.63391   -0.625221
 O 0.63391 0.80569 0.63391   -0.62522
 O 0.80569 0.63391 0.63391   -0.62522
 O 0.92649 0.63391 0.63391   -0.625221
 O 0.63391 0.92649 0.80569   -0.625221
 O 0.63391 0.80569 0.92649   -0.625221
