{'_ref': 'TBD', '_srcid': 'CAKYAQ_clean', 'submitters': [{'name': 'Dalar Nazarian Jeff Camp and David Sholl', 'email': 'dalar@gatech.edu jcamp6@gatech.edu'}], '_method': 'VASP DFT with PBE;DDEC'}
data_Mn3H22(C21O8)2
_symmetry_space_group_name_H-M   'P 1'
_cell_length_a   9.37959971
_cell_length_b   17.45709972
_cell_length_c   17.45710000
_cell_angle_alpha   76.44099829
_cell_angle_beta   77.17499965
_cell_angle_gamma   77.17489842
_symmetry_Int_Tables_number   1
_chemical_formula_structural   Mn3H22(C21O8)2
_chemical_formula_sum   'Mn6 H44 C84 O32'
_cell_volume   2665.54780729
_cell_formula_units_Z   2
loop_
 _symmetry_equiv_pos_site_id
 _symmetry_equiv_pos_as_xyz
  1  'x, y, z'
loop_
 _atom_site_label
 _atom_site_fract_x
 _atom_site_fract_y
 _atom_site_fract_z
 _atom_site_charge
 Mn 0.561 0.68634 0.81953   1.153588
 Mn 0.939 0.18047 0.31366   1.153577
 Mn 0.439 0.31366 0.18047   1.15359
 Mn 0.061 0.81953 0.68634   1.15358
 Mn 0.5 0.5 0.0   1.281647
 Mn 0.0 0.0 0.5   1.281651
 H 0.5738 0.6269 0.1617   0.146379
 H 0.5733 0.8407 0.2085   0.155066
 H 0.5825 0.8189 0.9835   0.123443
 H 0.3161 0.9352 0.1506   0.123901
 H 0.199 0.0318 0.2244   0.083921
 H 0.5601 0.1343 0.1581   0.082204
 H 0.6794 0.0355 0.0859   0.119116
 H 0.3156 0.7939 0.2819   0.122322
 H 0.1758 0.8449 0.3915   0.077484
 H 0.4849 0.7283 0.5209   0.105106
 H 0.6304 0.6808 0.4104   0.141621
 H 0.9262 0.8383 0.3731   0.146379
 H 0.9267 0.7915 0.1593   0.155067
 H 0.9175 0.0165 0.1811   0.123442
 H 0.1839 0.8494 0.0648   0.123899
 H 0.301 0.7756 0.9682   0.083923
 H 0.9399 0.8419 0.8657   0.082206
 H 0.8206 0.9141 0.9645   0.119119
 H 0.1844 0.7181 0.2061   0.122307
 H 0.3242 0.6085 0.1551   0.077484
 H 0.0151 0.4791 0.2717   0.105107
 H 0.8696 0.5896 0.3192   0.141612
 H 0.4262 0.3731 0.8383   0.146379
 H 0.4267 0.1593 0.7915   0.155066
 H 0.4175 0.1811 0.0165   0.123443
 H 0.6839 0.0648 0.8494   0.1239
 H 0.801 0.9682 0.7756   0.083921
 H 0.4399 0.8657 0.8419   0.082204
 H 0.3206 0.9645 0.9141   0.119115
 H 0.6844 0.2061 0.7181   0.122322
 H 0.8242 0.1551 0.6085   0.077484
 H 0.5151 0.2717 0.4791   0.105106
 H 0.3696 0.3192 0.5896   0.141621
 H 0.0738 0.1617 0.6269   0.146379
 H 0.0733 0.2085 0.8407   0.155067
 H 0.0825 0.9835 0.8189   0.123442
 H 0.8161 0.1506 0.9352   0.123899
 H 0.699 0.2244 0.0318   0.083922
 H 0.0601 0.1581 0.1343   0.082206
 H 0.1794 0.0859 0.0355   0.119118
 H 0.8156 0.2819 0.7939   0.122307
 H 0.6758 0.3915 0.8449   0.077484
 H 0.9849 0.5209 0.7283   0.105107
 H 0.1304 0.4104 0.6808   0.141612
 C 0.5797 0.66451 0.00415   0.727335
 C 0.5801 0.71528 0.0636   -0.048987
 C 0.5747 0.68134 0.14386   -0.223393
 C 0.5706 0.72939 0.19713   0.314097
 C 0.573 0.8093 0.17234   -0.358049
 C 0.5749 0.8425 0.09214   0.29518
 C 0.5797 0.79599 0.03741   -0.211889
 C 0.5074 0.97693 0.11131   0.280431
 C 0.365 0.97544 0.15238   -0.235395
 C 0.2952 0.03311 0.19601   0.028017
 C 0.3676 0.09346 0.19794   -0.224034
 C 0.5109 0.09401 0.15667   0.033041
 C 0.5823 0.03535 0.11331   -0.221713
 C 0.2876 0.1577 0.24334   0.784163
 C 0.4839 0.73087 0.33673   0.305771
 C 0.3498 0.78045 0.33019   -0.255062
 C 0.2658 0.8103 0.39612   0.026519
 C 0.3138 0.78949 0.46833   -0.205892
 C 0.4501 0.74156 0.47268   0.026381
 C 0.5372 0.71239 0.40683   -0.238422
 C 0.2189 0.81453 0.54241   0.698718
 C 0.9203 0.99585 0.33549   0.727348
 C 0.9199 0.9364 0.28472   -0.048995
 C 0.9253 0.85614 0.31866   -0.223387
 C 0.9294 0.80287 0.27061   0.314091
 C 0.927 0.82766 0.1907   -0.35805
 C 0.9251 0.90786 0.1575   0.295176
 C 0.9203 0.96259 0.20401   -0.211879
 C 0.9926 0.88869 0.02307   0.280426
 C 0.135 0.84762 0.02456   -0.23539
 C 0.2048 0.80399 0.96689   0.028014
 C 0.1324 0.80206 0.90654   -0.224031
 C 0.9891 0.84333 0.90599   0.03303
 C 0.9177 0.88669 0.96465   -0.221707
 C 0.2124 0.75666 0.8423   0.784161
 C 0.0161 0.66327 0.26913   0.30576
 C 0.1502 0.66981 0.21955   -0.255036
 C 0.2342 0.60388 0.1897   0.026513
 C 0.1862 0.53167 0.21051   -0.205909
 C 0.0499 0.52732 0.25844   0.026394
 C 0.9628 0.59317 0.28761   -0.238414
 C 0.2811 0.45759 0.18547   0.698736
 C 0.4203 0.33549 0.99585   0.727335
 C 0.4199 0.28472 0.9364   -0.048987
 C 0.4253 0.31866 0.85614   -0.223393
 C 0.4294 0.27061 0.80287   0.314097
 C 0.427 0.1907 0.82766   -0.358049
 C 0.4251 0.1575 0.90786   0.29518
 C 0.4203 0.20401 0.96259   -0.211889
 C 0.4926 0.02307 0.88869   0.280431
 C 0.635 0.02456 0.84762   -0.235395
 C 0.7048 0.96689 0.80399   0.028017
 C 0.6324 0.90654 0.80206   -0.224034
 C 0.4891 0.90599 0.84333   0.033041
 C 0.4177 0.96465 0.88669   -0.221713
 C 0.7124 0.8423 0.75666   0.784163
 C 0.5161 0.26913 0.66327   0.305771
 C 0.6502 0.21955 0.66981   -0.255062
 C 0.7342 0.1897 0.60388   0.026519
 C 0.6862 0.21051 0.53167   -0.205892
 C 0.5499 0.25844 0.52732   0.026381
 C 0.4628 0.28761 0.59317   -0.238424
 C 0.7811 0.18547 0.45759   0.698718
 C 0.0797 0.00415 0.66451   0.727348
 C 0.0801 0.0636 0.71528   -0.048995
 C 0.0747 0.14386 0.68134   -0.223387
 C 0.0706 0.19713 0.72939   0.314091
 C 0.073 0.17234 0.8093   -0.35805
 C 0.0749 0.09214 0.8425   0.295176
 C 0.0797 0.03741 0.79599   -0.21188
 C 0.0074 0.11131 0.97693   0.280426
 C 0.865 0.15238 0.97544   -0.23539
 C 0.7952 0.19601 0.03311   0.028014
 C 0.8676 0.19794 0.09346   -0.224031
 C 0.0109 0.15667 0.09401   0.03303
 C 0.0823 0.11331 0.03535   -0.221707
 C 0.7876 0.24334 0.1577   0.784161
 C 0.9839 0.33673 0.73087   0.30576
 C 0.8498 0.33019 0.78045   -0.255036
 C 0.7658 0.39612 0.8103   0.026513
 C 0.8138 0.46833 0.78949   -0.205909
 C 0.9501 0.47268 0.74156   0.026393
 C 0.0372 0.40683 0.71239   -0.238416
 C 0.7189 0.54241 0.81453   0.698736
 O 0.5689 0.59354 0.0317   -0.659881
 O 0.5913 0.69869 0.93237   -0.606721
 O 0.5794 0.92248 0.06236   -0.236415
 O 0.1617 0.14998 0.28244   -0.676831
 O 0.3499 0.21346 0.24248   -0.638094
 O 0.5707 0.69258 0.27654   -0.263934
 O 0.0944 0.86067 0.54019   -0.707655
 O 0.2637 0.78483 0.60767   -0.582246
 O 0.9311 0.9683 0.40646   -0.659887
 O 0.9087 0.06763 0.30131   -0.606727
 O 0.9206 0.93764 0.07752   -0.236417
 O 0.3383 0.71756 0.85002   -0.676835
 O 0.1501 0.75752 0.78654   -0.638091
 O 0.9293 0.72346 0.30742   -0.263931
 O 0.4056 0.45981 0.13933   -0.707667
 O 0.2363 0.39233 0.21517   -0.582254
 O 0.4311 0.40646 0.9683   -0.659881
 O 0.4087 0.30131 0.06763   -0.606721
 O 0.4206 0.07752 0.93764   -0.236415
 O 0.8383 0.85002 0.71756   -0.676831
 O 0.6501 0.78654 0.75752   -0.638094
 O 0.4293 0.30742 0.72346   -0.263934
 O 0.9056 0.13933 0.45981   -0.707655
 O 0.7363 0.21517 0.39233   -0.582246
 O 0.0689 0.0317 0.59354   -0.659887
 O 0.0913 0.93237 0.69869   -0.606727
 O 0.0794 0.06236 0.92248   -0.236417
 O 0.6617 0.28244 0.14998   -0.676835
 O 0.8499 0.24248 0.21346   -0.638091
 O 0.0707 0.27654 0.69258   -0.263931
 O 0.5944 0.54019 0.86067   -0.707667
 O 0.7637 0.60767 0.78483   -0.582254
