{'_ref': 'TBD', '_srcid': 'CAKYAQ_clean', 'submitters': [{'name': 'Dalar Nazarian Jeff Camp and David Sholl', 'email': 'dalar@gatech.edu jcamp6@gatech.edu'}], '_method': 'VASP DFT with PBE;DDEC'}
data_CdH24C36(NF2)4
_symmetry_space_group_name_H-M   'P 1'
_cell_length_a   12.82669975
_cell_length_b   12.82670026
_cell_length_c   16.69000000
_cell_angle_alpha   108.68200178
_cell_angle_beta   108.68200255
_cell_angle_gamma   95.97249614
_symmetry_Int_Tables_number   1
_chemical_formula_structural   CdH24C36(NF2)4
_chemical_formula_sum   'Cd2 H48 C72 N8 F16'
_cell_volume   2397.94745425
_cell_formula_units_Z   2
loop_
 _symmetry_equiv_pos_site_id
 _symmetry_equiv_pos_as_xyz
  1  'x, y, z'
loop_
 _atom_site_label
 _atom_site_fract_x
 _atom_site_fract_y
 _atom_site_fract_z
 _atom_site_charge
 Cd 0.62074 0.37926 0.25   0.678193
 Cd 0.37926 0.62074 0.75   0.678193
 H 0.849 0.3106 0.2266   0.059415
 H 0.5461 0.2293 0.037   0.053082
 H 0.9218 0.2188 0.1209   0.119078
 H 0.6096 0.1332 0.9262   0.127463
 H 0.8401 0.1601 0.9119   0.102622
 H 0.7504 0.0462 0.8852   0.107811
 H 0.7304 0.6318 0.4067   0.040936
 H 0.4332 0.4406 0.3384   0.056617
 H 0.691 0.78 0.506   0.116516
 H 0.3856 0.584 0.4344   0.121467
 H 0.5626 0.8168 0.6081   0.102042
 H 0.4309 0.7699 0.5462   0.104293
 H 0.6894 0.151 0.2734   0.059415
 H 0.7707 0.4539 0.463   0.053082
 H 0.7812 0.0782 0.3791   0.119077
 H 0.8668 0.3904 0.5738   0.127463
 H 0.8399 0.1599 0.5881   0.102622
 H 0.9538 0.2496 0.6148   0.107811
 H 0.3682 0.2696 0.0933   0.040937
 H 0.5594 0.5668 0.1616   0.056617
 H 0.22 0.309 0.994   0.116516
 H 0.416 0.6144 0.0656   0.121467
 H 0.1832 0.4374 0.8919   0.102042
 H 0.2301 0.5691 0.9538   0.104293
 H 0.151 0.6894 0.7734   0.059414
 H 0.4539 0.7707 0.963   0.053081
 H 0.0782 0.7812 0.8791   0.119077
 H 0.3904 0.8668 0.0738   0.12746
 H 0.1599 0.8399 0.0881   0.102622
 H 0.2496 0.9538 0.1148   0.107811
 H 0.2696 0.3682 0.5933   0.040936
 H 0.5668 0.5594 0.6616   0.056617
 H 0.309 0.22 0.494   0.116515
 H 0.6144 0.416 0.5656   0.121466
 H 0.4374 0.1832 0.3919   0.102043
 H 0.5691 0.2301 0.4538   0.104293
 H 0.3106 0.849 0.7266   0.059413
 H 0.2293 0.5461 0.537   0.053082
 H 0.2188 0.9218 0.6209   0.119076
 H 0.1332 0.6096 0.4262   0.12746
 H 0.1601 0.8401 0.4119   0.102622
 H 0.0462 0.7504 0.3852   0.107811
 H 0.6318 0.7304 0.9067   0.040937
 H 0.4406 0.4332 0.8384   0.056617
 H 0.78 0.691 0.006   0.116515
 H 0.584 0.3856 0.9344   0.121466
 H 0.8168 0.5626 0.1081   0.102043
 H 0.7699 0.4309 0.0462   0.104293
 C 0.79961 0.27445 0.1644   0.131524
 C 0.62375 0.22699 0.05441   0.135556
 C 0.84388 0.21964 0.10166   -0.244622
 C 0.66111 0.16983 0.98765   -0.250788
 C 0.7738 0.16584 0.01041   0.118886
 C 0.81458 0.10522 0.93595   -0.166236
 C 0.90999 0.05083 0.96822   -0.090386
 C 0.02209 0.10817 0.00477   0.130457
 C 0.10929 0.05891 0.03529   0.135075
 C 0.65867 0.62177 0.41179   0.137725
 C 0.48638 0.51134 0.37223   0.147669
 C 0.6355 0.71098 0.47123   -0.237374
 C 0.45728 0.59652 0.42961   -0.235929
 C 0.53264 0.7003 0.48023   0.128551
 C 0.50588 0.79642 0.54581   -0.160845
 C 0.50521 0.90109 0.52241   -0.099392
 C 0.41824 0.90376 0.44824   0.135791
 C 0.41289 0.99953 0.42718   0.1396
 C 0.72555 0.20039 0.3356   0.131522
 C 0.77301 0.37625 0.44559   0.135556
 C 0.78036 0.15612 0.39834   -0.244621
 C 0.83017 0.33889 0.51235   -0.250788
 C 0.83416 0.2262 0.48959   0.118885
 C 0.89478 0.18542 0.56405   -0.166236
 C 0.94917 0.09001 0.53178   -0.090386
 C 0.89183 0.97791 0.49523   0.130457
 C 0.94109 0.89071 0.46471   0.135075
 C 0.37823 0.34133 0.08821   0.137725
 C 0.48866 0.51362 0.12777   0.14767
 C 0.28902 0.3645 0.02877   -0.237373
 C 0.40348 0.54272 0.07039   -0.235929
 C 0.2997 0.46736 0.01977   0.128551
 C 0.20358 0.49412 0.95419   -0.160845
 C 0.09891 0.49479 0.97759   -0.099392
 C 0.09624 0.58176 0.05176   0.135791
 C 0.00047 0.58711 0.07282   0.1396
 C 0.20039 0.72555 0.8356   0.131525
 C 0.37625 0.77301 0.94559   0.135556
 C 0.15612 0.78036 0.89834   -0.244622
 C 0.33889 0.83017 0.01235   -0.250787
 C 0.2262 0.83416 0.98959   0.118885
 C 0.18542 0.89478 0.06405   -0.166236
 C 0.09001 0.94917 0.03178   -0.090383
 C 0.97791 0.89183 0.99523   0.130456
 C 0.89071 0.94109 0.96471   0.135078
 C 0.34133 0.37823 0.58821   0.137725
 C 0.51362 0.48866 0.62777   0.147668
 C 0.3645 0.28902 0.52877   -0.237373
 C 0.54272 0.40348 0.57039   -0.235929
 C 0.46736 0.2997 0.51977   0.128551
 C 0.49412 0.20358 0.45419   -0.160845
 C 0.49479 0.09891 0.47759   -0.099391
 C 0.58176 0.09624 0.55176   0.13579
 C 0.58711 0.00047 0.57282   0.139601
 C 0.27445 0.79961 0.6644   0.131523
 C 0.22699 0.62375 0.55441   0.135556
 C 0.21964 0.84388 0.60166   -0.244621
 C 0.16983 0.66111 0.48765   -0.250786
 C 0.16584 0.7738 0.51041   0.118885
 C 0.10522 0.81458 0.43595   -0.166236
 C 0.05083 0.90999 0.46822   -0.090384
 C 0.10817 0.02209 0.50477   0.130456
 C 0.05891 0.10929 0.53529   0.135077
 C 0.62177 0.65867 0.91179   0.137725
 C 0.51134 0.48638 0.87223   0.14767
 C 0.71098 0.6355 0.97123   -0.237373
 C 0.59652 0.45728 0.92961   -0.235929
 C 0.7003 0.53264 0.98023   0.128551
 C 0.79642 0.50588 0.04581   -0.160845
 C 0.90109 0.50521 0.02241   -0.099391
 C 0.90376 0.41824 0.94824   0.13579
 C 0.99953 0.41289 0.92718   0.139601
 N 0.69102 0.27924 0.14229   -0.405811
 N 0.58534 0.52248 0.36134   -0.374427
 N 0.72076 0.30898 0.35771   -0.405809
 N 0.47752 0.41466 0.13866   -0.374428
 N 0.30898 0.72076 0.85771   -0.405811
 N 0.41466 0.47752 0.63866   -0.374427
 N 0.27924 0.69102 0.64229   -0.405809
 N 0.52248 0.58534 0.86134   -0.374428
 F 0.04719 0.21601 0.01111   -0.122957
 F 0.21686 0.11996 0.06975   -0.133913
 F 0.33596 0.80914 0.3944   -0.123104
 F 0.32404 0.993 0.35384   -0.145489
 F 0.78399 0.95281 0.48889   -0.122957
 F 0.88004 0.78314 0.43025   -0.133913
 F 0.19086 0.66404 0.1056   -0.123104
 F 0.007 0.67596 0.14616   -0.145489
 F 0.95281 0.78399 0.98889   -0.122957
 F 0.78314 0.88004 0.93025   -0.133913
 F 0.66404 0.19086 0.6056   -0.123104
 F 0.67596 0.007 0.64616   -0.145489
 F 0.21601 0.04719 0.51111   -0.122957
 F 0.11996 0.21686 0.56975   -0.133913
 F 0.80914 0.33596 0.8944   -0.123104
 F 0.993 0.32404 0.85384   -0.145489
