{'_ref': 'TBD', '_srcid': 'CAKYAQ_clean', 'submitters': [{'name': 'Dalar Nazarian Jeff Camp and David Sholl', 'email': 'dalar@gatech.edu jcamp6@gatech.edu'}], '_method': 'VASP DFT with PBE;DDEC'}
data_CdH24C36(NF2)4
_symmetry_space_group_name_H-M   'P 1'
_cell_length_a   13.04700004
_cell_length_b   13.27900042
_cell_length_c   16.61450000
_cell_angle_alpha   111.12099936
_cell_angle_beta   109.44199967
_cell_angle_gamma   92.73400082
_symmetry_Int_Tables_number   1
_chemical_formula_structural   CdH24C36(NF2)4
_chemical_formula_sum   'Cd2 H48 C72 N8 F16'
_cell_volume   2485.59432523
_cell_formula_units_Z   2
loop_
 _symmetry_equiv_pos_site_id
 _symmetry_equiv_pos_as_xyz
  1  'x, y, z'
loop_
 _atom_site_label
 _atom_site_fract_x
 _atom_site_fract_y
 _atom_site_fract_z
 _atom_site_charge
 Cd 0.61748 0.37919 0.25077   0.6907
 Cd 0.38252 0.62081 0.74923   0.6907
 H 0.5419 0.221 0.0309   0.055499
 H 0.8462 0.3173 0.2201   0.059014
 H 0.6052 0.1253 0.9183   0.123429
 H 0.9159 0.2206 0.1128   0.119356
 H 0.7487 0.036 0.8742   0.107308
 H 0.8319 0.1449 0.8988   0.105231
 H 0.3591 0.2717 0.0971   0.052132
 H 0.5428 0.5541 0.1622   0.055585
 H 0.2161 0.3079 0.9874   0.117493
 H 0.3984 0.6019 0.0656   0.122458
 H 0.2176 0.5608 0.949   0.108201
 H 0.1736 0.4326 0.8836   0.10215
 H 0.4498 0.4499 0.357   0.051645
 H 0.7195 0.6378 0.398   0.048341
 H 0.3969 0.5963 0.4527   0.124755
 H 0.6732 0.7902 0.4922   0.117694
 H 0.5583 0.826 0.6157   0.102546
 H 0.4297 0.7835 0.5503   0.107382
 H 0.693 0.1599 0.2719   0.059768
 H 0.7699 0.456 0.4708   0.057432
 H 0.7919 0.0887 0.3763   0.124171
 H 0.8736 0.3959 0.5798   0.129941
 H 0.9711 0.2569 0.6148   0.103143
 H 0.8596 0.1827 0.5974   0.10522
 H 0.4581 0.779 0.9691   0.055499
 H 0.1538 0.6827 0.7799   0.059012
 H 0.3948 0.8747 0.0817   0.123427
 H 0.0841 0.7794 0.8872   0.119355
 H 0.2513 0.964 0.1258   0.107308
 H 0.1681 0.8551 0.1012   0.105231
 H 0.6409 0.7283 0.9029   0.052132
 H 0.4572 0.4459 0.8378   0.055585
 H 0.7839 0.6921 0.0126   0.117493
 H 0.6016 0.3981 0.9344   0.122458
 H 0.7824 0.4392 0.051   0.108201
 H 0.8264 0.5674 0.1164   0.10215
 H 0.5502 0.5501 0.643   0.051645
 H 0.2805 0.3622 0.602   0.048341
 H 0.6031 0.4037 0.5473   0.124756
 H 0.3268 0.2098 0.5078   0.117694
 H 0.4417 0.174 0.3843   0.102547
 H 0.5703 0.2165 0.4497   0.107382
 H 0.307 0.8401 0.7281   0.059767
 H 0.2301 0.544 0.5292   0.057432
 H 0.2081 0.9113 0.6237   0.124169
 H 0.1264 0.6041 0.4202   0.129939
 H 0.0289 0.7431 0.3852   0.103143
 H 0.1404 0.8173 0.4026   0.10522
 C 0.6192 0.2214 0.048   0.132358
 C 0.796 0.2768 0.1578   0.133987
 C 0.6566 0.1637 0.9804   -0.248642
 C 0.8386 0.2198 0.094   -0.248001
 C 0.7685 0.1599 0.000399999999999   0.112444
 C 0.8097 0.0955 0.9251   -0.161384
 C 0.9071 0.0458 0.9628   -0.097498
 C 0.0159 0.1024 0.9959   0.132258
 C 0.1045 0.0578 0.0318   0.132505
 C 0.3696 0.3386 0.0897   0.120098
 C 0.4744 0.5034 0.1283   0.14569
 C 0.2818 0.3619 0.0251   -0.227593
 C 0.3883 0.5324 0.069   -0.234437
 C 0.289 0.4599 0.0156   0.124509
 C 0.1932 0.4883 0.9477   -0.159596
 C 0.0925 0.4913 0.9737   -0.105431
 C 0.0873 0.5837 0.0453   0.135814
 C 0.9979 0.5923 0.0698   0.150912
 C 0.4957 0.5206 0.3848   0.169187
 C 0.6527 0.6297 0.4082   0.112791
 C 0.4632 0.6069 0.4424   -0.253233
 C 0.6263 0.7202 0.4656   -0.221411
 C 0.5326 0.7094 0.4844   0.128257
 C 0.504 0.8056 0.5516   -0.157825
 C 0.5051 0.9067 0.5251   -0.106121
 C 0.4169 0.9131 0.4521   0.134806
 C 0.4111 0.0027 0.4269   0.14546
 C 0.7304 0.2085 0.3353   0.154206
 C 0.776 0.3807 0.4514   0.117052
 C 0.7891 0.1648 0.3972   -0.264609
 C 0.8368 0.3453 0.517   -0.235237
 C 0.8442 0.2355 0.4915   0.112071
 C 0.909 0.1966 0.5669   -0.165239
 C 0.9556 0.0939 0.5328   -0.094017
 C 0.06 0.1056 0.5317   0.137978
 C 0.1034 0.0119 0.5003   0.132422
 C 0.3808 0.7786 0.952   0.132358
 C 0.204 0.7232 0.8422   0.133987
 C 0.3434 0.8363 0.0196   -0.248641
 C 0.1614 0.7802 0.906   -0.248
 C 0.2315 0.8401 0.9996   0.112444
 C 0.1903 0.9045 0.0749   -0.161384
 C 0.0929 0.9542 0.0372   -0.097499
 C 0.9841 0.8976 0.0041   0.132258
 C 0.8955 0.9422 0.9682   0.132505
 C 0.6304 0.6614 0.9103   0.120098
 C 0.5256 0.4966 0.8717   0.14569
 C 0.7182 0.6381 0.9749   -0.227593
 C 0.6117 0.4676 0.931   -0.234436
 C 0.711 0.5401 0.9844   0.124509
 C 0.8068 0.5117 0.0523   -0.159598
 C 0.9075 0.5087 0.0263   -0.105421
 C 0.9127 0.4163 0.9547   0.135811
 C 0.0021 0.4077 0.9302   0.15092
 C 0.5043 0.4794 0.6152   0.169187
 C 0.3473 0.3703 0.5918   0.112791
 C 0.5368 0.3931 0.5576   -0.253233
 C 0.3737 0.2798 0.5344   -0.221412
 C 0.4674 0.2906 0.5156   0.128257
 C 0.496 0.1944 0.4484   -0.157826
 C 0.4949 0.0933 0.4749   -0.10612
 C 0.5831 0.0869 0.5479   0.134806
 C 0.5889 0.9973 0.5731   0.145461
 C 0.2696 0.7915 0.6647   0.154206
 C 0.224 0.6193 0.5486   0.117052
 C 0.2109 0.8352 0.6028   -0.264609
 C 0.1632 0.6547 0.483   -0.235236
 C 0.1558 0.7645 0.5085   0.112071
 C 0.091 0.8034 0.4331   -0.165239
 C 0.0444 0.9061 0.4672   -0.094016
 C 0.94 0.8944 0.4683   0.137978
 C 0.8966 0.9881 0.4997   0.132423
 N 0.6869 0.2796 0.1385   -0.42368
 N 0.4676 0.4093 0.1409   -0.371067
 N 0.5853 0.5294 0.3659   -0.377288
 N 0.7235 0.3133 0.3592   -0.414108
 N 0.3131 0.7204 0.8615   -0.42368
 N 0.5324 0.5907 0.8591   -0.371067
 N 0.4147 0.4706 0.6341   -0.377288
 N 0.2765 0.6867 0.6408   -0.414108
 F 0.0331 0.2028 0.9936   -0.12517
 F 0.2067 0.1163 0.0606   -0.135654
 F 0.175 0.6698 0.0913   -0.131758
 F 0.0019 0.685 0.1395   -0.139043
 F 0.3312 0.8261 0.401   -0.134681
 F 0.3223 0.000999999999998 0.3542   -0.143703
 F 0.1213 0.2049 0.5616   -0.12125
 F 0.2051 0.0266 0.5011   -0.117725
 F 0.9669 0.7972 0.0064   -0.12517
 F 0.7933 0.8837 0.9394   -0.135654
 F 0.825 0.3302 0.9087   -0.131758
 F 0.9981 0.315 0.8605   -0.139044
 F 0.6688 0.1739 0.599   -0.134681
 F 0.6777 0.999 0.6458   -0.143703
 F 0.8787 0.7951 0.4384   -0.12125
 F 0.7949 0.9734 0.4989   -0.117725
