{'_ref': 'TBD', '_srcid': 'CAKYAQ_clean', 'submitters': [{'name': 'Dalar Nazarian Jeff Camp and David Sholl', 'email': 'dalar@gatech.edu jcamp6@gatech.edu'}], '_method': 'VASP DFT with PBE;DDEC'}
data_Ba2NaCo2C20N4ClO22
_symmetry_space_group_name_H-M   'P 1'
_cell_length_a   9.48009970
_cell_length_b   9.48010020
_cell_length_c   27.81600000
_cell_angle_alpha   82.49869779
_cell_angle_beta   82.49869739
_cell_angle_gamma   63.03759797
_symmetry_Int_Tables_number   1
_chemical_formula_structural   Ba2NaCo2C20N4ClO22
_chemical_formula_sum   'Ba4 Na2 Co4 C40 N8 Cl2 O44'
_cell_volume   2201.87763243
_cell_formula_units_Z   2
loop_
 _symmetry_equiv_pos_site_id
 _symmetry_equiv_pos_as_xyz
  1  'x, y, z'
loop_
 _atom_site_label
 _atom_site_fract_x
 _atom_site_fract_y
 _atom_site_fract_z
 _atom_site_charge
 Ba 0.4144 0.1732 0.7703   1.629503
 Ba 0.8826 0.1948 0.8201   1.632757
 Ba 0.1732 0.4144 0.2703   1.629503
 Ba 0.1948 0.8826 0.3201   1.632756
 Na 0.9964 0.3756 0.5582   0.968138
 Na 0.3756 0.9964 0.0582   0.968138
 Co 0.9443 0.9257 0.6915   0.851278
 Co 0.3564 0.446 0.8969   0.831868
 Co 0.9257 0.9443 0.1915   0.851277
 Co 0.446 0.3564 0.3969   0.831867
 C 0.0429 0.7499 0.6124   -0.044447
 C 0.1652 0.8124 0.6148   -0.050548
 C 0.7712 0.803 0.6563   -0.01618
 C 0.6752 0.8966 0.6996   0.598658
 C 0.8101 0.0121 0.602   0.060784
 C 0.8472 0.1428 0.6132   0.595902
 C 0.2234 0.9518 0.6775   -0.049991
 C 0.14 0.017 0.7266   0.652983
 C 0.2516 0.6786 0.6963   0.043046
 C 0.1376 0.618 0.7226   0.600407
 C 0.2606 0.619 0.9768   -0.084601
 C 0.1412 0.5512 0.9754   -0.013169
 C 0.5284 0.57 0.9318   -0.07235
 C 0.6252 0.4758 0.8882   0.597352
 C 0.4957 0.3579 0.9855   0.003526
 C 0.469 0.2228 0.9722   0.610031
 C 0.0825 0.4123 0.9136   -0.16349
 C 0.1614 0.3514 0.8632   0.675173
 C 0.0444 0.6876 0.8954   -0.016656
 C 0.1541 0.7519 0.867   0.619069
 C 0.7499 0.0429 0.1124   -0.044468
 C 0.8124 0.1652 0.1148   -0.050599
 C 0.803 0.7712 0.1563   -0.01618
 C 0.8966 0.6752 0.1996   0.598657
 C 0.0121 0.8101 0.102   0.060809
 C 0.1428 0.8472 0.1132   0.5959
 C 0.9518 0.2234 0.1775   -0.049991
 C 0.017 0.14 0.2266   0.652983
 C 0.6786 0.2516 0.1963   0.043046
 C 0.618 0.1376 0.2226   0.600408
 C 0.619 0.2606 0.4768   -0.084591
 C 0.5512 0.1412 0.4754   -0.013154
 C 0.57 0.5284 0.4318   -0.072352
 C 0.4758 0.6252 0.3882   0.597353
 C 0.3579 0.4957 0.4855   0.00346
 C 0.2228 0.469 0.4722   0.610035
 C 0.4123 0.0825 0.4136   -0.163491
 C 0.3514 0.1614 0.3632   0.675174
 C 0.6876 0.0444 0.3954   -0.016656
 C 0.7519 0.1541 0.367   0.619068
 N 0.8882 0.8658 0.6358   -0.053995
 N 0.1655 0.8347 0.6678   -0.028765
 N 0.4154 0.504 0.9526   -0.013971
 N 0.137 0.5308 0.9228   -0.001693
 N 0.8658 0.8882 0.1358   -0.053991
 N 0.8347 0.1655 0.1678   -0.028759
 N 0.504 0.4154 0.4526   -0.013966
 N 0.5308 0.137 0.4228   -0.001695
 Cl 0.3402 0.2944 0.6239   1.542672
 Cl 0.2944 0.3402 0.1239   1.542671
 O 0.5554 0.885 0.7188   -0.520696
 O 0.7256 0.9884 0.7151   -0.53528
 O 0.825 0.2586 0.5843   -0.583032
 O 0.8994 0.1238 0.6562   -0.459719
 O 0.1879 0.0841 0.7504   -0.597582
 O 0.0114 0.998 0.7413   -0.566147
 O 0.1835 0.4801 0.7401   -0.536724
 O 0.9905 0.7241 0.7256   -0.444938
 O 0.7492 0.4822 0.8708   -0.530943
 O 0.5717 0.3897 0.8715   -0.562754
 O 0.5042 0.0992 0.9994   -0.616502
 O 0.4099 0.2443 0.9309   -0.454908
 O 0.1123 0.2821 0.8405   -0.620385
 O 0.285 0.375 0.8473   -0.569085
 O 0.1048 0.8892 0.8485   -0.569177
 O 0.3029 0.6489 0.8634   -0.427497
 O 0.4028 0.2178 0.6688   -0.618119
 O 0.3576 0.435 0.6109   -0.531688
 O 0.4217 0.1861 0.5862   -0.581465
 O 0.1706 0.3368 0.6277   -0.674037
 O 0.6792 0.0402 0.8336   -0.447518
 O 0.6124 0.335 0.7566   -0.455056
 O 0.885 0.5554 0.2188   -0.520696
 O 0.9884 0.7256 0.2151   -0.53528
 O 0.2586 0.825 0.0843   -0.583031
 O 0.1238 0.8994 0.1562   -0.459719
 O 0.0841 0.1879 0.2504   -0.597582
 O 0.998 0.0114 0.2413   -0.566147
 O 0.4801 0.1835 0.2401   -0.536724
 O 0.7241 0.9905 0.2256   -0.444938
 O 0.4822 0.7492 0.3708   -0.530943
 O 0.3897 0.5717 0.3715   -0.562754
 O 0.0992 0.5042 0.4994   -0.616503
 O 0.2443 0.4099 0.4309   -0.454909
 O 0.2821 0.1123 0.3405   -0.620385
 O 0.375 0.285 0.3473   -0.569085
 O 0.8892 0.1048 0.3485   -0.569176
 O 0.6489 0.3029 0.3634   -0.427497
 O 0.2178 0.4028 0.1688   -0.618119
 O 0.435 0.3576 0.1109   -0.531687
 O 0.1861 0.4217 0.0862   -0.581465
 O 0.3368 0.1706 0.1277   -0.674036
 O 0.0402 0.6792 0.3336   -0.447518
 O 0.335 0.6124 0.2566   -0.455056
