{'_ref': 'TBD', '_srcid': 'CAKYAQ_clean', 'submitters': [{'name': 'Dalar Nazarian Jeff Camp and David Sholl', 'email': 'dalar@gatech.edu jcamp6@gatech.edu'}], '_method': 'VASP DFT with PBE;DDEC'}
data_SmH24C48(NO2)4
_symmetry_space_group_name_H-M   'P 1'
_cell_length_a   9.61869996
_cell_length_b   13.89339971
_cell_length_c   17.23450000
_cell_angle_alpha   98.05800075
_cell_angle_beta   90.45699747
_cell_angle_gamma   90.59900104
_symmetry_Int_Tables_number   1
_chemical_formula_structural   SmH24C48(NO2)4
_chemical_formula_sum   'Sm2 H48 C96 N8 O16'
_cell_volume   2280.18915742
_cell_formula_units_Z   2
loop_
 _symmetry_equiv_pos_site_id
 _symmetry_equiv_pos_as_xyz
  1  'x, y, z'
loop_
 _atom_site_label
 _atom_site_fract_x
 _atom_site_fract_y
 _atom_site_fract_z
 _atom_site_charge
 Sm 0.77034 0.90045 0.01428   2.33233
 Sm 0.22966 0.09955 0.98572   2.332331
 H 0.729 0.7513 0.4166   0.108939
 H 0.6086 0.7641 0.5449   0.115534
 H 0.4708 0.5177 0.7382   0.137882
 H 0.4737 0.3366 0.7291   0.121086
 H 0.7572 0.0562 0.5578   0.112006
 H 0.9256 0.0515 0.4475   0.121772
 H 0.0857 0.3069 0.2606   0.121819
 H 0.0371 0.4784 0.2516   0.13899
 H 0.3899 0.7069 0.6016   0.107182
 H 0.3047 0.8378 0.6863   0.090449
 H 0.4148 0.8871 0.8078   0.110813
 H 0.6858 0.6657 0.762   0.116125
 H 0.4607 0.1072 0.5548   0.107674
 H 0.3057 0.0175 0.6212   0.08953
 H 0.3239 0.024 0.7573   0.105736
 H 0.6521 0.2099 0.7606   0.119397
 H 0.1896 0.1389 0.4164   0.101099
 H 0.3307 0.0355 0.332   0.088543
 H 0.262 0.9873 0.2015   0.104003
 H 0.9033 0.1347 0.2418   0.113976
 H 0.0145 0.7333 0.3876   0.093504
 H 0.0416 0.8517 0.3049   0.092841
 H 0.937 0.8318 0.1818   0.083027
 H 0.7788 0.5722 0.2216   0.110801
 H 0.271 0.2487 0.5834   0.10894
 H 0.3914 0.2359 0.4551   0.115534
 H 0.5292 0.4823 0.2618   0.137882
 H 0.5263 0.6634 0.2709   0.121085
 H 0.2428 0.9438 0.4422   0.112006
 H 0.0744 0.9485 0.5525   0.121773
 H 0.9143 0.6931 0.7394   0.121819
 H 0.9629 0.5216 0.7484   0.13899
 H 0.6101 0.2931 0.3984   0.107182
 H 0.6953 0.1622 0.3137   0.090449
 H 0.5852 0.1129 0.1922   0.110813
 H 0.3142 0.3343 0.238   0.116125
 H 0.5393 0.8928 0.4452   0.107674
 H 0.6943 0.9825 0.3788   0.089531
 H 0.6761 0.976 0.2427   0.105736
 H 0.3479 0.7901 0.2394   0.119397
 H 0.8104 0.8611 0.5836   0.1011
 H 0.6693 0.9645 0.668   0.088543
 H 0.738 0.0127 0.7985   0.104003
 H 0.0967 0.8653 0.7582   0.113976
 H 0.9855 0.2667 0.6124   0.093504
 H 0.9584 0.1483 0.6951   0.092841
 H 0.063 0.1682 0.8182   0.083027
 H 0.2212 0.4278 0.7784   0.110801
 C 0.7778 0.6049 0.4353   0.186608
 C 0.7212 0.7022 0.4495   -0.169501
 C 0.6549 0.7087 0.519   -0.170796
 C 0.6677 0.6152 0.5467   0.190152
 C 0.6102 0.5936 0.6167   0.059627
 C 0.603 0.5 0.6388   0.192643
 C 0.5197 0.4742 0.7008   -0.168377
 C 0.523 0.3746 0.6965   -0.160875
 C 0.6142 0.3383 0.634   0.177564
 C 0.647 0.2406 0.6098   0.039077
 C 0.7386 0.2086 0.549   0.166873
 C 0.7848 0.1092 0.5319   -0.170853
 C 0.876 0.1065 0.4714   -0.190241
 C 0.8819 0.2036 0.4509   0.175936
 C 0.9548 0.2288 0.3861   0.034545
 C 0.9559 0.321 0.3616   0.180217
 C 0.0287 0.3483 0.2952   -0.172891
 C 0.0025 0.4422 0.2903   -0.151027
 C 0.9128 0.478 0.3539   0.195528
 C 0.8584 0.5719 0.3702   0.05835
 C 0.5492 0.6747 0.672   0.012716
 C 0.4341 0.7258 0.651   -0.080456
 C 0.3834 0.8037 0.7013   -0.111872
 C 0.4478 0.8324 0.774   -0.032795
 C 0.5599 0.7806 0.7966   -0.093051
 C 0.6098 0.7016 0.746   -0.076949
 C 0.6315 0.8144 0.8727   0.677513
 C 0.5709 0.16698 0.65143   0.024175
 C 0.4681 0.1098 0.61004   -0.111557
 C 0.376 0.0565 0.6495   -0.09038
 C 0.3868 0.0604 0.73035   -0.035234
 C 0.4897 0.1175 0.77174   -0.113342
 C 0.5818 0.17082 0.73228   -0.080925
 C 0.5038 0.1191 0.8588   0.719207
 C 0.0344 0.1525 0.3361   0.028576
 C 0.161 0.1192 0.3636   -0.108621
 C 0.2449 0.0571 0.3133   -0.093094
 C 0.2032 0.0269 0.2363   -0.028327
 C 0.0742 0.0554 0.2108   -0.11372
 C 0.9913 0.1166 0.26   -0.084889
 C 0.027 0.0188 0.1287   0.81049
 C 0.888 0.6419 0.3143   0.023903
 C 0.9701 0.7249 0.3376   -0.092075
 C 0.9872 0.7951 0.288   -0.101385
 C 0.9258 0.7831 0.2149   -0.011647
 C 0.8472 0.6997 0.1893   -0.137873
 C 0.8307 0.6298 0.2394   -0.072757
 C 0.7816 0.6861 0.1088   0.735431
 C 0.2222 0.3951 0.5647   0.186608
 C 0.2788 0.2978 0.5505   -0.169501
 C 0.3451 0.2913 0.481   -0.170797
 C 0.3323 0.3848 0.4533   0.190152
 C 0.3898 0.4064 0.3833   0.059627
 C 0.397 0.5 0.3612   0.192643
 C 0.4803 0.5258 0.2992   -0.168377
 C 0.477 0.6254 0.3035   -0.160875
 C 0.3858 0.6617 0.366   0.177564
 C 0.353 0.7594 0.3902   0.039077
 C 0.2614 0.7914 0.451   0.166873
 C 0.2152 0.8908 0.4681   -0.170853
 C 0.124 0.8935 0.5286   -0.190241
 C 0.1181 0.7964 0.5491   0.175936
 C 0.0452 0.7712 0.6139   0.034545
 C 0.0441 0.679 0.6384   0.180217
 C 0.9713 0.6517 0.7048   -0.172891
 C 0.9975 0.5578 0.7097   -0.151028
 C 0.0872 0.522 0.6461   0.195528
 C 0.1416 0.4281 0.6298   0.05835
 C 0.4508 0.3253 0.328   0.012716
 C 0.5659 0.2742 0.349   -0.080456
 C 0.6166 0.1963 0.2987   -0.111872
 C 0.5522 0.1676 0.226   -0.032795
 C 0.4401 0.2194 0.2034   -0.093051
 C 0.3902 0.2984 0.254   -0.076949
 C 0.3685 0.1856 0.1273   0.677513
 C 0.4291 0.83302 0.34857   0.024175
 C 0.5319 0.8902 0.38996   -0.111557
 C 0.624 0.9435 0.3505   -0.09038
 C 0.6132 0.9396 0.26965   -0.035233
 C 0.5103 0.8825 0.22826   -0.113342
 C 0.4182 0.82918 0.26772   -0.080925
 C 0.4962 0.8809 0.1412   0.719207
 C 0.9656 0.8475 0.6639   0.028576
 C 0.839 0.8808 0.6364   -0.108622
 C 0.7551 0.9429 0.6867   -0.093094
 C 0.7968 0.9731 0.7637   -0.028327
 C 0.9258 0.9446 0.7892   -0.11372
 C 0.0087 0.8834 0.74   -0.084889
 C 0.973 0.9812 0.8713   0.81049
 C 0.112 0.3581 0.6857   0.023903
 C 0.0299 0.2751 0.6624   -0.092075
 C 0.0128 0.2049 0.712   -0.101385
 C 0.0742 0.2169 0.7851   -0.011647
 C 0.1528 0.3003 0.8107   -0.137873
 C 0.1693 0.3702 0.7606   -0.072757
 C 0.2184 0.3139 0.8912   0.735431
 N 0.7424 0.552 0.4941   -0.279698
 N 0.6607 0.4172 0.6003   -0.292791
 N 0.7994 0.2652 0.4993   -0.30276
 N 0.8877 0.4029 0.3966   -0.278451
 N 0.2576 0.448 0.5059   -0.279698
 N 0.3393 0.5828 0.3997   -0.292791
 N 0.2006 0.7348 0.5007   -0.30276
 N 0.1123 0.5971 0.6034   -0.278451
 O 0.5793 0.8833 0.91879   -0.701307
 O 0.7436 0.7756 0.89082   -0.692237
 O 0.4058 0.0833 0.89384   -0.768999
 O 0.6125 0.1554 0.8927   -0.483942
 O 0.902 0.996 0.11716   -0.758035
 O 0.1182 0.011 0.07508   -0.818886
 O 0.7339 0.6041 0.081   -0.444602
 O 0.7815 0.7568 0.0707   -0.786969
 O 0.4207 0.1167 0.08121   -0.701307
 O 0.2564 0.2244 0.10918   -0.692237
 O 0.5942 0.9167 0.10616   -0.768999
 O 0.3875 0.8446 0.1073   -0.483942
 O 0.098 0.004 0.88284   -0.758035
 O 0.8818 0.989 0.92492   -0.818886
 O 0.2661 0.3959 0.919   -0.444603
 O 0.2185 0.2432 0.9293   -0.786969
