{'_ref': 'TBD', '_srcid': 'CAKYAQ_clean', 'submitters': [{'name': 'Dalar Nazarian Jeff Camp and David Sholl', 'email': 'dalar@gatech.edu jcamp6@gatech.edu'}], '_method': 'VASP DFT with PBE;DDEC'}
data_Fe3H18(C9O4)4
_symmetry_space_group_name_H-M   'P 1'
_cell_length_a   9.90000000
_cell_length_b   9.89999957
_cell_length_c   23.80000000
_cell_angle_alpha   90.00000000
_cell_angle_beta   90.00000000
_cell_angle_gamma   120.00000144
_symmetry_Int_Tables_number   1
_chemical_formula_structural   Fe3H18(C9O4)4
_chemical_formula_sum   'Fe6 H36 C72 O32'
_cell_volume   2020.12364862
_cell_formula_units_Z   2
loop_
 _symmetry_equiv_pos_site_id
 _symmetry_equiv_pos_as_xyz
  1  'x, y, z'
loop_
 _atom_site_label
 _atom_site_fract_x
 _atom_site_fract_y
 _atom_site_fract_z
 _atom_site_charge
 Fe 0.6547 0.1312 0.25   1.181346
 Fe 0.8688 0.5235 0.25   1.181403
 Fe 0.4765 0.3453 0.25   1.181142
 Fe 0.1312 0.6547 0.75   1.181346
 Fe 0.5235 0.8688 0.75   1.181402
 Fe 0.3453 0.4765 0.75   1.181143
 H 0.4493 0.2074 0.8686   0.131117
 H 0.7926 0.2419 0.8686   0.13112
 H 0.7581 0.5507 0.8686   0.131122
 H 0.4493 0.2074 0.6314   0.131117
 H 0.7926 0.2419 0.6314   0.13112
 H 0.7581 0.5507 0.6314   0.131122
 H 0.2074 0.4493 0.1314   0.131117
 H 0.2419 0.7926 0.1314   0.13112
 H 0.5507 0.7581 0.1314   0.131122
 H 0.2074 0.4493 0.3686   0.131117
 H 0.2419 0.7926 0.3686   0.13112
 H 0.5507 0.7581 0.3686   0.131122
 H 0.4785 0.3074 0.9651   0.104156
 H 0.6926 0.1711 0.9651   0.104157
 H 0.8289 0.5215 0.9651   0.104158
 H 0.4785 0.3074 0.5349   0.104156
 H 0.6926 0.1711 0.5349   0.104157
 H 0.8289 0.5215 0.5349   0.104158
 H 0.3074 0.4785 0.0349   0.104156
 H 0.1711 0.6926 0.0349   0.104157
 H 0.5215 0.8289 0.0349   0.104159
 H 0.3074 0.4785 0.4651   0.104156
 H 0.1711 0.6926 0.4651   0.104157
 H 0.5215 0.8289 0.4651   0.104159
 H 0.201 0.7366 0.9314   0.111829
 H 0.2634 0.4644 0.9314   0.111829
 H 0.5356 0.799 0.9314   0.111832
 H 0.201 0.7366 0.5686   0.111829
 H 0.2634 0.4644 0.5686   0.111829
 H 0.5356 0.799 0.5686   0.111832
 H 0.7366 0.201 0.0686   0.111829
 H 0.4644 0.2634 0.0686   0.111829
 H 0.799 0.5356 0.0686   0.111832
 H 0.7366 0.201 0.4314   0.111829
 H 0.4644 0.2634 0.4314   0.111829
 H 0.799 0.5356 0.4314   0.111832
 C 0.4185 0.0978 0.1667   0.670176
 C 0.9022 0.3207 0.1667   0.670178
 C 0.6793 0.5815 0.1667   0.67018
 C 0.4185 0.0978 0.3333   0.670176
 C 0.9022 0.3207 0.3333   0.670178
 C 0.6793 0.5815 0.3333   0.67018
 C 0.0978 0.4185 0.8333   0.670176
 C 0.3207 0.9022 0.8333   0.670178
 C 0.5815 0.6793 0.8333   0.67018
 C 0.0978 0.4185 0.6667   0.670177
 C 0.3207 0.9022 0.6667   0.670178
 C 0.5815 0.6793 0.6667   0.67018
 C 0.3208 0.9639 0.8918   -0.05334
 C 0.0361 0.3569 0.8918   -0.053346
 C 0.6431 0.6792 0.8918   -0.053342
 C 0.3208 0.9639 0.6082   -0.05334
 C 0.0361 0.3569 0.6082   -0.053347
 C 0.6431 0.6792 0.6082   -0.053342
 C 0.9639 0.3208 0.1082   -0.053339
 C 0.3569 0.0361 0.1082   -0.053346
 C 0.6792 0.6431 0.1082   -0.05334
 C 0.9639 0.3208 0.3918   -0.053339
 C 0.3569 0.0361 0.3918   -0.053346
 C 0.6792 0.6431 0.3918   -0.053341
 C 0.3997 0.1252 0.903   -0.078631
 C 0.8748 0.2745 0.903   -0.078628
 C 0.7255 0.6003 0.903   -0.078628
 C 0.3997 0.1252 0.597   -0.078631
 C 0.8748 0.2745 0.597   -0.078628
 C 0.7255 0.6003 0.597   -0.078628
 C 0.1252 0.3997 0.097   -0.078631
 C 0.2745 0.8748 0.097   -0.078629
 C 0.6003 0.7255 0.097   -0.07863
 C 0.1252 0.3997 0.403   -0.078631
 C 0.2745 0.8748 0.403   -0.078629
 C 0.6003 0.7255 0.403   -0.07863
 C 0.4178 0.1827 0.9585   -0.131739
 C 0.8173 0.2351 0.9585   -0.131741
 C 0.7649 0.5822 0.9585   -0.131737
 C 0.4178 0.1827 0.5415   -0.131739
 C 0.8173 0.2351 0.5415   -0.131741
 C 0.7649 0.5822 0.5415   -0.131737
 C 0.1827 0.4178 0.0415   -0.131737
 C 0.2351 0.8173 0.0415   -0.131738
 C 0.5822 0.7649 0.0415   -0.131734
 C 0.1827 0.4178 0.4585   -0.131737
 C 0.2351 0.8173 0.4585   -0.131738
 C 0.5822 0.7649 0.4585   -0.131734
 C 0.3652 0.0811 0.0051   0.069425
 C 0.9189 0.2841 0.0051   0.069425
 C 0.7159 0.6348 0.0051   0.069425
 C 0.3652 0.0811 0.4949   0.069425
 C 0.9189 0.2841 0.4949   0.069425
 C 0.7159 0.6348 0.4949   0.069425
 C 0.0811 0.3652 0.9949   0.069408
 C 0.2841 0.9189 0.9949   0.069408
 C 0.6348 0.7159 0.9949   0.069409
 C 0.0811 0.3652 0.5051   0.069408
 C 0.2841 0.9189 0.5051   0.069408
 C 0.6348 0.7159 0.5051   0.069409
 C 0.2596 0.8613 0.9386   -0.136301
 C 0.1387 0.3983 0.9386   -0.1363
 C 0.6017 0.7404 0.9386   -0.136298
 C 0.2596 0.8613 0.5614   -0.136301
 C 0.1387 0.3983 0.5614   -0.1363
 C 0.6017 0.7404 0.5614   -0.136298
 C 0.8613 0.2596 0.0614   -0.136303
 C 0.3983 0.1387 0.0614   -0.136302
 C 0.7404 0.6017 0.0614   -0.136301
 C 0.8613 0.2596 0.4386   -0.136303
 C 0.3983 0.1387 0.4386   -0.136302
 C 0.7404 0.6017 0.4386   -0.136301
 O 0.3898 0.1977 0.1893   -0.480625
 O 0.8023 0.1921 0.1893   -0.480627
 O 0.8079 0.6102 0.1893   -0.48066
 O 0.3898 0.1977 0.3107   -0.480625
 O 0.8023 0.1921 0.3107   -0.480627
 O 0.8079 0.6102 0.3107   -0.48066
 O 0.1977 0.3898 0.8107   -0.480625
 O 0.1921 0.8023 0.8107   -0.480627
 O 0.6102 0.8079 0.8107   -0.48066
 O 0.1977 0.3898 0.6893   -0.480625
 O 0.1921 0.8023 0.6893   -0.480627
 O 0.6102 0.8079 0.6893   -0.48066
 O 0.5046 0.0532 0.1906   -0.486428
 O 0.9468 0.4514 0.1906   -0.486449
 O 0.5486 0.4954 0.1906   -0.48644
 O 0.5046 0.0532 0.3094   -0.486428
 O 0.9468 0.4514 0.3094   -0.486449
 O 0.5486 0.4954 0.3094   -0.48644
 O 0.0532 0.5046 0.8094   -0.486428
 O 0.4514 0.9468 0.8094   -0.486449
 O 0.4954 0.5486 0.8094   -0.48644
 O 0.0532 0.5046 0.6906   -0.486428
 O 0.4514 0.9468 0.6906   -0.486449
 O 0.4954 0.5486 0.6906   -0.48644
 O 0.0663 0.7114 0.25   -0.342645
 O 0.2886 0.3549 0.25   -0.342578
 O 0.6451 0.9337 0.25   -0.342698
 O 0.7114 0.0663 0.75   -0.342645
 O 0.3549 0.2886 0.75   -0.342578
 O 0.9337 0.6451 0.75   -0.342698
 O 0.6667 0.3333 0.25   -0.833662
 O 0.3333 0.6667 0.75   -0.833662
