{'_ref': 'TBD', '_srcid': 'CAKYAQ_clean', 'submitters': [{'name': 'Dalar Nazarian Jeff Camp and David Sholl', 'email': 'dalar@gatech.edu jcamp6@gatech.edu'}], '_method': 'VASP DFT with PBE;DDEC'}
data_Fe3H6(C3O4)4
_symmetry_space_group_name_H-M   'P 1'
_cell_length_a   12.66300000
_cell_length_b   13.87110000
_cell_length_c   13.87110002
_cell_angle_alpha   119.99999996
_cell_angle_beta   90.00000000
_cell_angle_gamma   90.00000000
_symmetry_Int_Tables_number   1
_chemical_formula_structural   Fe3H6(C3O4)4
_chemical_formula_sum   'Fe6 H12 C24 O32'
_cell_volume   2110.03201453
_cell_formula_units_Z   2
loop_
 _symmetry_equiv_pos_site_id
 _symmetry_equiv_pos_as_xyz
  1  'x, y, z'
loop_
 _atom_site_label
 _atom_site_fract_x
 _atom_site_fract_y
 _atom_site_fract_z
 _atom_site_charge
 Fe 0.25 0.748461 0.251578   1.171895
 Fe 0.25 0.748422 0.496883   1.171892
 Fe 0.25 0.503117 0.251539   1.171892
 Fe 0.75 0.251578 0.748461   1.171896
 Fe 0.75 0.496883 0.748422   1.171893
 Fe 0.75 0.251539 0.503117   1.171893
 H 0.097748 0.463105 0.926205   0.157332
 H 0.097748 0.073795 0.5369   0.157332
 H 0.097748 0.4631 0.536895   0.157332
 H 0.402252 0.463105 0.926205   0.157332
 H 0.402252 0.073795 0.5369   0.157331
 H 0.402252 0.4631 0.536895   0.157331
 H 0.902252 0.926205 0.463106   0.157325
 H 0.902252 0.5369 0.073795   0.157327
 H 0.902252 0.536895 0.4631   0.157327
 H 0.597748 0.926205 0.463106   0.157325
 H 0.597748 0.5369 0.073795   0.157326
 H 0.597748 0.536895 0.4631   0.157326
 C 0.1143 0.554817 0.109572   0.698576
 C 0.1143 0.890428 0.445245   0.698576
 C 0.1143 0.554755 0.445183   0.698576
 C 0.3857 0.554817 0.109572   0.698576
 C 0.3857 0.890428 0.445245   0.698576
 C 0.3857 0.554755 0.445183   0.698576
 C 0.8857 0.109572 0.554817   0.698569
 C 0.8857 0.445245 0.890428   0.69857
 C 0.8857 0.445183 0.554755   0.69857
 C 0.6143 0.109572 0.554817   0.698569
 C 0.6143 0.445245 0.890428   0.69857
 C 0.6143 0.445183 0.554755   0.69857
 C 0.052879 0.501505 0.00296   -0.178645
 C 0.052879 0.99704 0.498545   -0.178646
 C 0.052879 0.501455 0.498495   -0.178644
 C 0.447121 0.501505 0.00296   -0.178645
 C 0.447121 0.99704 0.498545   -0.178646
 C 0.447121 0.501455 0.498495   -0.178644
 C 0.947121 0.00296 0.501505   -0.178589
 C 0.947121 0.498545 0.99704   -0.178592
 C 0.947121 0.498495 0.501455   -0.178592
 C 0.552879 0.00296 0.501505   -0.178589
 C 0.552879 0.498545 0.99704   -0.178592
 C 0.552879 0.498495 0.501455   -0.178592
 O 0.25 0.666667 0.333333   -0.82409
 O 0.75 0.333333 0.666667   -0.824089
 O 0.143952 0.49402 0.149382   -0.48887
 O 0.143952 0.850618 0.344638   -0.48887
 O 0.143952 0.655362 0.50598   -0.48887
 O 0.356048 0.49402 0.149382   -0.48887
 O 0.356048 0.850618 0.344638   -0.48887
 O 0.356048 0.655362 0.50598   -0.48887
 O 0.856048 0.149382 0.49402   -0.48887
 O 0.856048 0.344638 0.850618   -0.48887
 O 0.856048 0.50598 0.655362   -0.48887
 O 0.643952 0.149382 0.49402   -0.48887
 O 0.643952 0.344638 0.850618   -0.48887
 O 0.643952 0.50598 0.655362   -0.48887
 O 0.14395 0.655426 0.149388   -0.488967
 O 0.14395 0.850612 0.506038   -0.488967
 O 0.14395 0.493962 0.344574   -0.488967
 O 0.35605 0.655426 0.149388   -0.488967
 O 0.35605 0.850612 0.506038   -0.488967
 O 0.35605 0.493962 0.344574   -0.488967
 O 0.85605 0.149388 0.655426   -0.488967
 O 0.85605 0.506038 0.850612   -0.488967
 O 0.85605 0.344574 0.493962   -0.488967
 O 0.64395 0.149388 0.655426   -0.488967
 O 0.64395 0.506038 0.850612   -0.488967
 O 0.64395 0.344574 0.493962   -0.488967
 O 0.25 0.827939 0.172225   -0.29609
 O 0.25 0.827775 0.655714   -0.29609
 O 0.25 0.344286 0.172061   -0.296089
 O 0.75 0.172225 0.827939   -0.296089
 O 0.75 0.655714 0.827775   -0.296089
 O 0.75 0.172061 0.344286   -0.296089
