{'_ref': 'TBD', '_srcid': 'CAKYAQ_clean', 'submitters': [{'name': 'Dalar Nazarian Jeff Camp and David Sholl', 'email': 'dalar@gatech.edu jcamp6@gatech.edu'}], '_method': 'VASP DFT with PBE;DDEC'}
data_ZnH8C12(NO2)2
_symmetry_space_group_name_H-M   'P 1'
_cell_length_a   6.91829975
_cell_length_b   15.48870004
_cell_length_c   15.48870000
_cell_angle_alpha   87.14100143
_cell_angle_beta   77.09509953
_cell_angle_gamma   77.09510040
_symmetry_Int_Tables_number   1
_chemical_formula_structural   ZnH8C12(NO2)2
_chemical_formula_sum   'Zn4 H32 C48 N8 O16'
_cell_volume   1576.91672084
_cell_formula_units_Z   4
loop_
 _symmetry_equiv_pos_site_id
 _symmetry_equiv_pos_as_xyz
  1  'x, y, z'
loop_
 _atom_site_label
 _atom_site_fract_x
 _atom_site_fract_y
 _atom_site_fract_z
 _atom_site_charge
 Zn 0.125 0.76077 0.73923   0.809743
 Zn 0.625 0.23923 0.26077   0.806219
 Zn 0.13577 0.73923 0.23923   0.809311
 Zn 0.11423 0.26077 0.76077   0.809311
 H 0.5738 0.7375 0.1525   0.080547
 H 0.7766 0.7474 0.0112   0.131603
 H 0.6369 0.7521 0.8875   0.103751
 H 0.0972 0.7455 0.0509   0.077449
 H 0.4638 0.2625 0.8475   0.08082
 H 0.5352 0.2526 0.9888   0.132751
 H 0.2765 0.2479 0.1125   0.103372
 H 0.8936 0.2545 0.9491   0.077087
 H 0.2737 0.1525 0.2625   0.080577
 H 0.2122 0.0112 0.2526   0.13105
 H 0.4756 0.8875 0.2479   0.103401
 H 0.8519 0.0509 0.2545   0.077218
 H 0.6887 0.8475 0.7375   0.081974
 H 0.476 0.9888 0.7474   0.131902
 H 0.611 0.1125 0.7521   0.102538
 H 0.1573 0.9491 0.7455   0.075497
 H 0.7862 0.6525 0.2375   0.08082
 H 0.7148 0.5112 0.2474   0.132751
 H 0.9735 0.3875 0.2521   0.103372
 H 0.3564 0.5509 0.2455   0.077087
 H 0.6762 0.3475 0.7625   0.080547
 H 0.4734 0.4888 0.7526   0.131603
 H 0.6131 0.6125 0.7479   0.103751
 H 0.1528 0.4491 0.7545   0.077449
 H 0.5613 0.7625 0.6525   0.081974
 H 0.774 0.7526 0.5112   0.131902
 H 0.639 0.7479 0.3875   0.102538
 H 0.0927 0.7545 0.5509   0.075497
 H 0.9763 0.2375 0.3475   0.080577
 H 0.0378 0.2474 0.4888   0.13105
 H 0.7744 0.2521 0.6125   0.1034
 H 0.3981 0.2455 0.4491   0.077218
 C 0.5143 0.7417 0.1025   0.168048
 C 0.6371 0.7467 0.0179   -0.168969
 C 0.5545 0.7504 0.9452   0.051491
 C 0.348 0.7517 0.9563   -0.198282
 C 0.237 0.7465 0.0425   0.177481
 C 0.2473 0.7581 0.8809   0.653527
 C 0.3585 0.2583 0.8975   0.16648
 C 0.4017 0.2533 0.9821   -0.168783
 C 0.2501 0.2496 0.0548   0.052458
 C 0.056 0.2483 0.0437   -0.200966
 C 0.026 0.2535 0.9575   0.177276
 C 0.8863 0.2419 0.1191   0.655557
 C 0.3832 0.1025 0.2583   0.165204
 C 0.345 0.0179 0.2533   -0.167547
 C 0.5003 0.9452 0.2496   0.054289
 C 0.6957 0.9563 0.2483   -0.2009
 C 0.7205 0.0425 0.2535   0.174254
 C 0.8718 0.8809 0.2419   0.649142
 C 0.744 0.8975 0.7417   0.165596
 C 0.6162 0.9821 0.7467   -0.170855
 C 0.6951 0.0548 0.7504   0.055823
 C 0.9003 0.0437 0.7517   -0.198908
 C 0.0165 0.9575 0.7465   0.176538
 C 0.9946 0.1191 0.7581   0.650968
 C 0.8915 0.6025 0.2417   0.16648
 C 0.8483 0.5179 0.2467   -0.168783
 C 0.9999 0.4452 0.2504   0.052459
 C 0.194 0.4563 0.2517   -0.200966
 C 0.224 0.5425 0.2465   0.177275
 C 0.3637 0.3809 0.2581   0.655557
 C 0.7357 0.3975 0.7583   0.168048
 C 0.6129 0.4821 0.7533   -0.16897
 C 0.6955 0.5548 0.7496   0.051491
 C 0.902 0.5437 0.7483   -0.198283
 C 0.013 0.4575 0.7535   0.17748
 C 0.0027 0.6191 0.7419   0.653527
 C 0.506 0.7583 0.6025   0.165596
 C 0.6338 0.7533 0.5179   -0.170856
 C 0.5549 0.7496 0.4452   0.055823
 C 0.3497 0.7483 0.4563   -0.198908
 C 0.2335 0.7535 0.5425   0.176537
 C 0.2554 0.7419 0.3809   0.650968
 C 0.8668 0.2417 0.3975   0.165204
 C 0.905 0.2467 0.4821   -0.167548
 C 0.7497 0.2504 0.5548   0.054289
 C 0.5543 0.2517 0.5437   -0.2009
 C 0.5295 0.2465 0.4575   0.174253
 C 0.3782 0.2581 0.6191   0.649142
 N 0.3167 0.7427 0.1147   -0.329733
 N 0.1741 0.2573 0.8853   -0.327829
 N 0.5686 0.1147 0.2573   -0.323397
 N 0.9406 0.8853 0.7427   -0.326295
 N 0.0759 0.6147 0.2427   -0.327829
 N 0.9333 0.3853 0.7573   -0.329733
 N 0.3094 0.7573 0.6147   -0.326295
 N 0.6814 0.2427 0.3853   -0.323397
 O 0.34689 0.77161 0.80441   -0.573646
 O 0.06567 0.75087 0.89399   -0.57858
 O 0.92291 0.22839 0.19559   -0.572947
 O 0.71053 0.24913 0.10601   -0.579153
 O 0.8487 0.80441 0.22839   -0.570821
 O 0.04034 0.89399 0.24913   -0.576008
 O 0.8815 0.19559 0.77161   -0.572784
 O 0.18346 0.10601 0.75087   -0.576554
 O 0.32709 0.30441 0.27161   -0.572947
 O 0.53947 0.39399 0.25087   -0.579153
 O 0.90311 0.69559 0.72839   -0.573646
 O 0.18433 0.60601 0.74913   -0.57858
 O 0.3685 0.72839 0.30441   -0.572784
 O 0.06654 0.74913 0.39399   -0.576554
 O 0.4013 0.27161 0.69559   -0.570821
 O 0.20966 0.25087 0.60601   -0.576008
