{'_ref': 'TBD', '_srcid': 'CAKYAQ_clean', 'submitters': [{'name': 'Dalar Nazarian Jeff Camp and David Sholl', 'email': 'dalar@gatech.edu jcamp6@gatech.edu'}], '_method': 'VASP DFT with PBE;DDEC'}
data_CrH4C8O5
_symmetry_space_group_name_H-M   'P 1'
_cell_length_a   6.81200000
_cell_length_b   11.13990017
_cell_length_c   11.13989506
_cell_angle_alpha   97.36152811
_cell_angle_beta   107.80312399
_cell_angle_gamma   107.80310186
_symmetry_Int_Tables_number   1
_chemical_formula_structural   CrH4C8O5
_chemical_formula_sum   'Cr2 H8 C16 O10'
_cell_volume   743.074933573
_cell_formula_units_Z   2
loop_
 _symmetry_equiv_pos_site_id
 _symmetry_equiv_pos_as_xyz
  1  'x, y, z'
loop_
 _atom_site_label
 _atom_site_fract_x
 _atom_site_fract_y
 _atom_site_fract_z
 _atom_site_charge
 Cr 0.0 0.0 0.5   1.848037
 Cr 0.5 0.0 0.5   1.849652
 H 0.36249 0.94811 0.09764   0.157371
 H 0.68326 0.59764 0.44811   0.157955
 H 0.63751 0.40236 0.55189   0.157371
 H 0.31674 0.05189 0.90236   0.157948
 H 0.63751 0.05189 0.90236   0.157372
 H 0.31674 0.40236 0.55189   0.157956
 H 0.36249 0.59764 0.44811   0.157371
 H 0.68326 0.94811 0.09764   0.157949
 C 0.214 0.978 0.058   -0.070555
 C 0.822 0.558 0.478   -0.07285
 C 0.786 0.442 0.522   -0.070564
 C 0.178 0.022 0.942   -0.072851
 C 0.786 0.022 0.942   -0.070555
 C 0.178 0.442 0.522   -0.07285
 C 0.214 0.558 0.478   -0.070564
 C 0.822 0.978 0.058   -0.07285
 C 0.039 0.985 0.093   -0.033239
 C 0.112 0.987 0.237   0.612843
 C 0.039 0.593 0.485   -0.033236
 C 0.112 0.737 0.487   0.612847
 C 0.961 0.407 0.515   -0.033237
 C 0.888 0.263 0.513   0.612845
 C 0.961 0.015 0.907   -0.033239
 C 0.888 0.013 0.763   0.612845
 O 0.313 0.991 0.323   -0.635017
 O 0.000999999999998 0.823 0.491   -0.634697
 O 0.687 0.177 0.509   -0.635018
 O 0.999 0.009 0.677   -0.634695
 O 0.687 0.009 0.677   -0.635017
 O 0.999 0.177 0.509   -0.634697
 O 0.313 0.823 0.491   -0.635018
 O 0.000999999999998 0.991 0.323   -0.634695
 O 0.314 0.064 0.564   -0.81246
 O 0.686 0.936 0.436   -0.81246
