{'_ref': 'TBD', '_srcid': 'CAKYAQ_clean', 'submitters': [{'name': 'Dalar Nazarian Jeff Camp and David Sholl', 'email': 'dalar@gatech.edu jcamp6@gatech.edu'}], '_method': 'VASP DFT with PBE;DDEC'}
data_YbH3C8NO6
_symmetry_space_group_name_H-M   'P 1'
_cell_length_a   7.60260038
_cell_length_b   9.77980000
_cell_length_c   14.64230000
_cell_angle_alpha   90.00000000
_cell_angle_beta   98.07499625
_cell_angle_gamma   90.00000000
_symmetry_Int_Tables_number   1
_chemical_formula_structural   YbH3C8NO6
_chemical_formula_sum   'Yb4 H12 C32 N4 O24'
_cell_volume   1077.88875515
_cell_formula_units_Z   4
loop_
 _symmetry_equiv_pos_site_id
 _symmetry_equiv_pos_as_xyz
  1  'x, y, z'
loop_
 _atom_site_label
 _atom_site_fract_x
 _atom_site_fract_y
 _atom_site_fract_z
 _atom_site_charge
 Yb 0.84802 0.95438 0.63835   1.530638
 Yb 0.65198 0.45438 0.86165   1.530636
 Yb 0.15198 0.04562 0.36165   1.530638
 Yb 0.34802 0.54562 0.13835   1.530636
 H 0.8287 0.385 0.6373   0.11174
 H 0.6142 0.6982 0.4849   0.069719
 H 0.801 0.3884 0.3613   0.093347
 H 0.6713 0.885 0.8627   0.11174
 H 0.8858 0.1982 0.0151   0.069719
 H 0.699 0.8884 0.1387   0.093347
 H 0.1713 0.615 0.3627   0.111739
 H 0.3858 0.3018 0.5151   0.069719
 H 0.199 0.6116 0.6387   0.093346
 H 0.3287 0.115 0.1373   0.111739
 H 0.1142 0.8018 0.9849   0.069719
 H 0.301 0.1116 0.8613   0.093346
 C 0.6935 0.6381 0.6588   0.750356
 C 0.7217 0.5576 0.5756   -0.256639
 C 0.5435 0.9681 0.4602   0.520738
 C 0.7982 0.428 0.5807   0.085334
 C 0.6689 0.6129 0.4883   0.234742
 C 0.9132 0.2249 0.5009   0.772436
 C 0.8282 0.3637 0.4991   -0.241707
 C 0.7762 0.4298 0.4152   0.208812
 C 0.8065 0.1381 0.8412   0.750356
 C 0.7783 0.0576 0.9244   -0.256639
 C 0.9565 0.4681 0.0398   0.520738
 C 0.7018 0.928 0.9193   0.085334
 C 0.8311 0.1129 0.0117   0.234742
 C 0.5868 0.7249 0.9991   0.772436
 C 0.6718 0.8637 0.000900000000001   -0.241707
 C 0.7238 0.9298 0.0848   0.208812
 C 0.3065 0.3619 0.3412   0.750357
 C 0.2783 0.4424 0.4244   -0.256638
 C 0.4565 0.0319 0.5398   0.520733
 C 0.2018 0.572 0.4193   0.085335
 C 0.3311 0.3871 0.5117   0.234744
 C 0.0868 0.7751 0.4991   0.772437
 C 0.1718 0.6363 0.5009   -0.241706
 C 0.2238 0.5702 0.5848   0.208815
 C 0.1935 0.8619 0.1588   0.750357
 C 0.2217 0.9424 0.0756   -0.256638
 C 0.0435 0.5319 0.9602   0.520733
 C 0.2982 0.072 0.0807   0.085335
 C 0.1689 0.8871 0.9883   0.234744
 C 0.4132 0.2751 0.000900000000001   0.772436
 C 0.3282 0.1363 0.9991   -0.241706
 C 0.2762 0.0702 0.9152   0.208815
 N 0.6914 0.5516 0.409   -0.349928
 N 0.8086 0.0516 0.091   -0.349928
 N 0.3086 0.4484 0.591   -0.349928
 N 0.1914 0.9484 0.909   -0.349928
 O 0.669 0.7664 0.64779   -0.645542
 O 0.7039 0.9351 0.4791   -0.46977
 O 0.6959 0.5787 0.7345   -0.627532
 O 0.9041 0.152 0.5707   -0.635962
 O 0.9856 0.1907 0.4325   -0.679291
 O 0.447 0.9556 0.384   -0.471493
 O 0.831 0.2664 0.85221   -0.645542
 O 0.7961 0.4351 0.0209   -0.46977
 O 0.8041 0.0787 0.7655   -0.627532
 O 0.5959 0.652 0.9293   -0.635962
 O 0.5144 0.6907 0.0675   -0.679291
 O 0.053 0.4556 0.116   -0.471493
 O 0.331 0.2336 0.35221   -0.645542
 O 0.2961 0.0649 0.5209   -0.46977
 O 0.3041 0.4213 0.2655   -0.627532
 O 0.0959 0.848 0.4293   -0.635962
 O 0.0144 0.8093 0.5675   -0.679291
 O 0.553 0.0444 0.616   -0.471492
 O 0.169 0.7336 0.14779   -0.645542
 O 0.2039 0.5649 0.9791   -0.469769
 O 0.1959 0.9213 0.2345   -0.627532
 O 0.4041 0.348 0.0707   -0.635962
 O 0.4856 0.3093 0.9325   -0.679291
 O 0.947 0.5444 0.884   -0.471492
