{'_ref': 'TBD', '_srcid': 'CAKYAQ_clean', 'submitters': [{'name': 'Dalar Nazarian Jeff Camp and David Sholl', 'email': 'dalar@gatech.edu jcamp6@gatech.edu'}], '_method': 'VASP DFT with PBE;DDEC'}
data_GdH3C8NO6
_symmetry_space_group_name_H-M   'P 1'
_cell_length_a   7.64349990
_cell_length_b   9.84000000
_cell_length_c   14.78500000
_cell_angle_alpha   90.00000000
_cell_angle_beta   98.26999812
_cell_angle_gamma   90.00000000
_symmetry_Int_Tables_number   1
_chemical_formula_structural   GdH3C8NO6
_chemical_formula_sum   'Gd4 H12 C32 N4 O24'
_cell_volume   1100.44647483
_cell_formula_units_Z   4
loop_
 _symmetry_equiv_pos_site_id
 _symmetry_equiv_pos_as_xyz
  1  'x, y, z'
loop_
 _atom_site_label
 _atom_site_fract_x
 _atom_site_fract_y
 _atom_site_fract_z
 _atom_site_charge
 Gd 0.852 0.04504 0.63922   2.214405
 Gd 0.648 0.54504 0.86078   2.21439
 Gd 0.148 0.95496 0.36079   2.214371
 Gd 0.352 0.45496 0.13922   2.214407
 H 0.6152 0.3017 0.4847   0.068871
 H 0.826 0.6137 0.6355   0.101577
 H 0.7968 0.6102 0.3631   0.077909
 H 0.8848 0.8017 0.0153   0.068872
 H 0.674 0.1137 0.8645   0.101574
 H 0.7032 0.1102 0.1369   0.077906
 H 0.3848 0.6983 0.5153   0.068868
 H 0.174 0.3863 0.3645   0.101577
 H 0.2032 0.3898 0.6369   0.077906
 H 0.1152 0.1983 0.9847   0.068872
 H 0.326 0.8863 0.1355   0.10158
 H 0.2968 0.8898 0.8631   0.077902
 C 0.6692 0.3866 0.48813   0.272653
 C 0.7211 0.4421 0.57389   -0.291118
 C 0.7963 0.5707 0.57936   0.106423
 C 0.8262 0.6335 0.49904   -0.273217
 C 0.774 0.5683 0.41656   0.245857
 C 0.692 0.3627 0.65693   0.838274
 C 0.9113 0.7715 0.50067   0.876086
 C 0.4568 0.9684 0.53902   0.562568
 C 0.8308 0.8866 0.01187   0.272652
 C 0.7789 0.9421 0.92611   -0.291119
 C 0.7037 0.0707 0.92064   0.106421
 C 0.6738 0.1335 0.000959999999999   -0.273217
 C 0.726 0.0683 0.08344   0.245857
 C 0.808 0.8627 0.84307   0.838277
 C 0.5887 0.2715 0.99933   0.876089
 C 0.0432 0.4684 0.96098   0.562573
 C 0.3308 0.6134 0.51187   0.27265
 C 0.2789 0.5579 0.42611   -0.291117
 C 0.2037 0.4293 0.42064   0.106422
 C 0.1738 0.3665 0.50096   -0.27322
 C 0.226 0.4317 0.58344   0.245855
 C 0.308 0.6373 0.34307   0.838276
 C 0.0887 0.2285 0.49933   0.876083
 C 0.5432 0.0316 0.46098   0.562562
 C 0.1692 0.1134 0.98813   0.272651
 C 0.2211 0.0579 0.07389   -0.291108
 C 0.2963 0.9293 0.07936   0.106421
 C 0.3262 0.8665 0.99904   -0.273219
 C 0.274 0.9317 0.91656   0.245854
 C 0.192 0.1373 0.15693   0.83826
 C 0.4113 0.7285 0.000669999999999   0.87609
 C 0.9568 0.5316 0.03902   0.562573
 N 0.6921 0.44746 0.41037   -0.465874
 N 0.8079 0.94746 0.08963   -0.465866
 N 0.3079 0.55254 0.58963   -0.465875
 N 0.1921 0.05254 0.91037   -0.465884
 O 0.66619 0.23598 0.64687   -0.752331
 O 0.6952 0.42332 0.73085   -0.768951
 O 0.9088 0.8419 0.5708   -0.764771
 O 0.9787 0.80587 0.43243   -0.788349
 O 0.5527 0.95198 0.61423   -0.616361
 O 0.29653 0.93687 0.52067   -0.64363
 O 0.83381 0.73598 0.85313   -0.75233
 O 0.8048 0.92332 0.76915   -0.768961
 O 0.5912 0.3419 0.9292   -0.764771
 O 0.5213 0.30587 0.06757   -0.788342
 O 0.9473 0.45198 0.88577   -0.616375
 O 0.20347 0.43687 0.97933   -0.643638
 O 0.33381 0.76402 0.35313   -0.752333
 O 0.3048 0.57668 0.26915   -0.768955
 O 0.0912 0.1581 0.4292   -0.764754
 O 0.0213 0.19413 0.56757   -0.788343
 O 0.4473 0.04802 0.38577   -0.616358
 O 0.70347 0.06313 0.47933   -0.64364
 O 0.16619 0.26402 0.14687   -0.752341
 O 0.1952 0.07668 0.23085   -0.768926
 O 0.4088 0.6581 0.0708   -0.764771
 O 0.4787 0.69413 0.93243   -0.788343
 O 0.0527 0.54802 0.11423   -0.616371
 O 0.79653 0.56313 0.02067   -0.643637
