{'_ref': 'TBD', '_srcid': 'CAKYAQ_clean', 'submitters': [{'name': 'Dalar Nazarian Jeff Camp and David Sholl', 'email': 'dalar@gatech.edu jcamp6@gatech.edu'}], '_method': 'VASP DFT with PBE;DDEC'}
data_Zn2H15C24(NO4)3
_symmetry_space_group_name_H-M   'P 1'
_cell_length_a   12.24220038
_cell_length_b   19.39100000
_cell_length_c   21.94190000
_cell_angle_alpha   90.00000000
_cell_angle_beta   100.86200027
_cell_angle_gamma   90.00000000
_symmetry_Int_Tables_number   1
_chemical_formula_structural   Zn2H15C24(NO4)3
_chemical_formula_sum   'Zn8 H60 C96 N12 O48'
_cell_volume   5115.43436586
_cell_formula_units_Z   4
loop_
 _symmetry_equiv_pos_site_id
 _symmetry_equiv_pos_as_xyz
  1  'x, y, z'
loop_
 _atom_site_label
 _atom_site_fract_x
 _atom_site_fract_y
 _atom_site_fract_z
 _atom_site_charge
 Zn 0.32173 0.72355 0.37329   1.142692
 Zn 0.19194 0.75103 0.62985   1.12913
 Zn 0.17827 0.22355 0.12671   1.142692
 Zn 0.30806 0.25103 0.87015   1.12913
 Zn 0.67827 0.27645 0.62671   1.142693
 Zn 0.80806 0.24897 0.37015   1.12913
 Zn 0.82173 0.77645 0.87329   1.142693
 Zn 0.69194 0.74897 0.12985   1.12913
 H 0.1269 0.4202 0.2855   0.129116
 H 0.1794 0.5327 0.3165   0.11067
 H 0.1243 0.0721 0.7904   0.116416
 H 0.0852 0.9579 0.7598   0.113656
 H 0.749 0.7228 0.6032   0.127027
 H 0.5868 0.7195 0.5273   0.110156
 H 0.3793 0.6029 0.1668   0.34517
 H 0.3763 0.5398 0.1279   0.344526
 H 0.3672 0.9144 0.6441   0.334656
 H 0.4255 0.9821 0.6484   0.352295
 H 0.7249 0.71 0.3431   0.34
 H 0.8475 0.7179 0.3629   0.34734
 H 0.2868 0.4433 0.1399   0.129072
 H 0.3833 0.073 0.7002   0.138178
 H 0.9328 0.7313 0.4655   0.130358
 H 0.3731 0.9202 0.2145   0.129116
 H 0.3206 0.0327 0.1835   0.11067
 H 0.3757 0.5721 0.7096   0.116416
 H 0.4148 0.4579 0.7402   0.113656
 H 0.751 0.2228 0.8968   0.127027
 H 0.9132 0.2195 0.9727   0.110156
 H 0.1207 0.1029 0.3332   0.34517
 H 0.1237 0.0398 0.3721   0.344526
 H 0.1328 0.4144 0.8559   0.334656
 H 0.0745 0.4821 0.8516   0.352295
 H 0.7751 0.21 0.1569   0.34
 H 0.6525 0.2179 0.1371   0.34734
 H 0.2132 0.9433 0.3601   0.129072
 H 0.1167 0.573 0.7998   0.138178
 H 0.5672 0.2313 0.0345   0.130358
 H 0.8731 0.5798 0.7145   0.129116
 H 0.8206 0.4673 0.6835   0.11067
 H 0.8757 0.9279 0.2096   0.116416
 H 0.9148 0.0421 0.2402   0.113656
 H 0.251 0.2772 0.3968   0.127027
 H 0.4132 0.2805 0.4727   0.110156
 H 0.6207 0.3971 0.8332   0.34517
 H 0.6237 0.4602 0.8721   0.344526
 H 0.6328 0.0856 0.3559   0.334656
 H 0.5745 0.0179 0.3516   0.352295
 H 0.2751 0.29 0.6569   0.34
 H 0.1525 0.2821 0.6371   0.34734
 H 0.7132 0.5567 0.8601   0.129072
 H 0.6167 0.927 0.2998   0.138178
 H 0.0672 0.2687 0.5345   0.130358
 H 0.6269 0.0798 0.7855   0.129116
 H 0.6794 0.9673 0.8165   0.11067
 H 0.6243 0.4279 0.2904   0.116416
 H 0.5852 0.5421 0.2598   0.113656
 H 0.249 0.7772 0.1032   0.127027
 H 0.0868 0.7805 0.0273   0.110156
 H 0.8793 0.8971 0.6668   0.34517
 H 0.8763 0.9602 0.6279   0.344526
 H 0.8672 0.5856 0.1441   0.334656
 H 0.9255 0.5179 0.1484   0.352295
 H 0.2249 0.79 0.8431   0.34
 H 0.3475 0.7821 0.8629   0.34734
 H 0.7868 0.0567 0.6399   0.129072
 H 0.8833 0.427 0.2002   0.138178
 H 0.4328 0.7687 0.9655   0.130358
 C 0.3036 0.6249 0.2737   0.671999
 C 0.2669 0.554 0.2498   -0.228409
 C 0.3007 0.5273 0.1968   0.322012
 C 0.2684 0.459 0.1782   -0.211863
 C 0.207 0.4196 0.211   -0.054187
 C 0.1732 0.4474 0.2636   -0.100001
 C 0.2045 0.5135 0.2812   -0.017779
 C 0.1767 0.3465 0.1934   0.647397
 C 0.1817 0.8729 0.6929   0.667713
 C 0.209 0.9472 0.7099   -0.251453
 C 0.2974 0.9807 0.6926   0.329678
 C 0.3236 0.0476 0.7129   -0.19993
 C 0.2596 0.0813 0.7501   -0.055084
 C 0.1701 0.0485 0.7661   -0.110641
 C 0.1458 0.9815 0.7468   -0.012375
 C 0.294 0.1508 0.7752   0.640995
 C 0.5549 0.7167 0.4062   0.671932
 C 0.6621 0.7184 0.4521   -0.218893
 C 0.764 0.7207 0.4334   0.311173
 C 0.8633 0.727 0.4796   -0.191452
 C 0.8561 0.7285 0.5418   -0.061798
 C 0.7536 0.724 0.56   -0.092991
 C 0.6579 0.7203 0.5148   -0.02597
 C 0.9607 0.7356 0.5902   0.63608
 C 0.1964 0.1249 0.2263   0.671999
 C 0.2331 0.054 0.2502   -0.228409
 C 0.1993 0.0273 0.3032   0.322012
 C 0.2316 0.959 0.3218   -0.211863
 C 0.293 0.9196 0.289   -0.054187
 C 0.3268 0.9474 0.2364   -0.100001
 C 0.2955 0.0135 0.2188   -0.017779
 C 0.3233 0.8465 0.3066   0.647397
 C 0.3183 0.3729 0.8071   0.667713
 C 0.291 0.4472 0.7901   -0.251453
 C 0.2026 0.4807 0.8074   0.329678
 C 0.1764 0.5476 0.7871   -0.19993
 C 0.2404 0.5813 0.7499   -0.055084
 C 0.3299 0.5485 0.7339   -0.110641
 C 0.3542 0.4815 0.7532   -0.012375
 C 0.206 0.6508 0.7248   0.640995
 C 0.9451 0.2167 0.0938   0.671932
 C 0.8379 0.2184 0.0479   -0.218893
 C 0.736 0.2207 0.0666   0.311173
 C 0.6367 0.227 0.0204   -0.191452
 C 0.6439 0.2285 0.9582   -0.061798
 C 0.7464 0.224 0.94   -0.092992
 C 0.8421 0.2203 0.9852   -0.02597
 C 0.5393 0.2356 0.9098   0.63608
 C 0.6964 0.3751 0.7263   0.671999
 C 0.7331 0.446 0.7502   -0.228409
 C 0.6993 0.4727 0.8032   0.322012
 C 0.7316 0.541 0.8218   -0.211863
 C 0.793 0.5804 0.789   -0.054187
 C 0.8268 0.5526 0.7364   -0.100001
 C 0.7955 0.4865 0.7188   -0.01778
 C 0.8233 0.6535 0.8066   0.647397
 C 0.8183 0.1271 0.3071   0.667713
 C 0.791 0.0528 0.2901   -0.251453
 C 0.7026 0.0193 0.3074   0.329678
 C 0.6764 0.9524 0.2871   -0.199931
 C 0.7404 0.9187 0.2499   -0.055084
 C 0.8299 0.9515 0.2339   -0.110641
 C 0.8542 0.0185 0.2532   -0.012375
 C 0.706 0.8492 0.2248   0.640995
 C 0.4451 0.2833 0.5938   0.671932
 C 0.3379 0.2816 0.5479   -0.218893
 C 0.236 0.2793 0.5666   0.311172
 C 0.1367 0.273 0.5204   -0.191452
 C 0.1439 0.2715 0.4582   -0.061798
 C 0.2464 0.276 0.44   -0.092992
 C 0.3421 0.2797 0.4852   -0.02597
 C 0.0393 0.2644 0.4098   0.63608
 C 0.8036 0.8751 0.7737   0.671999
 C 0.7669 0.946 0.7498   -0.228409
 C 0.8007 0.9727 0.6968   0.322012
 C 0.7684 0.041 0.6782   -0.211863
 C 0.707 0.0804 0.711   -0.054187
 C 0.6732 0.0526 0.7636   -0.100002
 C 0.7045 0.9865 0.7812   -0.01778
 C 0.6767 0.1535 0.6934   0.647397
 C 0.6817 0.6271 0.1929   0.667713
 C 0.709 0.5528 0.2099   -0.251453
 C 0.7974 0.5193 0.1926   0.329678
 C 0.8236 0.4524 0.2129   -0.199931
 C 0.7596 0.4187 0.2501   -0.055084
 C 0.6701 0.4515 0.2661   -0.110641
 C 0.6458 0.5185 0.2468   -0.012375
 C 0.794 0.3492 0.2752   0.640995
 C 0.0549 0.7833 0.9062   0.671932
 C 0.1621 0.7816 0.9521   -0.218893
 C 0.264 0.7793 0.9334   0.311172
 C 0.3633 0.773 0.9796   -0.191452
 C 0.3561 0.7715 0.0418   -0.061798
 C 0.2536 0.776 0.06   -0.092992
 C 0.1579 0.7797 0.0148   -0.02597
 C 0.4607 0.7644 0.0902   0.63608
 N 0.3587 0.5609 0.1591   -0.59451
 N 0.3727 0.9565 0.6565   -0.666777
 N 0.7822 0.7158 0.372   -0.602578
 N 0.1413 0.0609 0.3409   -0.59451
 N 0.1273 0.4565 0.8435   -0.666777
 N 0.7178 0.2158 0.128   -0.602578
 N 0.6413 0.4391 0.8409   -0.59451
 N 0.6273 0.0435 0.3435   -0.666777
 N 0.2178 0.2842 0.628   -0.602578
 N 0.8587 0.9391 0.6591   -0.59451
 N 0.8727 0.5435 0.1565   -0.666777
 N 0.2822 0.7842 0.872   -0.602578
 O 0.359 0.6601 0.2435   -0.451032
 O 0.2743 0.6431 0.3235   -0.682427
 O 0.1112 0.3163 0.2204   -0.428398
 O 0.2168 0.319 0.1513   -0.668149
 O 0.2308 0.8457 0.654   -0.664398
 O 0.1094 0.8439 0.7163   -0.472764
 O 0.3597 0.1855 0.75   -0.42378
 O 0.2539 0.1723 0.8197   -0.653655
 O 0.5582 0.7109 0.3495   -0.45471
 O 0.4676 0.72 0.4271   -0.6635
 O 0.9519 0.7356 0.6461   -0.422908
 O 0.0516 0.7386 0.5729   -0.657025
 O 0.141 0.1601 0.2565   -0.451032
 O 0.2257 0.1431 0.1765   -0.682427
 O 0.3888 0.8163 0.2796   -0.428398
 O 0.2832 0.819 0.3487   -0.668149
 O 0.2692 0.3457 0.846   -0.664398
 O 0.3906 0.3439 0.7837   -0.472763
 O 0.1403 0.6855 0.75   -0.423779
 O 0.2461 0.6723 0.6803   -0.653655
 O 0.9418 0.2109 0.1505   -0.454709
 O 0.0324 0.22 0.0729   -0.6635
 O 0.5481 0.2356 0.8539   -0.422907
 O 0.4484 0.2386 0.9271   -0.657025
 O 0.641 0.3399 0.7565   -0.451032
 O 0.7257 0.3569 0.6765   -0.682427
 O 0.8888 0.6837 0.7796   -0.428398
 O 0.7832 0.681 0.8487   -0.668149
 O 0.7692 0.1543 0.346   -0.664398
 O 0.8906 0.1561 0.2837   -0.472763
 O 0.6403 0.8145 0.25   -0.423779
 O 0.7461 0.8277 0.1803   -0.653655
 O 0.4418 0.2891 0.6505   -0.454709
 O 0.5324 0.28 0.5729   -0.6635
 O 0.0481 0.2644 0.3539   -0.422907
 O 0.9484 0.2614 0.4271   -0.657025
 O 0.859 0.8399 0.7435   -0.451032
 O 0.7743 0.8569 0.8235   -0.682427
 O 0.6112 0.1837 0.7204   -0.428397
 O 0.7168 0.181 0.6513   -0.668149
 O 0.7308 0.6543 0.154   -0.664398
 O 0.6094 0.6561 0.2163   -0.472763
 O 0.8597 0.3145 0.25   -0.423779
 O 0.7539 0.3277 0.3197   -0.653655
 O 0.0582 0.7891 0.8495   -0.454709
 O 0.9676 0.78 0.9271   -0.6635
 O 0.4519 0.7644 0.1461   -0.422907
 O 0.5516 0.7614 0.0729   -0.657025
