{'_ref': 'TBD', '_srcid': 'CAKYAQ_clean', 'submitters': [{'name': 'Dalar Nazarian Jeff Camp and David Sholl', 'email': 'dalar@gatech.edu jcamp6@gatech.edu'}], '_method': 'VASP DFT with PBE;DDEC'}
data_ThC12(ClO2)4
_symmetry_space_group_name_H-M   'P 1'
_cell_length_a   9.02110013
_cell_length_b   9.02110041
_cell_length_c   12.72000000
_cell_angle_alpha   85.20889902
_cell_angle_beta   85.20889887
_cell_angle_gamma   79.37689921
_symmetry_Int_Tables_number   1
_chemical_formula_structural   ThC12(ClO2)4
_chemical_formula_sum   'Th2 C24 Cl8 O16'
_cell_volume   1011.40475083
_cell_formula_units_Z   2
loop_
 _symmetry_equiv_pos_site_id
 _symmetry_equiv_pos_as_xyz
  1  'x, y, z'
loop_
 _atom_site_label
 _atom_site_fract_x
 _atom_site_fract_y
 _atom_site_fract_z
 _atom_site_charge
 Th 0.26515 0.73485 0.25   2.407271
 Th 0.73485 0.26515 0.75   2.407271
 C 0.0542 0.5082 0.3906   0.356165
 C 0.8791 0.4199 0.5256   0.30327
 C 0.937 0.4266 0.4212   -0.174648
 C 0.084 0.0036 0.0899   0.322945
 C 0.9651 0.1399 0.9388   0.305234
 C 0.0455 0.1391 0.0229   -0.176069
 C 0.4918 0.9458 0.1094   0.356165
 C 0.5801 0.1209 0.9744   0.30327
 C 0.5734 0.063 0.0788   -0.174649
 C 0.9964 0.916 0.4101   0.322945
 C 0.8601 0.0349 0.5612   0.305234
 C 0.8609 0.9545 0.4771   -0.176069
 C 0.9458 0.4918 0.6094   0.356169
 C 0.1209 0.5801 0.4744   0.303275
 C 0.063 0.5734 0.5788   -0.174648
 C 0.916 0.9964 0.9101   0.322948
 C 0.0349 0.8601 0.0612   0.305236
 C 0.9545 0.8609 0.9771   -0.176068
 C 0.5082 0.0542 0.8906   0.356169
 C 0.4199 0.8791 0.0256   0.303275
 C 0.4266 0.937 0.9212   -0.174649
 C 0.0036 0.084 0.5899   0.322949
 C 0.1399 0.9651 0.4388   0.305236
 C 0.1391 0.0455 0.5229   -0.176068
 Cl 0.86863 0.33603 0.3266   -0.027572
 Cl 0.0983 0.3021 0.0586   -0.026982
 Cl 0.66397 0.13137 0.1734   -0.027569
 Cl 0.6979 0.9017 0.4414   -0.026982
 Cl 0.13137 0.66397 0.6734   -0.027574
 Cl 0.9017 0.6979 0.9414   -0.026989
 Cl 0.33603 0.86863 0.8266   -0.027571
 Cl 0.3021 0.0983 0.5586   -0.026989
 O 0.1072 0.5314 0.2986   -0.521012
 O 0.7654 0.3606 0.5587   -0.571181
 O 0.1617 0.9921 0.1684   -0.478631
 O 0.9273 0.2553 0.8758   -0.515158
 O 0.4686 0.8928 0.2014   -0.521012
 O 0.6394 0.2346 0.9413   -0.571181
 O 0.0079 0.8383 0.3316   -0.478631
 O 0.7447 0.0727 0.6242   -0.515158
 O 0.8928 0.4686 0.7014   -0.521012
 O 0.2346 0.6394 0.4413   -0.571182
 O 0.8383 0.0079 0.8316   -0.478631
 O 0.0727 0.7447 0.1242   -0.515158
 O 0.5314 0.1072 0.7986   -0.521012
 O 0.3606 0.7654 0.0587   -0.571181
 O 0.9921 0.1617 0.6684   -0.478631
 O 0.2553 0.9273 0.3758   -0.515158
