{'_ref': 'TBD', '_srcid': 'CAKYAQ_clean', 'submitters': [{'name': 'Dalar Nazarian Jeff Camp and David Sholl', 'email': 'dalar@gatech.edu jcamp6@gatech.edu'}], '_method': 'VASP DFT with PBE;DDEC'}
data_PrPHCO5
_symmetry_space_group_name_H-M   'P 1'
_cell_length_a   6.67639983
_cell_length_b   7.06840034
_cell_length_c   7.81030000
_cell_angle_alpha   111.14100150
_cell_angle_beta   95.41500150
_cell_angle_gamma   90.45700055
_symmetry_Int_Tables_number   1
_chemical_formula_structural   PrPHCO5
_chemical_formula_sum   'Pr2 P2 H2 C2 O10'
_cell_volume   341.887881383
_cell_formula_units_Z   2
loop_
 _symmetry_equiv_pos_site_id
 _symmetry_equiv_pos_as_xyz
  1  'x, y, z'
loop_
 _atom_site_label
 _atom_site_fract_x
 _atom_site_fract_y
 _atom_site_fract_z
 _atom_site_charge
 Pr 0.8682 0.77721 0.06593   2.27973
 Pr 0.1318 0.22279 0.93407   2.279735
 P 0.32502 0.74746 0.97927   1.566348
 P 0.67498 0.25254 0.02073   1.566348
 H 0.3622 0.7204 0.7978   -0.137308
 H 0.6378 0.2796 0.2022   -0.137308
 C 0.061 0.9083 0.5006   0.564983
 C 0.939 0.0917 0.4994   0.564984
 O 0.1985 0.9374 0.0341   -1.071851
 O 0.5198 0.7719 0.1013   -0.89542
 O 0.1832 0.5747 0.975   -1.047429
 O 0.0522 0.7599 0.3522   -0.639195
 O 0.8397 0.076 0.3509   -0.61986
 O 0.8015 0.0626 0.9659   -1.071851
 O 0.4802 0.2281 0.8987   -0.89542
 O 0.8168 0.4253 0.025   -1.047429
 O 0.9478 0.2401 0.6478   -0.639195
 O 0.1603 0.924 0.6491   -0.61986
