{'_ref': 'TBD', '_srcid': 'CAKYAQ_clean', 'submitters': [{'name': 'Dalar Nazarian Jeff Camp and David Sholl', 'email': 'dalar@gatech.edu jcamp6@gatech.edu'}], '_method': 'VASP DFT with PBE;DDEC'}
data_YbPHCO5
_symmetry_space_group_name_H-M   'P 1'
_cell_length_a   6.40749961
_cell_length_b   6.80499950
_cell_length_c   7.66470000
_cell_angle_alpha   111.75299893
_cell_angle_beta   95.85800089
_cell_angle_gamma   91.20399879
_symmetry_Int_Tables_number   1
_chemical_formula_structural   YbPHCO5
_chemical_formula_sum   'Yb2 P2 H2 C2 O10'
_cell_volume   308.157821831
_cell_formula_units_Z   2
loop_
 _symmetry_equiv_pos_site_id
 _symmetry_equiv_pos_as_xyz
  1  'x, y, z'
loop_
 _atom_site_label
 _atom_site_fract_x
 _atom_site_fract_y
 _atom_site_fract_z
 _atom_site_charge
 Yb 0.87751 0.78147 0.06862   1.57379
 Yb 0.12249 0.21853 0.93138   1.57379
 P 0.3311 0.7474 0.9793   1.425823
 P 0.6689 0.2526 0.0207   1.425823
 H 0.3622 0.7204 0.7978   -0.124738
 H 0.6378 0.2796 0.2022   -0.124738
 C 0.0571 0.9018 0.5005   0.541387
 C 0.9429 0.0982 0.4995   0.54139
 O 0.1969 0.9421 0.0353   -0.888554
 O 0.536 0.78 0.1068   -0.758879
 O 0.1816 0.5678 0.9757   -0.849688
 O 0.0494 0.7543 0.3451   -0.468278
 O 0.8545 0.0884 0.3447   -0.450865
 O 0.8031 0.0579 0.9647   -0.888554
 O 0.464 0.22 0.8932   -0.758879
 O 0.8184 0.4322 0.0243   -0.849688
 O 0.9506 0.2457 0.6549   -0.468278
 O 0.1455 0.9116 0.6553   -0.450865
