{'_ref': 'TBD', '_srcid': 'CAKYAQ_clean', 'submitters': [{'name': 'Dalar Nazarian Jeff Camp and David Sholl', 'email': 'dalar@gatech.edu jcamp6@gatech.edu'}], '_method': 'VASP DFT with PBE;DDEC'}
data_ErPHCO5
_symmetry_space_group_name_H-M   'P 1'
_cell_length_a   6.43999962
_cell_length_b   6.83259963
_cell_length_c   7.67470000
_cell_angle_alpha   111.65400065
_cell_angle_beta   95.75700080
_cell_angle_gamma   91.09599885
_symmetry_Int_Tables_number   1
_chemical_formula_structural   ErPHCO5
_chemical_formula_sum   'Er2 P2 H2 C2 O10'
_cell_volume   311.710654037
_cell_formula_units_Z   2
loop_
 _symmetry_equiv_pos_site_id
 _symmetry_equiv_pos_as_xyz
  1  'x, y, z'
loop_
 _atom_site_label
 _atom_site_fract_x
 _atom_site_fract_y
 _atom_site_fract_z
 _atom_site_charge
 Er 0.87665 0.78078 0.0684   1.572781
 Er 0.12335 0.21922 0.9316   1.572783
 P 0.3302 0.7476 0.9792   1.432052
 P 0.6698 0.2524 0.0208   1.43205
 H 0.3622 0.7204 0.7978   -0.12748
 H 0.6378 0.2796 0.2022   -0.127479
 C 0.0562 0.9028 0.5007   0.537873
 C 0.9438 0.0972 0.4993   0.537854
 O 0.1979 0.9417 0.0357   -0.889059
 O 0.5337 0.7792 0.1055   -0.764087
 O 0.1815 0.5699 0.9765   -0.852218
 O 0.0509 0.7525 0.3465   -0.470209
 O 0.8536 0.0845 0.3463   -0.439644
 O 0.8021 0.0583 0.9643   -0.889059
 O 0.4663 0.2208 0.8945   -0.764087
 O 0.8185 0.4301 0.0235   -0.852218
 O 0.9491 0.2475 0.6535   -0.470207
 O 0.1464 0.9155 0.6537   -0.439646
