{'_ref': 'TBD', '_srcid': 'CAKYAQ_clean', 'submitters': [{'name': 'Dalar Nazarian Jeff Camp and David Sholl', 'email': 'dalar@gatech.edu jcamp6@gatech.edu'}], '_method': 'VASP DFT with PBE;DDEC'}
data_DyH12(C5O3)3
_symmetry_space_group_name_H-M   'P 1'
_cell_length_a   8.88020000
_cell_length_b   12.07999977
_cell_length_c   16.61500000
_cell_angle_alpha   90.00000000
_cell_angle_beta   90.00000000
_cell_angle_gamma   109.31999857
_symmetry_Int_Tables_number   1
_chemical_formula_structural   DyH12(C5O3)3
_chemical_formula_sum   'Dy4 H48 C60 O36'
_cell_volume   1681.96639728
_cell_formula_units_Z   4
loop_
 _symmetry_equiv_pos_site_id
 _symmetry_equiv_pos_as_xyz
  1  'x, y, z'
loop_
 _atom_site_label
 _atom_site_fract_x
 _atom_site_fract_y
 _atom_site_fract_z
 _atom_site_charge
 Dy 0.93315 0.95259 0.88221   2.305145
 Dy 0.56685 0.04741 0.38221   2.305145
 Dy 0.06685 0.04741 0.11779   2.305142
 Dy 0.43315 0.95259 0.61779   2.305142
 H 0.4701 0.2803 0.9336   0.095134
 H 0.3778 0.3611 0.9669   0.092448
 H 0.6286 0.465 0.934   0.10047
 H 0.4033 0.4742 0.7261   0.118136
 H 0.8222 0.6418 0.9009   0.114084
 H 0.5967 0.653 0.6942   0.132238
 H 0.9092 0.7255 0.6771   0.104456
 H 0.8272 0.8222 0.6683   0.111998
 H 0.251 0.7946 0.0702   0.098579
 H 0.3812 0.8611 0.0075   0.134498
 H 0.2014 0.504 0.9113   0.11725
 H 0.0135 0.6658 0.0731   0.118347
 H 0.0299 0.7197 0.4336   0.095134
 H 0.1222 0.6389 0.4669   0.092448
 H 0.8714 0.535 0.434   0.10047
 H 0.0967 0.5258 0.2261   0.118134
 H 0.6778 0.3582 0.4009   0.114084
 H 0.9033 0.347 0.1942   0.132238
 H 0.5908 0.2745 0.1771   0.104457
 H 0.6728 0.1778 0.1683   0.111998
 H 0.249 0.2054 0.5702   0.098578
 H 0.1188 0.1389 0.5075   0.134498
 H 0.2986 0.496 0.4113   0.11725
 H 0.4865 0.3342 0.5731   0.118346
 H 0.5299 0.7197 0.0664   0.095133
 H 0.6222 0.6389 0.0331   0.092449
 H 0.3714 0.535 0.066   0.100472
 H 0.5967 0.5258 0.2739   0.118136
 H 0.1778 0.3582 0.0991   0.114084
 H 0.4033 0.347 0.3058   0.132239
 H 0.0908 0.2745 0.3229   0.104458
 H 0.1728 0.1778 0.3317   0.111999
 H 0.749 0.2054 0.9298   0.098577
 H 0.6188 0.1389 0.9925   0.134503
 H 0.7986 0.496 0.0887   0.117252
 H 0.9865 0.3342 0.9269   0.118346
 H 0.9701 0.2803 0.5664   0.095133
 H 0.8778 0.3611 0.5331   0.092449
 H 0.1286 0.465 0.566   0.100472
 H 0.9033 0.4742 0.7739   0.118134
 H 0.3222 0.6418 0.5991   0.114084
 H 0.0967 0.653 0.8058   0.132239
 H 0.4092 0.7255 0.8229   0.104459
 H 0.3272 0.8222 0.8317   0.111999
 H 0.751 0.7946 0.4298   0.098576
 H 0.8812 0.8611 0.4925   0.134503
 H 0.7014 0.504 0.5887   0.117252
 H 0.5135 0.6658 0.4269   0.118346
 C 0.2298 0.194 0.9435   0.77508
 C 0.3743 0.3012 0.9273   -0.066193
 C 0.495 0.4522 0.8334   0.245407
 C 0.6214 0.5023 0.886   -0.221921
 C 0.4866 0.5082 0.7617   -0.17403
 C 0.7369 0.6087 0.8662   -0.132872
 C 0.6023 0.6154 0.7424   -0.177115
 C 0.7256 0.6648 0.7963   0.241968
 C 0.9002 0.7965 0.7008   -0.080972
 C 0.062 0.8909 0.7038   0.77229
 C 0.1581 0.8599 0.9761   0.743028
 C 0.2737 0.8063 0.0131   -0.088914
 C 0.13 0.602 0.9908   0.219848
 C 0.1204 0.5025 0.9471   -0.137563
 C 0.0085 0.5992 0.0437   -0.188365
 C 0.2702 0.806 0.4435   0.77508
 C 0.1257 0.6988 0.4273   -0.066193
 C 0.005 0.5478 0.3334   0.245406
 C 0.8786 0.4977 0.386   -0.221921
 C 0.0134 0.4918 0.2617   -0.174029
 C 0.7631 0.3913 0.3662   -0.132872
 C 0.8977 0.3846 0.2424   -0.177115
 C 0.7744 0.3352 0.2963   0.241968
 C 0.5998 0.2035 0.2008   -0.080972
 C 0.438 0.1091 0.2038   0.77229
 C 0.3419 0.1401 0.4761   0.743028
 C 0.2263 0.1937 0.5131   -0.088913
 C 0.37 0.398 0.4908   0.219848
 C 0.3796 0.4975 0.4471   -0.137563
 C 0.4915 0.4008 0.5437   -0.188365
 C 0.7702 0.806 0.0565   0.77508
 C 0.6257 0.6988 0.0727   -0.066193
 C 0.505 0.5478 0.1666   0.245407
 C 0.3786 0.4977 0.114   -0.221921
 C 0.5134 0.4918 0.2383   -0.174029
 C 0.2631 0.3913 0.1338   -0.132872
 C 0.3977 0.3846 0.2576   -0.177114
 C 0.2744 0.3352 0.2037   0.241968
 C 0.0998 0.2035 0.2992   -0.080973
 C 0.938 0.1091 0.2962   0.77229
 C 0.8419 0.1401 0.0239   0.743028
 C 0.7263 0.1937 0.9869   -0.088915
 C 0.87 0.398 0.0092   0.219847
 C 0.8796 0.4975 0.0529   -0.137555
 C 0.9915 0.4008 0.9563   -0.188357
 C 0.7298 0.194 0.5565   0.77508
 C 0.8743 0.3012 0.5727   -0.066193
 C 0.995 0.4522 0.6666   0.245406
 C 0.1214 0.5023 0.614   -0.221921
 C 0.9866 0.5082 0.7383   -0.174028
 C 0.2369 0.6087 0.6338   -0.132872
 C 0.1023 0.6154 0.7576   -0.177114
 C 0.2256 0.6648 0.7037   0.241968
 C 0.4002 0.7965 0.7992   -0.080973
 C 0.562 0.8909 0.7962   0.77229
 C 0.6581 0.8599 0.5239   0.743028
 C 0.7737 0.8063 0.4869   -0.088914
 C 0.63 0.602 0.5092   0.219847
 C 0.6204 0.5025 0.5529   -0.137555
 C 0.5085 0.5992 0.4563   -0.188356
 O 0.1593 0.1292 0.88653   -0.731971
 O 0.1976 0.1802 0.01721   -0.726617
 O 0.3735 0.3483 0.84898   -0.256453
 O 0.8419 0.7742 0.78259   -0.387211
 O 0.15 0.8998 0.64406   -0.750908
 O 0.0955 0.9551 0.765   -0.753057
 O 0.0991 0.8279 0.90891   -0.648614
 O 0.1313 0.942 0.0133   -0.867968
 O 0.2669 0.6981 0.9783   -0.24967
 O 0.3407 0.8708 0.38653   -0.731971
 O 0.3024 0.8198 0.51721   -0.726617
 O 0.1265 0.6517 0.34898   -0.256453
 O 0.6581 0.2258 0.28259   -0.387211
 O 0.35 0.1002 0.14406   -0.750908
 O 0.4045 0.0449 0.265   -0.753057
 O 0.4009 0.1721 0.40891   -0.648614
 O 0.3687 0.058 0.5133   -0.867968
 O 0.2331 0.3019 0.4783   -0.24967
 O 0.8407 0.8708 0.11347   -0.73197
 O 0.8024 0.8198 0.98279   -0.726617
 O 0.6265 0.6517 0.15102   -0.256453
 O 0.1581 0.2258 0.21741   -0.38721
 O 0.85 0.1002 0.35594   -0.750908
 O 0.9045 0.0449 0.235   -0.753057
 O 0.9009 0.1721 0.09109   -0.648614
 O 0.8687 0.058 0.9867   -0.867968
 O 0.7331 0.3019 0.0217   -0.24967
 O 0.6593 0.1292 0.61347   -0.73197
 O 0.6976 0.1802 0.48279   -0.726617
 O 0.8735 0.3483 0.65102   -0.256453
 O 0.3419 0.7742 0.71741   -0.38721
 O 0.65 0.8998 0.85594   -0.750908
 O 0.5955 0.9551 0.735   -0.753057
 O 0.5991 0.8279 0.59109   -0.648614
 O 0.6313 0.942 0.4867   -0.867968
 O 0.7669 0.6981 0.5217   -0.24967
