{'_ref': 'TBD', '_srcid': 'CAKYAQ_clean', 'submitters': [{'name': 'Dalar Nazarian Jeff Camp and David Sholl', 'email': 'dalar@gatech.edu jcamp6@gatech.edu'}], '_method': 'VASP DFT with PBE;DDEC'}
data_Cd5H8(C13N6)2
_symmetry_space_group_name_H-M   'P 1'
_cell_length_a   11.12899962
_cell_length_b   15.27739984
_cell_length_c   15.27740000
_cell_angle_alpha   62.07459842
_cell_angle_beta   68.63970017
_cell_angle_gamma   68.63969769
_symmetry_Int_Tables_number   1
_chemical_formula_structural   Cd5H8(C13N6)2
_chemical_formula_sum   'Cd10 H16 C52 N24'
_cell_volume   2077.35614719
_cell_formula_units_Z   2
loop_
 _symmetry_equiv_pos_site_id
 _symmetry_equiv_pos_as_xyz
  1  'x, y, z'
loop_
 _atom_site_label
 _atom_site_fract_x
 _atom_site_fract_y
 _atom_site_fract_z
 _atom_site_charge
 Cd 0.0 0.0 0.0   0.936928
 Cd 0.5 0.5 0.5   0.938835
 Cd 0.88272 0.61728 0.11728   0.674864
 Cd 0.11728 0.88272 0.38272   0.674871
 Cd 0.11728 0.38272 0.88272   0.674875
 Cd 0.88272 0.11728 0.61728   0.674869
 Cd 0.45711 0.14124 0.14124   0.499179
 Cd 0.23959 0.35876 0.35876   0.497228
 Cd 0.76041 0.64124 0.64124   0.497033
 Cd 0.54289 0.85876 0.85876   0.499375
 H 0.4999 0.5648 0.2136   0.120732
 H 0.6 0.4665 0.1191   0.155558
 H 0.2217 0.7136 0.0648   0.122307
 H 0.3144 0.6191 0.9665   0.153648
 H 0.5001 0.4352 0.7864   0.120732
 H 0.4 0.5335 0.8809   0.155592
 H 0.7783 0.2864 0.9352   0.122307
 H 0.6856 0.3809 0.0335   0.153683
 H 0.7783 0.9352 0.2864   0.122308
 H 0.6856 0.0335 0.3809   0.153655
 H 0.5001 0.7864 0.4352   0.120732
 H 0.4 0.8809 0.5335   0.155564
 H 0.2217 0.0648 0.7136   0.122307
 H 0.3144 0.9665 0.6191   0.15369
 H 0.4999 0.2136 0.5648   0.120731
 H 0.6 0.1191 0.4665   0.155599
 C 0.9341 0.7653 0.0699   -0.081392
 C 0.3562 0.2476 0.0218   -0.061556
 C 0.2693 0.7347 0.4301   -0.081651
 C 0.1256 0.2524 0.4782   -0.060338
 C 0.7307 0.5699 0.2653   -0.081648
 C 0.8744 0.5218 0.7476   -0.060293
 C 0.0659 0.9301 0.2347   -0.081393
 C 0.6438 0.9782 0.7524   -0.061602
 C 0.0659 0.2347 0.9301   -0.081406
 C 0.6438 0.7524 0.9782   -0.061615
 C 0.7307 0.2653 0.5699   -0.081664
 C 0.8744 0.7476 0.5218   -0.060306
 C 0.2693 0.4301 0.7347   -0.081662
 C 0.1256 0.4782 0.2524   -0.060352
 C 0.9341 0.0699 0.7653   -0.081405
 C 0.3562 0.0218 0.2476   -0.061569
 C 0.9757 0.5243 0.0243   -0.231249
 C 0.0243 0.9757 0.4757   -0.231249
 C 0.0243 0.4757 0.9757   -0.231254
 C 0.9757 0.0243 0.5243   -0.231253
 C 0.6711 0.0876 0.0876   -0.100368
 C 0.4435 0.2325 0.2325   -0.220965
 C 0.3463 0.4124 0.4124   -0.096818
 C 0.4085 0.2675 0.2675   -0.219085
 C 0.6537 0.5876 0.5876   -0.096786
 C 0.5915 0.7325 0.7325   -0.217326
 C 0.3289 0.9124 0.9124   -0.1004
 C 0.5565 0.7675 0.7675   -0.222724
 C 0.4622 0.5758 0.163   0.082875
 C 0.5227 0.5166 0.1068   -0.121498
 C 0.299 0.663 0.0758   0.07988
 C 0.3539 0.6068 0.0166   -0.116412
 C 0.5378 0.4242 0.837   0.082885
 C 0.4773 0.4834 0.8932   -0.12153
 C 0.701 0.337 0.9242   0.079889
 C 0.6461 0.3932 0.9834   -0.116444
 C 0.4679 0.5321 0.0321   0.104263
 C 0.2909 0.7091 0.2091   0.068174
 C 0.5321 0.4679 0.9679   0.104282
 C 0.7091 0.2909 0.7909   0.068175
 C 0.701 0.9242 0.337   0.079885
 C 0.6461 0.9834 0.3932   -0.116433
 C 0.5378 0.837 0.4242   0.082883
 C 0.4773 0.8932 0.4834   -0.121519
 C 0.299 0.0758 0.663   0.079883
 C 0.3539 0.0166 0.6068   -0.116428
 C 0.4622 0.163 0.5758   0.082882
 C 0.5227 0.1068 0.5166   -0.121514
 C 0.5321 0.9679 0.4679   0.104261
 C 0.7091 0.7909 0.2909   0.068174
 C 0.4679 0.0321 0.5321   0.104287
 C 0.2909 0.2091 0.7091   0.068175
 N 0.96 0.8381 0.0505   -0.339025
 N 0.701 0.7002 0.0344   -0.294991
 N 0.3486 0.6619 0.4495   -0.338609
 N 0.9356 0.7998 0.4656   -0.295933
 N 0.6514 0.5505 0.3381   -0.338615
 N 0.0644 0.5344 0.2002   -0.295916
 N 0.04 0.9495 0.1619   -0.339026
 N 0.299 0.9656 0.2998   -0.295008
 N 0.04 0.1619 0.9495   -0.339027
 N 0.299 0.2998 0.9656   -0.29501
 N 0.6514 0.3381 0.5505   -0.338611
 N 0.0644 0.2002 0.5344   -0.295919
 N 0.3486 0.4495 0.6619   -0.338617
 N 0.9356 0.4656 0.7998   -0.295936
 N 0.96 0.0505 0.8381   -0.339028
 N 0.701 0.0344 0.7002   -0.294993
 N 0.7817 0.0608 0.0608   -0.294382
 N 0.4033 0.4392 0.4392   -0.297801
 N 0.5967 0.5608 0.5608   -0.297814
 N 0.2183 0.9392 0.9392   -0.29437
 N 0.3517 0.6483 0.1483   0.107921
 N 0.6483 0.3517 0.8517   0.107921
 N 0.6483 0.8517 0.3517   0.107922
 N 0.3517 0.1483 0.6483   0.107919
