{'_ref': 'TBD', '_srcid': 'CAKYAQ_clean', 'submitters': [{'name': 'Dalar Nazarian Jeff Camp and David Sholl', 'email': 'dalar@gatech.edu jcamp6@gatech.edu'}], '_method': 'VASP DFT with PBE;DDEC'}
data_H4Pb(C2O)4
_symmetry_space_group_name_H-M   'P 1'
_cell_length_a   8.36389957
_cell_length_b   9.96170000
_cell_length_c   17.99140000
_cell_angle_alpha   90.00000000
_cell_angle_beta   90.00000000
_cell_angle_gamma   102.68699827
_symmetry_Int_Tables_number   1
_chemical_formula_structural   H4Pb(C2O)4
_chemical_formula_sum   'H16 Pb4 C32 O16'
_cell_volume   1462.41986401
_cell_formula_units_Z   4
loop_
 _symmetry_equiv_pos_site_id
 _symmetry_equiv_pos_as_xyz
  1  'x, y, z'
loop_
 _atom_site_label
 _atom_site_fract_x
 _atom_site_fract_y
 _atom_site_fract_z
 _atom_site_charge
 H 0.243 0.225 0.713   0.091585
 H 0.257 0.275 0.213   0.091585
 H 0.757 0.775 0.287   0.091585
 H 0.743 0.725 0.787   0.091585
 H 0.326 0.303 0.828   0.040304
 H 0.174 0.197 0.328   0.040304
 H 0.674 0.697 0.172   0.040304
 H 0.826 0.803 0.672   0.040304
 H 0.658 0.147 0.683   0.053497
 H 0.842 0.353 0.183   0.053497
 H 0.342 0.853 0.317   0.053497
 H 0.158 0.647 0.817   0.053497
 H 0.734 0.237 0.797   0.084972
 H 0.766 0.263 0.297   0.084972
 H 0.266 0.763 0.203   0.084972
 H 0.234 0.737 0.703   0.084972
 Pb 0.74758 0.49553 0.0289   1.191808
 Pb 0.75242 0.00447 0.5289   1.191808
 Pb 0.25242 0.50447 0.9711   1.191808
 Pb 0.24758 0.99553 0.4711   1.191808
 C 0.5381 0.278 0.8263   -0.15461
 C 0.9619 0.222 0.3263   -0.15461
 C 0.4619 0.722 0.1737   -0.15461
 C 0.0381 0.778 0.6737   -0.15461
 C 0.3816 0.2778 0.8007   0.005903
 C 0.1184 0.2222 0.3007   0.005903
 C 0.6184 0.7222 0.1993   0.005903
 C 0.8816 0.7778 0.6993   0.005903
 C 0.3346 0.2303 0.7303   -0.033872
 C 0.1654 0.2697 0.2303   -0.033872
 C 0.6654 0.7697 0.2697   -0.033872
 C 0.8346 0.7303 0.7697   -0.033872
 C 0.4416 0.1832 0.6842   -0.136988
 C 0.0584 0.3168 0.1842   -0.136988
 C 0.5584 0.8168 0.3158   -0.136988
 C 0.9416 0.6832 0.8158   -0.136988
 C 0.5971 0.1817 0.7096   -0.031567
 C 0.9029 0.3183 0.2096   -0.031567
 C 0.4029 0.8183 0.2904   -0.031567
 C 0.0971 0.6817 0.7904   -0.031567
 C 0.6448 0.2303 0.7802   -0.00973
 C 0.8552 0.2697 0.2802   -0.00973
 C 0.3552 0.7697 0.2198   -0.00973
 C 0.1448 0.7303 0.7198   -0.00973
 C 0.5901 0.3316 0.9022   0.679676
 C 0.9099 0.1684 0.4022   0.679676
 C 0.4099 0.6684 0.0978   0.679676
 C 0.0901 0.8316 0.5978   0.679676
 C 0.3918 0.1366 0.6063   0.674558
 C 0.1082 0.3634 0.1063   0.674558
 C 0.6082 0.8634 0.3937   0.674558
 C 0.8918 0.6366 0.8937   0.674558
 O 0.733 0.3291 0.9245   -0.578279
 O 0.767 0.1709 0.4245   -0.578279
 O 0.267 0.6709 0.0755   -0.578279
 O 0.233 0.8291 0.5755   -0.578279
 O 0.493 0.3795 0.94272   -0.653057
 O 0.007 0.1205 0.44272   -0.653057
 O 0.507 0.6205 0.05728   -0.653057
 O 0.993 0.8795 0.55728   -0.653057
 O 0.249 0.1397 0.58391   -0.574412
 O 0.251 0.3603 0.08391   -0.574412
 O 0.751 0.8603 0.41609   -0.574412
 O 0.749 0.6397 0.91609   -0.574412
 O 0.4912 0.0938 0.56468   -0.64979
 O 0.0088 0.4062 0.06468   -0.64979
 O 0.5088 0.9062 0.43532   -0.64979
 O 0.9912 0.5938 0.93532   -0.64979
