{'_ref': 'TBD', '_srcid': 'CAKYAQ_clean', 'submitters': [{'name': 'Dalar Nazarian Jeff Camp and David Sholl', 'email': 'dalar@gatech.edu jcamp6@gatech.edu'}], '_method': 'VASP DFT with PBE;DDEC'}
data_Ag7C14(OF)12
_symmetry_space_group_name_H-M   'P 1'
_cell_length_a   10.05450000
_cell_length_b   15.29380000
_cell_length_c   20.44660000
_cell_angle_alpha   90.00000000
_cell_angle_beta   90.00000000
_cell_angle_gamma   90.00000000
_symmetry_Int_Tables_number   1
_chemical_formula_structural   Ag7C14(OF)12
_chemical_formula_sum   'Ag28 C56 O48 F48'
_cell_volume   3144.1045993
_cell_formula_units_Z   4
loop_
 _symmetry_equiv_pos_site_id
 _symmetry_equiv_pos_as_xyz
  1  'x, y, z'
loop_
 _atom_site_label
 _atom_site_fract_x
 _atom_site_fract_y
 _atom_site_fract_z
 _atom_site_charge
 Ag 0.39758 0.91127 0.58785   0.573353
 Ag 0.5529 0.87012 0.47329   0.498183
 Ag 0.10242 0.08873 0.08785   0.573353
 Ag 0.9471 0.12988 0.97329   0.498183
 Ag 0.60242 0.41127 0.41215   0.573353
 Ag 0.4471 0.37012 0.52671   0.498183
 Ag 0.89758 0.58873 0.91215   0.573353
 Ag 0.0529 0.62988 0.02671   0.498183
 Ag 0.60242 0.08873 0.41215   0.573314
 Ag 0.4471 0.12988 0.52671   0.49816
 Ag 0.89758 0.91127 0.91215   0.573314
 Ag 0.0529 0.87012 0.02671   0.49816
 Ag 0.39758 0.58873 0.58785   0.573314
 Ag 0.5529 0.62988 0.47329   0.49816
 Ag 0.10242 0.41127 0.08785   0.573314
 Ag 0.9471 0.37012 0.97329   0.49816
 Ag 0.3466 0.75 0.65707   0.6321
 Ag 0.32488 0.75 0.46093   0.662232
 Ag 0.70767 0.75 0.55688   0.704625
 Ag 0.1534 0.25 0.15707   0.6321
 Ag 0.17512 0.25 0.96093   0.662232
 Ag 0.79233 0.25 0.05688   0.704625
 Ag 0.6534 0.25 0.34293   0.632102
 Ag 0.67512 0.25 0.53907   0.662232
 Ag 0.29233 0.25 0.44312   0.704626
 Ag 0.8466 0.75 0.84293   0.632102
 Ag 0.82488 0.75 0.03907   0.662232
 Ag 0.20767 0.75 0.94312   0.704626
 C 0.4679 0.7897 0.5533   -0.589497
 C 0.2292 0.938 0.7081   0.563419
 C 0.1504 0.9911 0.7601   0.281494
 C 0.2304 0.011 0.8226   0.274706
 C 0.1599 0.0725 0.8715   0.571304
 C 0.8337 0.9326 0.4855   0.581884
 C 0.961 0.9864 0.47   0.275057
 C 0.0321 0.2103 0.0533   -0.589497
 C 0.2708 0.062 0.2081   0.563419
 C 0.3496 0.0089 0.2601   0.281494
 C 0.2696 0.989 0.3226   0.274706
 C 0.3401 0.9275 0.3715   0.571304
 C 0.6663 0.0674 0.9855   0.581884
 C 0.539 0.0136 0.97   0.275057
 C 0.5321 0.2897 0.4467   -0.589497
 C 0.7708 0.438 0.2919   0.563419
 C 0.8496 0.4911 0.2399   0.281494
 C 0.7696 0.511 0.1774   0.274706
 C 0.8401 0.5725 0.1285   0.571304
 C 0.1663 0.4326 0.5145   0.581884
 C 0.039 0.4864 0.53   0.275057
 C 0.9679 0.7103 0.9467   -0.589497
 C 0.7292 0.562 0.7919   0.563419
 C 0.6504 0.5089 0.7399   0.281494
 C 0.7304 0.489 0.6774   0.274706
 C 0.6599 0.4275 0.6285   0.571304
 C 0.3337 0.5674 0.0145   0.581884
 C 0.461 0.5136 0.03   0.275057
 C 0.5321 0.2103 0.4467   -0.589192
 C 0.7708 0.062 0.2919   0.563418
 C 0.8496 0.0089 0.2399   0.281494
 C 0.7696 0.989 0.1774   0.274706
 C 0.8401 0.9275 0.1285   0.571305
 C 0.1663 0.0674 0.5145   0.581885
 C 0.039 0.0136 0.53   0.275056
 C 0.9679 0.7897 0.9467   -0.589192
 C 0.7292 0.938 0.7919   0.563418
 C 0.6504 0.9911 0.7399   0.281494
 C 0.7304 0.011 0.6774   0.274706
 C 0.6599 0.0725 0.6285   0.571305
 C 0.3337 0.9326 0.0145   0.581885
 C 0.461 0.9864 0.03   0.275056
 C 0.4679 0.7103 0.5533   -0.589192
 C 0.2292 0.562 0.7081   0.563418
 C 0.1504 0.5089 0.7601   0.281494
 C 0.2304 0.489 0.8226   0.274706
 C 0.1599 0.4275 0.8715   0.571305
 C 0.8337 0.5674 0.4855   0.581885
 C 0.961 0.5136 0.47   0.275056
 C 0.0321 0.2897 0.0533   -0.589192
 C 0.2708 0.438 0.2081   0.563418
 C 0.3496 0.4911 0.2601   0.281494
 C 0.2696 0.511 0.3226   0.274706
 C 0.3401 0.5725 0.3715   0.571305
 C 0.6663 0.4326 0.9855   0.581885
 C 0.539 0.4864 0.97   0.275056
 O 0.2808 0.9813 0.664   -0.488145
 O 0.2313 0.8581 0.7169   -0.519034
 O 0.0615 0.0409 0.8999   -0.538804
 O 0.207 0.1473 0.8762   -0.482265
 O 0.7284 0.9721 0.4819   -0.523119
 O 0.8548 0.8531 0.4976   -0.5306
 O 0.2192 0.0187 0.164   -0.488145
 O 0.2687 0.1419 0.2169   -0.519034
 O 0.4385 0.9591 0.3999   -0.538804
 O 0.293 0.8527 0.3762   -0.482265
 O 0.7716 0.0279 0.9819   -0.523119
 O 0.6452 0.1469 0.9976   -0.5306
 O 0.7192 0.4813 0.336   -0.488145
 O 0.7687 0.3581 0.2831   -0.519034
 O 0.9385 0.5409 0.1001   -0.538804
 O 0.793 0.6473 0.1238   -0.482265
 O 0.2716 0.4721 0.5181   -0.523119
 O 0.1452 0.3531 0.5024   -0.5306
 O 0.7808 0.5187 0.836   -0.488145
 O 0.7313 0.6419 0.7831   -0.519034
 O 0.5615 0.4591 0.6001   -0.538804
 O 0.707 0.3527 0.6238   -0.482265
 O 0.2284 0.5279 0.0181   -0.523119
 O 0.3548 0.6469 0.0024   -0.5306
 O 0.7192 0.0187 0.336   -0.488139
 O 0.7687 0.1419 0.2831   -0.519033
 O 0.9385 0.9591 0.1001   -0.538806
 O 0.793 0.8527 0.1238   -0.482266
 O 0.2716 0.0279 0.5181   -0.523121
 O 0.1452 0.1469 0.5024   -0.530599
 O 0.7808 0.9813 0.836   -0.488139
 O 0.7313 0.8581 0.7831   -0.519033
 O 0.5615 0.0409 0.6001   -0.538806
 O 0.707 0.1473 0.6238   -0.482266
 O 0.2284 0.9721 0.0181   -0.523121
 O 0.3548 0.8531 0.0024   -0.530599
 O 0.2808 0.5187 0.664   -0.488139
 O 0.2313 0.6419 0.7169   -0.519033
 O 0.0615 0.4591 0.8999   -0.538806
 O 0.207 0.3527 0.8762   -0.482266
 O 0.7284 0.5279 0.4819   -0.523121
 O 0.8548 0.6469 0.4976   -0.530599
 O 0.2192 0.4813 0.164   -0.488139
 O 0.2687 0.3581 0.2169   -0.519033
 O 0.4385 0.5409 0.3999   -0.538806
 O 0.293 0.6473 0.3762   -0.482266
 O 0.7716 0.4721 0.9819   -0.523121
 O 0.6452 0.3531 0.9976   -0.530599
 F 0.1099 0.0685 0.73593   -0.135794
 F 0.0393 0.9459 0.7768   -0.17133
 F 0.3457 0.0458 0.803   -0.142529
 F 0.2589 0.9348 0.8525   -0.177283
 F 0.9371 0.0586 0.434   -0.153568
 F 0.0495 0.9381 0.4336   -0.167032
 F 0.3901 0.9315 0.23593   -0.135794
 F 0.4607 0.0541 0.2768   -0.17133
 F 0.1543 0.9542 0.303   -0.142529
 F 0.2411 0.0652 0.3525   -0.177282
 F 0.5629 0.9414 0.934   -0.153568
 F 0.4505 0.0619 0.9336   -0.167032
 F 0.8901 0.5685 0.26407   -0.135794
 F 0.9607 0.4459 0.2232   -0.17133
 F 0.6543 0.5458 0.197   -0.142529
 F 0.7411 0.4348 0.1475   -0.177282
 F 0.0629 0.5586 0.566   -0.153568
 F 0.9505 0.4381 0.5664   -0.167032
 F 0.6099 0.4315 0.76407   -0.135794
 F 0.5393 0.5541 0.7232   -0.17133
 F 0.8457 0.4542 0.697   -0.142529
 F 0.7589 0.5652 0.6475   -0.177282
 F 0.4371 0.4414 0.066   -0.153568
 F 0.5495 0.5619 0.0664   -0.167032
 F 0.8901 0.9315 0.26407   -0.135796
 F 0.9607 0.0541 0.2232   -0.171331
 F 0.6543 0.9542 0.197   -0.14253
 F 0.7411 0.0652 0.1475   -0.177282
 F 0.0629 0.9414 0.566   -0.153569
 F 0.9505 0.0619 0.5664   -0.167032
 F 0.6099 0.0685 0.76407   -0.135796
 F 0.5393 0.9459 0.7232   -0.171331
 F 0.8457 0.0458 0.697   -0.14253
 F 0.7589 0.9348 0.6475   -0.177282
 F 0.4371 0.0586 0.066   -0.153569
 F 0.5495 0.9381 0.0664   -0.167032
 F 0.1099 0.4315 0.73593   -0.135796
 F 0.0393 0.5541 0.7768   -0.171331
 F 0.3457 0.4542 0.803   -0.14253
 F 0.2589 0.5652 0.8525   -0.177282
 F 0.9371 0.4414 0.434   -0.153569
 F 0.0495 0.5619 0.4336   -0.167032
 F 0.3901 0.5685 0.23593   -0.135796
 F 0.4607 0.4459 0.2768   -0.171331
 F 0.1543 0.5458 0.303   -0.14253
 F 0.2411 0.4348 0.3525   -0.177282
 F 0.5629 0.5586 0.934   -0.153569
 F 0.4505 0.4381 0.9336   -0.167032
