{'_ref': 'TBD', '_srcid': 'CAKYAQ_clean', 'submitters': [{'name': 'Dalar Nazarian Jeff Camp and David Sholl', 'email': 'dalar@gatech.edu jcamp6@gatech.edu'}], '_method': 'VASP DFT with PBE;DDEC'}
data_Ag15C28(OF)24
_symmetry_space_group_name_H-M   'P 1'
_cell_length_a   10.55690000
_cell_length_b   14.84590000
_cell_length_c   19.06630000
_cell_angle_alpha   90.00000000
_cell_angle_beta   90.00000000
_cell_angle_gamma   90.00000000
_symmetry_Int_Tables_number   1
_chemical_formula_structural   Ag15C28(OF)24
_chemical_formula_sum   'Ag30 C56 O48 F48'
_cell_volume   2988.19793149
_cell_formula_units_Z   2
loop_
 _symmetry_equiv_pos_site_id
 _symmetry_equiv_pos_as_xyz
  1  'x, y, z'
loop_
 _atom_site_label
 _atom_site_fract_x
 _atom_site_fract_y
 _atom_site_fract_z
 _atom_site_charge
 Ag 0.64884 0.14975 0.35239   0.550709
 Ag 0.87268 0.10244 0.45174   0.606246
 Ag 0.1474 0.84965 0.0156   0.558836
 Ag 0.35584 0.88891 0.91752   0.518441
 Ag 0.35116 0.35025 0.85239   0.550709
 Ag 0.12732 0.39756 0.95174   0.606246
 Ag 0.8526 0.65035 0.5156   0.558836
 Ag 0.64416 0.61109 0.41752   0.518441
 Ag 0.35116 0.64975 0.85239   0.550708
 Ag 0.12732 0.60244 0.95174   0.606249
 Ag 0.8526 0.34965 0.5156   0.558835
 Ag 0.64416 0.38891 0.41752   0.518442
 Ag 0.64884 0.85025 0.35239   0.550708
 Ag 0.87268 0.89756 0.45174   0.606249
 Ag 0.1474 0.15035 0.0156   0.558835
 Ag 0.35584 0.11109 0.91752   0.518442
 Ag 0.56787 0.0 0.26558   0.511453
 Ag 0.58957 0.0 0.45139   0.637987
 Ag 0.86943 0.0 0.25131   0.663508
 Ag 0.03389 0.0 0.08398   0.493769
 Ag 0.08674 0.0 0.91582   0.609797
 Ag 0.31139 0.0 0.13732   0.596588
 Ag 0.51993 0.0 0.00289   0.699865
 Ag 0.43213 0.5 0.76558   0.511453
 Ag 0.41043 0.5 0.95139   0.637987
 Ag 0.13057 0.5 0.75131   0.663508
 Ag 0.96611 0.5 0.58398   0.493769
 Ag 0.91326 0.5 0.41582   0.609797
 Ag 0.68861 0.5 0.63732   0.596588
 Ag 0.48007 0.5 0.50289   0.699865
 C 0.922 0.1788 0.1407   0.559042
 C 0.8503 0.2414 0.1907   0.271594
 C 0.9173 0.2594 0.2608   0.275392
 C 0.8501 0.3245 0.3129   0.565498
 C 0.442 0.8203 0.2219   0.569663
 C 0.354 0.7622 0.1727   0.261868
 C 0.416 0.7446 0.1017   0.281144
 C 0.3419 0.6805 0.0546   0.546588
 C 0.4203 0.1906 0.4401   0.55582
 C 0.3 0.2406 0.4629   0.290726
 C 0.2024 0.2589 0.4059   0.270562
 C 0.0808 0.3073 0.4325   0.573183
 C 0.078 0.3212 0.6407   0.559042
 C 0.1497 0.2586 0.6907   0.271594
 C 0.0827 0.2406 0.7608   0.275392
 C 0.1499 0.1755 0.8129   0.565498
 C 0.558 0.6797 0.7219   0.569663
 C 0.646 0.7378 0.6727   0.261868
 C 0.584 0.7554 0.6017   0.281144
 C 0.6581 0.8195 0.5546   0.546588
 C 0.5797 0.3094 0.9401   0.55582
 C 0.7 0.2594 0.9629   0.290726
 C 0.7976 0.2411 0.9059   0.270562
 C 0.9192 0.1927 0.9325   0.573183
 C 0.078 0.6788 0.6407   0.559042
 C 0.1497 0.7414 0.6907   0.271594
 C 0.0827 0.7594 0.7608   0.275392
 C 0.1499 0.8245 0.8129   0.565498
 C 0.558 0.3203 0.7219   0.569663
 C 0.646 0.2622 0.6727   0.261868
 C 0.584 0.2446 0.6017   0.281144
 C 0.6581 0.1805 0.5546   0.546588
 C 0.5797 0.6906 0.9401   0.555819
 C 0.7 0.7406 0.9629   0.290726
 C 0.7976 0.7589 0.9059   0.270562
 C 0.9192 0.8073 0.9325   0.573183
 C 0.922 0.8212 0.1407   0.559042
 C 0.8503 0.7586 0.1907   0.271594
 C 0.9173 0.7406 0.2608   0.275392
 C 0.8501 0.6755 0.3129   0.565498
 C 0.442 0.1797 0.2219   0.569663
 C 0.354 0.2378 0.1727   0.261868
 C 0.416 0.2554 0.1017   0.281144
 C 0.3419 0.3195 0.0546   0.546588
 C 0.4203 0.8094 0.4401   0.555819
 C 0.3 0.7594 0.4629   0.290726
 C 0.2024 0.7411 0.4059   0.270562
 C 0.0808 0.6927 0.4325   0.573183
 C 0.722 0.0 0.336   -0.626929
 C 0.798 0.0 0.3834   -0.54444
 C 0.2105 0.0 0.0271   -0.599947
 C 0.3118 0.0 0.9962   -0.550034
 C 0.278 0.5 0.836   -0.626929
 C 0.202 0.5 0.8834   -0.54444
 C 0.7895 0.5 0.5271   -0.599947
 C 0.6882 0.5 0.4962   -0.550034
 O 0.899 0.0942 0.1447   -0.557135
 O 0.9963 0.2154 0.0989   -0.498487
 O 0.757 0.2914 0.3448   -0.528042
 O 0.8923 0.4006 0.3172   -0.476919
 O 0.4493 0.9004 0.2029   -0.562014
 O 0.491 0.7836 0.273   -0.481426
 O 0.2527 0.7107 0.0204   -0.529957
 O 0.3793 0.6 0.0549   -0.479427
 O 0.5155 0.2396 0.426   -0.546953
 O 0.4128 0.1081 0.4348   -0.48614
 O 0.0935 0.3886 0.445   -0.534353
 O 0.9857 0.2604 0.4409   -0.539655
 O 0.101 0.4058 0.6447   -0.557135
 O 0.0037 0.2846 0.5989   -0.498487
 O 0.243 0.2086 0.8448   -0.528042
 O 0.1077 0.0994 0.8172   -0.476919
 O 0.5507 0.5996 0.7029   -0.562014
 O 0.509 0.7164 0.773   -0.481426
 O 0.7473 0.7893 0.5204   -0.529957
 O 0.6207 0.9 0.5549   -0.479427
 O 0.4845 0.2604 0.926   -0.546953
 O 0.5872 0.3919 0.9348   -0.48614
 O 0.9065 0.1114 0.945   -0.534353
 O 0.0143 0.2396 0.9409   -0.539655
 O 0.101 0.5942 0.6447   -0.557135
 O 0.0037 0.7154 0.5989   -0.498487
 O 0.243 0.7914 0.8448   -0.528042
 O 0.1077 0.9006 0.8172   -0.476921
 O 0.5507 0.4004 0.7029   -0.562014
 O 0.509 0.2836 0.773   -0.481426
 O 0.7473 0.2107 0.5204   -0.529957
 O 0.6207 0.1 0.5549   -0.479429
 O 0.4845 0.7396 0.926   -0.546952
 O 0.5872 0.6081 0.9348   -0.486139
 O 0.9065 0.8886 0.945   -0.534353
 O 0.0143 0.7604 0.9409   -0.539655
 O 0.899 0.9058 0.1447   -0.557135
 O 0.9963 0.7846 0.0989   -0.498487
 O 0.757 0.7086 0.3448   -0.528042
 O 0.8923 0.5994 0.3172   -0.476921
 O 0.4493 0.0996 0.2029   -0.562014
 O 0.491 0.2164 0.273   -0.481426
 O 0.2527 0.2893 0.0204   -0.529957
 O 0.3793 0.4 0.0549   -0.479429
 O 0.5155 0.7604 0.426   -0.546952
 O 0.4128 0.8919 0.4348   -0.486139
 O 0.0935 0.6114 0.445   -0.534353
 O 0.9857 0.7396 0.4409   -0.539655
 F 0.8252 0.3215 0.1625   -0.122378
 F 0.7359 0.2035 0.2067   -0.184892
 F 0.0345 0.288 0.2447   -0.136323
 F 0.936 0.1763 0.2933   -0.215484
 F 0.3309 0.6809 0.2035   -0.137903
 F 0.2404 0.8036 0.163   -0.165985
 F 0.5345 0.7119 0.1133   -0.139252
 F 0.4288 0.8243 0.0686   -0.201788
 F 0.3303 0.3195 0.4949   -0.194725
 F 0.2394 0.1912 0.5144   -0.170763
 F 0.1744 0.1807 0.3756   -0.152218
 F 0.2611 0.311 0.3578   -0.158898
 F 0.1748 0.1785 0.6625   -0.122379
 F 0.2641 0.2965 0.7067   -0.184892
 F 0.9655 0.212 0.7447   -0.136323
 F 0.064 0.3237 0.7933   -0.215484
 F 0.6691 0.8191 0.7035   -0.137903
 F 0.7596 0.6964 0.663   -0.165985
 F 0.4655 0.7881 0.6133   -0.139252
 F 0.5712 0.6757 0.5686   -0.201788
 F 0.6697 0.1805 0.9949   -0.194725
 F 0.7606 0.3088 0.0144   -0.170763
 F 0.8256 0.3193 0.8756   -0.152218
 F 0.7389 0.189 0.8578   -0.158898
 F 0.1748 0.8215 0.6625   -0.12238
 F 0.2641 0.7035 0.7067   -0.184892
 F 0.9655 0.788 0.7447   -0.136324
 F 0.064 0.6763 0.7933   -0.215484
 F 0.6691 0.1809 0.7035   -0.137904
 F 0.7596 0.3036 0.663   -0.165985
 F 0.4655 0.2119 0.6133   -0.139253
 F 0.5712 0.3243 0.5686   -0.201788
 F 0.6697 0.8195 0.9949   -0.194725
 F 0.7606 0.6912 0.0144   -0.170763
 F 0.8256 0.6807 0.8756   -0.152218
 F 0.7389 0.811 0.8578   -0.158898
 F 0.8252 0.6785 0.1625   -0.12238
 F 0.7359 0.7965 0.2067   -0.184892
 F 0.0345 0.712 0.2447   -0.136324
 F 0.936 0.8237 0.2933   -0.215484
 F 0.3309 0.3191 0.2035   -0.137904
 F 0.2404 0.1964 0.163   -0.165985
 F 0.5345 0.2881 0.1133   -0.139253
 F 0.4288 0.1757 0.0686   -0.201788
 F 0.3303 0.6805 0.4949   -0.194725
 F 0.2394 0.8088 0.5144   -0.170763
 F 0.1744 0.8193 0.3756   -0.152218
 F 0.2611 0.689 0.3578   -0.158898
