{'_ref': 'TBD', '_srcid': 'CAKYAQ_clean', 'submitters': [{'name': 'Dalar Nazarian Jeff Camp and David Sholl', 'email': 'dalar@gatech.edu jcamp6@gatech.edu'}], '_method': 'VASP DFT with PBE;DDEC'}
data_CdH21C28(NO)4
_symmetry_space_group_name_H-M   'P 1'
_cell_length_a   10.59030000
_cell_length_b   13.36199968
_cell_length_c   20.90700000
_cell_angle_alpha   90.00000000
_cell_angle_beta   90.00000000
_cell_angle_gamma   113.34600004
_symmetry_Int_Tables_number   1
_chemical_formula_structural   CdH21C28(NO)4
_chemical_formula_sum   'Cd4 H84 C112 N16 O16'
_cell_volume   2716.28238754
_cell_formula_units_Z   4
loop_
 _symmetry_equiv_pos_site_id
 _symmetry_equiv_pos_as_xyz
  1  'x, y, z'
loop_
 _atom_site_label
 _atom_site_fract_x
 _atom_site_fract_y
 _atom_site_fract_z
 _atom_site_charge
 Cd 0.40392 0.5352 0.43566   0.963379
 Cd 0.59608 0.4648 0.93566   0.963379
 Cd 0.13128 0.5352 0.06434   0.963953
 Cd 0.86872 0.4648 0.56434   0.963953
 H 0.2191 0.4632 0.6462   0.088434
 H 0.3627 0.3742 0.8022   0.083922
 H 0.5546 0.386 0.7476   0.103676
 H 0.5601 0.3784 0.4761   0.090046
 H 0.4207 0.3772 0.3044   0.102286
 H 0.5251 0.246 0.3059   0.122311
 H 0.7226 0.2714 0.4518   0.100664
 H 0.5821 0.1698 0.4556   0.092205
 H 0.5105 0.0372 0.3681   0.115934
 H 0.578 0.9584 0.2831   0.096919
 H 0.9514 0.1968 0.2885   0.103613
 H 0.8856 0.2836 0.3696   0.12577
 H 0.917 0.6568 0.047   0.102299
 H 0.2952 0.8122 0.1066   0.097592
 H 0.1895 0.947 0.1027   0.129705
 H 0.9529 0.9146 0.0256   0.07523
 H 0.8337 0.8036 0.0437   0.115581
 H 0.7545 0.777 0.1599   0.097735
 H 0.7141 0.8616 0.2498   0.083473
 H 0.9425 0.151 0.1789   0.090543
 H 0.000399999999999 0.0704 0.0929   0.10271
 H 0.7809 0.5368 0.1462   0.088434
 H 0.6373 0.6258 0.3022   0.083922
 H 0.4454 0.614 0.2476   0.103678
 H 0.4399 0.6216 0.9761   0.090046
 H 0.5793 0.6228 0.8044   0.102286
 H 0.4749 0.754 0.8059   0.122311
 H 0.2774 0.7286 0.9518   0.100664
 H 0.4179 0.8302 0.9556   0.092205
 H 0.4895 0.9628 0.8681   0.115934
 H 0.422 0.0416 0.7831   0.09692
 H 0.0486 0.8032 0.7885   0.103613
 H 0.1144 0.7164 0.8696   0.12577
 H 0.083 0.3432 0.547   0.102299
 H 0.7048 0.1878 0.6066   0.097592
 H 0.8105 0.053 0.6027   0.129705
 H 0.0471 0.0854 0.5256   0.07523
 H 0.1663 0.1964 0.5437   0.115581
 H 0.2455 0.223 0.6599   0.097735
 H 0.2859 0.1384 0.7498   0.083473
 H 0.0575 0.849 0.6789   0.090543
 H 0.9996 0.9296 0.5929   0.10271
 H 0.2441 0.4632 0.8538   0.088265
 H 0.0115 0.3742 0.6978   0.083309
 H 0.8314 0.386 0.7524   0.103847
 H 0.8183 0.3784 0.0239   0.09003
 H 0.9565 0.3772 0.1956   0.102516
 H 0.7209 0.246 0.1941   0.121805
 H 0.5488 0.2714 0.0482   0.100712
 H 0.5877 0.1698 0.0444   0.092468
 H 0.5267 0.0372 0.1319   0.115965
 H 0.3804 0.9584 0.2169   0.096711
 H 0.2454 0.1968 0.2115   0.103211
 H 0.398 0.2836 0.1304   0.125834
 H 0.7398 0.6568 0.453   0.102105
 H 0.517 0.8122 0.3934   0.098327
 H 0.7575 0.947 0.3973   0.129898
 H 0.9617 0.9146 0.4744   0.075203
 H 0.9699 0.8036 0.4563   0.115773
 H 0.0225 0.777 0.3401   0.098779
 H 0.1475 0.8616 0.2502   0.083325
 H 0.2085 0.151 0.3211   0.090547
 H 0.07 0.0704 0.4071   0.102486
 H 0.7559 0.5368 0.3538   0.088265
 H 0.9885 0.6258 0.1978   0.083309
 H 0.1686 0.614 0.2524   0.103848
 H 0.1817 0.6216 0.5239   0.09003
 H 0.0435 0.6228 0.6956   0.102516
 H 0.2791 0.754 0.6941   0.121805
 H 0.4512 0.7286 0.5482   0.100712
 H 0.4123 0.8302 0.5444   0.092468
 H 0.4733 0.9628 0.6319   0.115965
 H 0.6196 0.0416 0.7169   0.096711
 H 0.7546 0.8032 0.7115   0.103211
 H 0.602 0.7164 0.6304   0.125834
 H 0.2602 0.3432 0.953   0.102105
 H 0.483 0.1878 0.8934   0.098327
 H 0.2425 0.053 0.8973   0.129898
 H 0.0383 0.0854 0.9744   0.075203
 H 0.0301 0.1964 0.9563   0.115773
 H 0.9775 0.223 0.8401   0.098779
 H 0.8525 0.1384 0.7502   0.083325
 H 0.7915 0.849 0.8211   0.090547
 H 0.93 0.9296 0.9071   0.102486
 C 0.4169 0.4892 0.5627   0.638107
 C 0.4018 0.4552 0.6318   -0.110403
 C 0.288 0.449 0.6669   -0.111183
 C 0.2715 0.4224 0.7318   0.025413
 C 0.3725 0.3962 0.7597   -0.099019
 C 0.4874 0.4018 0.7266   -0.077292
 C 0.5051 0.4306 0.6626   -0.060487
 C 0.6321 0.4332 0.6277   0.661734
 C 0.5384 0.362 0.4332   0.15465
 C 0.4621 0.3612 0.34   0.054691
 C 0.5205 0.289 0.3401   -0.18105
 C 0.6439 0.2246 0.427   -0.050668
 C 0.6909 0.1704 0.3761   0.031922
 C 0.5987 0.0708 0.3513   -0.139491
 C 0.6412 0.0226 0.3008   -0.101895
 C 0.7748 0.0668 0.2758   0.022728
 C 0.8616 0.1646 0.3037   -0.097695
 C 0.8234 0.218 0.353   -0.118278
 C 0.9982 0.711 0.0616   0.172447
 C 0.2051 0.7972 0.0944   0.044231
 C 0.1489 0.8734 0.0923   -0.196209
 C 0.9181 0.8604 0.0592   -0.061893
 C 0.8836 0.915 0.119   0.024109
 C 0.7956 0.8524 0.1642   -0.108468
 C 0.7685 0.904 0.217   -0.088437
 C 0.8193 0.015 0.2222   0.029736
 C 0.9057 0.0754 0.1757   -0.08991
 C 0.9402 0.0278 0.124   -0.138854
 C 0.5831 0.5108 0.0627   0.638107
 C 0.5982 0.5448 0.1318   -0.110403
 C 0.712 0.551 0.1669   -0.111183
 C 0.7285 0.5776 0.2318   0.025413
 C 0.6275 0.6038 0.2597   -0.099019
 C 0.5126 0.5982 0.2266   -0.077292
 C 0.4949 0.5694 0.1626   -0.060487
 C 0.3679 0.5668 0.1277   0.661734
 C 0.4616 0.638 0.9332   0.15465
 C 0.5379 0.6388 0.84   0.054691
 C 0.4795 0.711 0.8401   -0.18105
 C 0.3561 0.7754 0.927   -0.050667
 C 0.3091 0.8296 0.8761   0.031922
 C 0.4013 0.9292 0.8513   -0.139491
 C 0.3588 0.9774 0.8008   -0.101896
 C 0.2252 0.9332 0.7758   0.022728
 C 0.1384 0.8354 0.8037   -0.097695
 C 0.1766 0.782 0.853   -0.118278
 C 0.0018 0.289 0.5616   0.172448
 C 0.7949 0.2028 0.5944   0.044231
 C 0.8511 0.1266 0.5923   -0.196209
 C 0.0819 0.1396 0.5592   -0.061893
 C 0.1164 0.085 0.619   0.024109
 C 0.2044 0.1476 0.6642   -0.108468
 C 0.2315 0.096 0.717   -0.088437
 C 0.1807 0.985 0.7222   0.029736
 C 0.0943 0.9246 0.6757   -0.08991
 C 0.0598 0.9722 0.624   -0.138854
 C 0.0723 0.4892 0.9373   0.638219
 C 0.0534 0.4552 0.8682   -0.110532
 C 0.161 0.449 0.8331   -0.110483
 C 0.1509 0.4224 0.7682   0.024354
 C 0.0237 0.3962 0.7403   -0.097622
 C 0.9144 0.4018 0.7734   -0.078476
 C 0.9255 0.4306 0.8374   -0.060192
 C 0.8011 0.4332 0.8723   0.662052
 C 0.8236 0.362 0.0668   0.154383
 C 0.8991 0.3612 0.16   0.053526
 C 0.7685 0.289 0.1599   -0.1794
 C 0.5807 0.2246 0.073   -0.050872
 C 0.4795 0.1704 0.1239   0.031774
 C 0.4721 0.0708 0.1487   -0.139731
 C 0.3814 0.0226 0.1992   -0.101188
 C 0.292 0.0668 0.2242   0.021922
 C 0.303 0.1646 0.1963   -0.096801
 C 0.3946 0.218 0.147   -0.118263
 C 0.7128 0.711 0.4384   0.173627
 C 0.5921 0.7972 0.4056   0.043322
 C 0.7245 0.8734 0.4077   -0.19641
 C 0.9423 0.8604 0.4408   -0.061331
 C 0.0314 0.915 0.381   0.023056
 C 0.0568 0.8524 0.3358   -0.109392
 C 0.1355 0.904 0.283   -0.088444
 C 0.1957 0.015 0.2778   0.029746
 C 0.1697 0.0754 0.3243   -0.089736
 C 0.0876 0.0278 0.376   -0.138073
 C 0.9277 0.5108 0.4373   0.638219
 C 0.9466 0.5448 0.3682   -0.110532
 C 0.839 0.551 0.3331   -0.110483
 C 0.8491 0.5776 0.2682   0.024354
 C 0.9763 0.6038 0.2403   -0.097622
 C 0.0856 0.5982 0.2734   -0.078476
 C 0.0745 0.5694 0.3374   -0.060192
 C 0.1989 0.5668 0.3723   0.662052
 C 0.1764 0.638 0.5668   0.154383
 C 0.1009 0.6388 0.66   0.053527
 C 0.2315 0.711 0.6599   -0.179399
 C 0.4193 0.7754 0.573   -0.050872
 C 0.5205 0.8296 0.6239   0.031774
 C 0.5279 0.9292 0.6487   -0.139731
 C 0.6186 0.9774 0.6992   -0.101189
 C 0.708 0.9332 0.7242   0.021922
 C 0.697 0.8354 0.6963   -0.096801
 C 0.6054 0.782 0.647   -0.118263
 C 0.2872 0.289 0.9384   0.173627
 C 0.4079 0.2028 0.9056   0.043322
 C 0.2755 0.1266 0.9077   -0.196409
 C 0.0577 0.1396 0.9408   -0.061331
 C 0.9686 0.085 0.881   0.023056
 C 0.9432 0.1476 0.8358   -0.109392
 C 0.8645 0.096 0.783   -0.088443
 C 0.8043 0.985 0.7778   0.029746
 C 0.8303 0.9246 0.8243   -0.089736
 C 0.9124 0.9722 0.876   -0.138073
 N 0.4706 0.4078 0.3983   -0.396599
 N 0.5726 0.2902 0.4006   0.04756
 N 0.1114 0.695 0.0763   -0.410009
 N 0.0165 0.8136 0.0706   0.063052
 N 0.5294 0.5922 0.8983   -0.396599
 N 0.4274 0.7098 0.9006   0.04756
 N 0.8886 0.305 0.5763   -0.410009
 N 0.9835 0.1864 0.5706   0.063052
 N 0.9372 0.4078 0.1017   -0.396625
 N 0.7176 0.2902 0.0994   0.047439
 N 0.5836 0.695 0.4237   -0.410446
 N 0.7971 0.8136 0.4294   0.062336
 N 0.0628 0.5922 0.6017   -0.396625
 N 0.2824 0.7098 0.5994   0.047439
 N 0.4164 0.305 0.9237   -0.410446
 N 0.2029 0.1864 0.9294   0.062336
 O 0.308 0.4592 0.5296   -0.609324
 O 0.5313 0.5448 0.54118   -0.575463
 O 0.6195 0.369 0.5825   -0.627868
 O 0.746 0.5006 0.646   -0.603764
 O 0.692 0.5408 0.0296   -0.609324
 O 0.4687 0.4552 0.04118   -0.575463
 O 0.3805 0.631 0.0825   -0.627868
 O 0.254 0.4994 0.146   -0.603764
 O 0.1512 0.4592 0.9704   -0.609626
 O 0.0135 0.5448 0.95882   -0.575613
 O 0.7495 0.369 0.9175   -0.628234
 O 0.7546 0.5006 0.854   -0.603486
 O 0.8488 0.5408 0.4704   -0.609626
 O 0.9865 0.4552 0.45882   -0.575613
 O 0.2505 0.631 0.4175   -0.628234
 O 0.2454 0.4994 0.354   -0.603486
