{'_ref': 'TBD', '_srcid': 'CAKYAQ_clean', 'submitters': [{'name': 'Dalar Nazarian Jeff Camp and David Sholl', 'email': 'dalar@gatech.edu jcamp6@gatech.edu'}], '_method': 'VASP DFT with PBE;DDEC'}
data_LiH2(C2O)2
_symmetry_space_group_name_H-M   'P 1'
_cell_length_a   9.61960000
_cell_length_b   9.61959962
_cell_length_c   12.81700000
_cell_angle_alpha   90.00000000
_cell_angle_beta   90.00000000
_cell_angle_gamma   92.04699841
_symmetry_Int_Tables_number   1
_chemical_formula_structural   LiH2(C2O)2
_chemical_formula_sum   'Li8 H16 C32 O16'
_cell_volume   1185.28603282
_cell_formula_units_Z   8
loop_
 _symmetry_equiv_pos_site_id
 _symmetry_equiv_pos_as_xyz
  1  'x, y, z'
loop_
 _atom_site_label
 _atom_site_fract_x
 _atom_site_fract_y
 _atom_site_fract_z
 _atom_site_charge
 Li 0.1177 0.0395 0.9034   0.904962
 Li 0.8823 0.9605 0.4034   0.904962
 Li 0.9605 0.8823 0.5966   0.904962
 Li 0.0395 0.1177 0.0966   0.904962
 Li 0.929 0.071 0.75   0.895921
 Li 0.071 0.929 0.25   0.895921
 Li 0.7306 0.2694 0.75   0.949024
 Li 0.2694 0.7306 0.25   0.949024
 H 0.3714 0.0032 0.3609   0.105618
 H 0.1952 0.0198 0.482   0.089121
 H 0.48 0.0674 0.7096   0.075834
 H 0.5985 0.0099 0.4137   0.08398
 H 0.6286 0.9968 0.8609   0.105619
 H 0.8048 0.9802 0.982   0.089121
 H 0.52 0.9326 0.2096   0.075834
 H 0.4015 0.9901 0.9137   0.08398
 H 0.9968 0.6286 0.1391   0.105618
 H 0.9802 0.8048 0.018   0.089121
 H 0.9326 0.52 0.7904   0.075834
 H 0.9901 0.4015 0.0863   0.08398
 H 0.0032 0.3714 0.6391   0.105619
 H 0.0198 0.1952 0.518   0.089121
 H 0.0674 0.48 0.2904   0.075834
 H 0.0099 0.5985 0.5863   0.08398
 C 0.3928 0.014 0.43121   -0.154731
 C 0.2876 0.02456 0.5035   0.010708
 C 0.32 0.04246 0.6095   -0.180355
 C 0.45776 0.05204 0.63983   0.009595
 C 0.56358 0.03888 0.56688   -0.232546
 C 0.52839 0.01939 0.46283   0.01704
 C 0.20313 0.05053 0.68771   0.787801
 C 0.71338 0.0383 0.59995   0.836282
 C 0.6072 0.986 0.93121   -0.154731
 C 0.7124 0.97544 0.0035   0.010708
 C 0.68 0.95754 0.1095   -0.180355
 C 0.54224 0.94796 0.13983   0.009595
 C 0.43642 0.96112 0.06688   -0.232546
 C 0.47161 0.98061 0.96283   0.01704
 C 0.79687 0.94947 0.18771   0.787801
 C 0.28662 0.9617 0.09995   0.836282
 C 0.986 0.6072 0.06879   -0.154731
 C 0.97544 0.7124 0.9965   0.010709
 C 0.95754 0.68 0.8905   -0.180355
 C 0.94796 0.54224 0.86017   0.009595
 C 0.96112 0.43642 0.93312   -0.232546
 C 0.98061 0.47161 0.03717   0.01704
 C 0.94947 0.79687 0.81229   0.787801
 C 0.9617 0.28662 0.90005   0.836282
 C 0.014 0.3928 0.56879   -0.154731
 C 0.02456 0.2876 0.4965   0.010709
 C 0.04246 0.32 0.3905   -0.180355
 C 0.05204 0.45776 0.36017   0.009595
 C 0.03888 0.56358 0.43312   -0.232546
 C 0.01939 0.52839 0.53717   0.01704
 C 0.05053 0.20313 0.31229   0.787801
 C 0.0383 0.71338 0.40005   0.836282
 O 0.23312 0.07566 0.78084   -0.736167
 O 0.08218 0.03312 0.65319   -0.844196
 O 0.74469 0.08381 0.68899   -0.89613
 O 0.80009 0.98569 0.53895   -0.799289
 O 0.76688 0.92434 0.28084   -0.736167
 O 0.91782 0.96688 0.15319   -0.844196
 O 0.25531 0.91619 0.18899   -0.89613
 O 0.19991 0.01431 0.03895   -0.799289
 O 0.92434 0.76688 0.71916   -0.736167
 O 0.96688 0.91782 0.84681   -0.844196
 O 0.91619 0.25531 0.81101   -0.89613
 O 0.01431 0.19991 0.96105   -0.799289
 O 0.07566 0.23312 0.21916   -0.736167
 O 0.03312 0.08218 0.34681   -0.844196
 O 0.08381 0.74469 0.31101   -0.89613
 O 0.98569 0.80009 0.46105   -0.799289
