{'_ref': 'TBD', '_srcid': 'CAKYAQ_clean', 'submitters': [{'name': 'Dalar Nazarian Jeff Camp and David Sholl', 'email': 'dalar@gatech.edu jcamp6@gatech.edu'}], '_method': 'VASP DFT with PBE;DDEC'}
data_Cu2H24C25(NO)4
_symmetry_space_group_name_H-M   'P 1'
_cell_length_a   9.80400001
_cell_length_b   16.83860000
_cell_length_c   16.83859956
_cell_angle_alpha   85.13839983
_cell_angle_beta   73.07529910
_cell_angle_gamma   73.07520218
_symmetry_Int_Tables_number   1
_chemical_formula_structural   Cu2H24C25(NO)4
_chemical_formula_sum   'Cu4 H48 C50 N8 O8'
_cell_volume   2544.22687833
_cell_formula_units_Z   2
loop_
 _symmetry_equiv_pos_site_id
 _symmetry_equiv_pos_as_xyz
  1  'x, y, z'
loop_
 _atom_site_label
 _atom_site_fract_x
 _atom_site_fract_y
 _atom_site_fract_z
 _atom_site_charge
 Cu 0.0 0.5 0.5   0.210653
 Cu 0.5 0.0 0.0   0.210357
 Cu 0.5 0.0 0.5   0.210699
 Cu 0.5 0.5 0.0   0.21037
 H 0.2757 0.3852 0.5208   0.045311
 H 0.5142 0.3234 0.4464   0.135935
 H 0.4067 0.4219 0.2413   0.138606
 H 0.1696 0.4762 0.322   0.048946
 H 0.6981 0.2367 0.3489   0.061558
 H 0.7546 0.3121 0.3611   0.062043
 H 0.6817 0.1148 0.9792   0.045317
 H 0.784 0.1766 0.0536   0.134745
 H 0.5699 0.0781 0.2587   0.139213
 H 0.4678 0.0238 0.178   0.049439
 H 0.7837 0.2633 0.1511   0.060973
 H 0.9278 0.1879 0.1389   0.062713
 H 0.6609 0.0208 0.6148   0.045832
 H 0.8376 0.9464 0.6766   0.136554
 H 0.8286 0.7413 0.5781   0.138575
 H 0.6458 0.822 0.5238   0.050721
 H 0.9348 0.8489 0.7633   0.061501
 H 0.0667 0.8611 0.6879   0.0627
 H 0.7965 0.4792 0.8852   0.045547
 H 0.9606 0.5536 0.8234   0.13742
 H 0.648 0.7587 0.9219   0.139136
 H 0.4916 0.678 0.9762   0.050803
 H 0.047 0.6511 0.7367   0.061738
 H 0.1157 0.6389 0.8121   0.062598
 H 0.7243 0.6148 0.4792   0.045309
 H 0.4858 0.6766 0.5536   0.135933
 H 0.5933 0.5781 0.7587   0.138606
 H 0.8304 0.5238 0.678   0.048944
 H 0.3019 0.7633 0.6511   0.061556
 H 0.2454 0.6879 0.6389   0.062042
 H 0.3183 0.8852 0.0208   0.045316
 H 0.216 0.8234 0.9464   0.134744
 H 0.4301 0.9219 0.7413   0.139213
 H 0.5322 0.9762 0.822   0.049436
 H 0.2163 0.7367 0.8489   0.060972
 H 0.0722 0.8121 0.8611   0.062712
 H 0.3391 0.9792 0.3852   0.045831
 H 0.1624 0.0536 0.3234   0.136553
 H 0.1714 0.2587 0.4219   0.138575
 H 0.3542 0.178 0.4762   0.050719
 H 0.0652 0.1511 0.2367   0.0615
 H 0.9333 0.1389 0.3121   0.062699
 H 0.2035 0.5208 0.1148   0.045546
 H 0.0394 0.4464 0.1766   0.137419
 H 0.352 0.2413 0.0781   0.139136
 H 0.5084 0.322 0.0238   0.050801
 H 0.953 0.3489 0.2633   0.061736
 H 0.8843 0.3611 0.1879   0.062597
 C 0.30319 0.39281 0.46365   0.130139
 C 0.44628 0.356 0.41972   -0.34061
 C 0.48752 0.36786 0.33608   0.328325
 C 0.38246 0.41364 0.29848   -0.334108
 C 0.24146 0.44664 0.34748   0.169524
 C 0.73416 0.28247 0.32091   0.076348
 C 0.65965 0.10719 0.03635   0.130629
 C 0.722 0.144 0.08028   -0.34056
 C 0.69146 0.13214 0.16392   0.327982
 C 0.59458 0.08636 0.20152   -0.333318
 C 0.53558 0.05336 0.15252   0.169176
 C 0.83754 0.21753 0.17909   0.075337
 C 0.696 0.96365 0.60719   0.129236
 C 0.80228 0.91972 0.644   -0.341162
 C 0.85538 0.83608 0.63214   0.326692
 C 0.7961 0.79848 0.58636   -0.33303
 C 0.6881 0.84748 0.55336   0.166777
 C 0.01663 0.82091 0.71753   0.074502
 C 0.76684 0.53635 0.89281   0.130876
 C 0.866 0.58028 0.856   -0.346277
 C 0.8236 0.66392 0.86786   0.331831
 C 0.68094 0.70152 0.91364   -0.337333
 C 0.58894 0.65252 0.94664   0.168033
 C 0.05507 0.67909 0.78247   0.074834
 C 0.69681 0.60719 0.53635   0.13014
 C 0.55372 0.644 0.58028   -0.340608
 C 0.51248 0.63214 0.66392   0.328325
 C 0.61754 0.58636 0.70152   -0.334108
 C 0.75854 0.55336 0.65252   0.169524
 C 0.26584 0.71753 0.67909   0.076349
 C 0.34035 0.89281 0.96365   0.13063
 C 0.278 0.856 0.91972   -0.340558
 C 0.30854 0.86786 0.83608   0.327982
 C 0.40542 0.91364 0.79848   -0.333318
 C 0.46442 0.94664 0.84748   0.169176
 C 0.16246 0.78247 0.82091   0.075338
 C 0.304 0.03635 0.39281   0.129237
 C 0.19772 0.08028 0.356   -0.34116
 C 0.14462 0.16392 0.36786   0.326692
 C 0.2039 0.20152 0.41364   -0.333029
 C 0.3119 0.15252 0.44664   0.166778
 C 0.98337 0.17909 0.28247   0.074503
 C 0.23316 0.46365 0.10719   0.130877
 C 0.134 0.41972 0.144   -0.346275
 C 0.1764 0.33608 0.13214   0.331831
 C 0.31906 0.29848 0.08636   -0.337333
 C 0.41106 0.34748 0.05336   0.168034
 C 0.94493 0.32091 0.21753   0.074835
 C 0.875 0.25 0.25   -0.042811
 C 0.125 0.75 0.75   -0.042811
 N 0.20209 0.43878 0.4286   -0.340255
 N 0.56947 0.06122 0.0714   -0.339723
 N 0.64087 0.9286 0.56122   -0.339563
 N 0.63069 0.5714 0.93878   -0.337457
 N 0.79791 0.56122 0.5714   -0.340255
 N 0.43053 0.93878 0.9286   -0.339723
 N 0.35913 0.0714 0.43878   -0.339563
 N 0.36931 0.4286 0.06122   -0.337457
 O 0.6258 0.33711 0.28509   -0.27601
 O 0.748 0.16289 0.21491   -0.2765
 O 0.96291 0.78509 0.66289   -0.274447
 O 0.91089 0.71491 0.83711   -0.276037
 O 0.3742 0.66289 0.71491   -0.27601
 O 0.252 0.83711 0.78509   -0.2765
 O 0.03709 0.21491 0.33711   -0.274447
 O 0.08911 0.28509 0.16289   -0.276037
