{'_ref': 'TBD', '_srcid': 'CAKYAQ_clean', 'submitters': [{'name': 'Dalar Nazarian Jeff Camp and David Sholl', 'email': 'dalar@gatech.edu jcamp6@gatech.edu'}], '_method': 'VASP DFT with PBE;DDEC'}
data_CuH8(C7O2)2
_symmetry_space_group_name_H-M   'P 1'
_cell_length_a   12.93500047
_cell_length_b   14.35190005
_cell_length_c   14.35190000
_cell_angle_alpha   78.28319850
_cell_angle_beta   63.21539880
_cell_angle_gamma   63.21539774
_symmetry_Int_Tables_number   1
_chemical_formula_structural   CuH8(C7O2)2
_chemical_formula_sum   'Cu4 H32 C56 O16'
_cell_volume   2123.25957402
_cell_formula_units_Z   4
loop_
 _symmetry_equiv_pos_site_id
 _symmetry_equiv_pos_as_xyz
  1  'x, y, z'
loop_
 _atom_site_label
 _atom_site_fract_x
 _atom_site_fract_y
 _atom_site_fract_z
 _atom_site_charge
 Cu 0.46437 0.39979 0.47697   0.889928
 Cu 0.34113 0.60021 0.52303   0.890539
 Cu 0.19134 0.02303 0.89979   0.891788
 Cu 0.11416 0.97697 0.10021   0.891046
 H 0.5885 0.7235 0.2959   0.104536
 H 0.7398 0.7715 0.1625   0.118777
 H 0.9744 0.4671 0.0993   0.106551
 H 0.8187 0.4224 0.2294   0.097591
 H 0.0388 0.5438 0.9308   0.072428
 H 0.1969 0.5843 0.7963   0.099922
 H 0.2167 0.7326 0.8132   0.106624
 H 0.9356 0.7814 0.0992   0.110299
 H 0.6079 0.2765 0.7041   0.105546
 H 0.6738 0.2285 0.8375   0.118271
 H 0.5408 0.5329 0.9007   0.107074
 H 0.4705 0.5776 0.7706   0.097341
 H 0.5134 0.4562 0.0692   0.071811
 H 0.5775 0.4157 0.2037   0.099369
 H 0.7625 0.2674 0.1868   0.107726
 H 0.8162 0.2186 0.9008   0.110649
 H 0.1344 0.2041 0.2235   0.105182
 H 0.1523 0.3375 0.2715   0.118484
 H 0.3237 0.4007 0.9671   0.106425
 H 0.2981 0.2706 0.9224   0.097601
 H 0.2196 0.5692 0.0438   0.071073
 H 0.2432 0.7037 0.0843   0.100556
 H 0.2799 0.6868 0.2326   0.106155
 H 0.2848 0.4008 0.2814   0.110061
 H 0.562 0.7959 0.7765   0.105705
 H 0.7613 0.6625 0.7285   0.118074
 H 0.6915 0.5993 0.0329   0.10549
 H 0.4911 0.7294 0.0776   0.098071
 H 0.8326 0.4308 0.9562   0.070687
 H 0.0312 0.2963 0.9157   0.100422
 H 0.1993 0.3132 0.7674   0.10771
 H 0.967 0.5992 0.7186   0.110854
 C 0.5902 0.5384 0.3628   0.714474
 C 0.6862 0.5675 0.2809   -0.165336
 C 0.666 0.6717 0.2567   -0.005885
 C 0.7578 0.7009 0.1759   -0.156302
 C 0.8747 0.6277 0.1155   0.074132
 C 0.8969 0.5191 0.1383   -0.151094
 C 0.8034 0.4927 0.2175   -0.026147
 C 0.9779 0.6515 0.0321   0.027958
 C 0.0519 0.5996 0.9392   -0.085858
 C 0.145 0.6246 0.8566   -0.0808
 C 0.1575 0.7112 0.8676   -0.046861
 C 0.0826 0.7657 0.9587   -0.114263
 C 0.9896 0.7397 0.0399   -0.078935
 C 0.1034 0.8594 0.9746   0.673188
 C 0.4914 0.4616 0.6372   0.714436
 C 0.5346 0.4325 0.7191   -0.163602
 C 0.5944 0.3283 0.7433   -0.008778
 C 0.6346 0.2991 0.8241   -0.155034
 C 0.6179 0.3723 0.8845   0.075697
 C 0.5543 0.4809 0.8617   -0.15283
 C 0.5136 0.5073 0.7825   -0.025957
 C 0.6615 0.3485 0.9679   0.026666
 C 0.5907 0.4004 0.0608   -0.085299
 C 0.6262 0.3754 0.1434   -0.080403
 C 0.7363 0.2888 0.1324   -0.050105
 C 0.807 0.2343 0.0413   -0.110674
 C 0.7692 0.2603 0.9601   -0.079128
 C 0.9374 0.1406 0.0254   0.671112
 C 0.203 0.1372 0.0384   0.714386
 C 0.2171 0.2191 0.0675   -0.166242
 C 0.1727 0.2433 0.1717   -0.006995
 C 0.1837 0.3241 0.2009   -0.155605
 C 0.2402 0.3845 0.1277   0.074294
 C 0.2852 0.3617 0.0191   -0.150078
 C 0.2709 0.2825 0.9927   -0.027259
 C 0.26 0.4679 0.1515   0.028045
 C 0.2411 0.5608 0.0996   -0.084396
 C 0.2516 0.6434 0.1246   -0.081772
 C 0.2751 0.6324 0.2112   -0.04794
 C 0.2913 0.5413 0.2657   -0.112159
 C 0.2795 0.4601 0.2397   -0.077786
 C 0.328 0.5254 0.3594   0.673169
 C 0.3786 0.8628 0.9616   0.713917
 C 0.5037 0.7809 0.9325   -0.164146
 C 0.5877 0.7567 0.8283   -0.00866
 C 0.7087 0.6759 0.7991   -0.154628
 C 0.7524 0.6155 0.8723   0.07442
 C 0.666 0.6383 0.9809   -0.148915
 C 0.5461 0.7175 0.0073   -0.027725
 C 0.8794 0.5321 0.8485   0.026232
 C 0.9015 0.4392 0.9004   -0.0819
 C 0.0196 0.3566 0.8754   -0.08308
 C 0.1187 0.3676 0.7888   -0.048623
 C 0.0983 0.4587 0.7343   -0.111467
 C 0.9793 0.5399 0.7603   -0.08049
 C 0.2128 0.4746 0.6406   0.671346
 O 0.5913 0.4522 0.368   -0.573816
 O 0.4974 0.6117 0.4265   -0.596626
 O 0.058 0.887 0.0646   -0.554445
 O 0.1605 0.8996 0.8944   -0.56049
 O 0.4115 0.5478 0.632   -0.572567
 O 0.5356 0.3883 0.5735   -0.598078
 O 0.0096 0.113 0.9354   -0.553714
 O 0.9545 0.1004 0.1056   -0.560358
 O 0.2093 0.132 0.9522   -0.573813
 O 0.1739 0.0735 0.1117   -0.597281
 O 0.3726 0.4354 0.387   -0.552885
 O 0.3049 0.6056 0.3996   -0.562364
 O 0.2935 0.868 0.0478   -0.572649
 O 0.3591 0.9265 0.8883   -0.598114
 O 0.195 0.5646 0.613   -0.552949
 O 0.3101 0.3944 0.6004   -0.560534
