{'_ref': 'TBD', '_srcid': 'CAKYAQ_clean', 'submitters': [{'name': 'Dalar Nazarian Jeff Camp and David Sholl', 'email': 'dalar@gatech.edu jcamp6@gatech.edu'}], '_method': 'VASP DFT with PBE;DDEC'}
data_LiBH20(C2N)8
_symmetry_space_group_name_H-M   'P 1'
_cell_length_a   16.03110000
_cell_length_b   16.03110000
_cell_length_c   16.03110000
_cell_angle_alpha   90.00000000
_cell_angle_beta   90.00000000
_cell_angle_gamma   90.00000000
_symmetry_Int_Tables_number   1
_chemical_formula_structural   LiBH20(C2N)8
_chemical_formula_sum   'Li6 B6 H120 C96 N48'
_cell_volume   4119.93125616
_cell_formula_units_Z   6
loop_
 _symmetry_equiv_pos_site_id
 _symmetry_equiv_pos_as_xyz
  1  'x, y, z'
loop_
 _atom_site_label
 _atom_site_fract_x
 _atom_site_fract_y
 _atom_site_fract_z
 _atom_site_charge
 Li 0.5 0.25 0.0   0.745774
 Li 0.5 0.75 0.0   0.745774
 Li 0.0 0.5 0.25   0.745774
 Li 0.0 0.5 0.75   0.745774
 Li 0.25 0.0 0.5   0.745774
 Li 0.75 0.0 0.5   0.745774
 B 0.25 0.5 0.0   0.529956
 B 0.75 0.5 0.0   0.529956
 B 0.0 0.25 0.5   0.529956
 B 0.0 0.75 0.5   0.529956
 B 0.5 0.0 0.25   0.529957
 B 0.5 0.0 0.75   0.529957
 H 0.3689 0.2886 0.1494   0.089483
 H 0.6311 0.7114 0.1494   0.089483
 H 0.6311 0.2886 0.8506   0.089483
 H 0.3689 0.7114 0.8506   0.089483
 H 0.1494 0.3689 0.2886   0.089484
 H 0.1494 0.6311 0.7114   0.089484
 H 0.8506 0.6311 0.2886   0.089484
 H 0.8506 0.3689 0.7114   0.089484
 H 0.2886 0.1494 0.3689   0.089484
 H 0.7114 0.1494 0.6311   0.089484
 H 0.2886 0.8506 0.6311   0.089484
 H 0.7114 0.8506 0.3689   0.089484
 H 0.7886 0.8689 0.6494   0.089483
 H 0.2114 0.1311 0.6494   0.089483
 H 0.7886 0.1311 0.3506   0.089483
 H 0.2114 0.8689 0.3506   0.089483
 H 0.8689 0.6494 0.7886   0.089484
 H 0.1311 0.6494 0.2114   0.089484
 H 0.1311 0.3506 0.7886   0.089484
 H 0.8689 0.3506 0.2114   0.089484
 H 0.6494 0.7886 0.8689   0.089484
 H 0.6494 0.2114 0.1311   0.089484
 H 0.3506 0.7886 0.1311   0.089484
 H 0.3506 0.2114 0.8689   0.089484
 H 0.2656 0.3989 0.1494   0.112364
 H 0.7344 0.6011 0.1494   0.112364
 H 0.7344 0.3989 0.8506   0.112364
 H 0.2656 0.6011 0.8506   0.112364
 H 0.1494 0.2656 0.3989   0.112364
 H 0.1494 0.7344 0.6011   0.112364
 H 0.8506 0.7344 0.3989   0.112364
 H 0.8506 0.2656 0.6011   0.112364
 H 0.3989 0.1494 0.2656   0.112364
 H 0.6011 0.1494 0.7344   0.112364
 H 0.3989 0.8506 0.7344   0.112364
 H 0.6011 0.8506 0.2656   0.112364
 H 0.8989 0.7656 0.6494   0.112364
 H 0.1011 0.2344 0.6494   0.112364
 H 0.8989 0.2344 0.3506   0.112364
 H 0.1011 0.7656 0.3506   0.112364
 H 0.7656 0.6494 0.8989   0.112364
 H 0.2344 0.6494 0.1011   0.112364
 H 0.2344 0.3506 0.8989   0.112364
 H 0.7656 0.3506 0.1011   0.112364
 H 0.6494 0.8989 0.7656   0.112364
 H 0.6494 0.1011 0.2344   0.112364
 H 0.3506 0.8989 0.2344   0.112364
 H 0.3506 0.1011 0.7656   0.112364
 H 0.4469 0.3782 0.8883   0.149056
 H 0.5531 0.6218 0.8883   0.149056
 H 0.5531 0.3782 0.1117   0.149056
 H 0.4469 0.6218 0.1117   0.149056
 H 0.8883 0.4469 0.3782   0.149056
 H 0.8883 0.5531 0.6218   0.149056
 H 0.1117 0.5531 0.3782   0.149056
 H 0.1117 0.4469 0.6218   0.149056
 H 0.3782 0.8883 0.4469   0.149056
 H 0.6218 0.8883 0.5531   0.149056
 H 0.3782 0.1117 0.5531   0.149056
 H 0.6218 0.1117 0.4469   0.149056
 H 0.8782 0.9469 0.3883   0.149056
 H 0.1218 0.0531 0.3883   0.149056
 H 0.8782 0.0531 0.6117   0.149056
 H 0.1218 0.9469 0.6117   0.149056
 H 0.9469 0.3883 0.8782   0.149056
 H 0.0531 0.3883 0.1218   0.149056
 H 0.0531 0.6117 0.8782   0.149056
 H 0.9469 0.6117 0.1218   0.149056
 H 0.3883 0.8782 0.9469   0.149056
 H 0.3883 0.1218 0.0531   0.149056
 H 0.6117 0.8782 0.0531   0.149056
 H 0.6117 0.1218 0.9469   0.149056
 H 0.4245 0.4712 0.9085   0.140084
 H 0.5755 0.5288 0.9085   0.140083
 H 0.5755 0.4712 0.0915   0.140084
 H 0.4245 0.5288 0.0915   0.140083
 H 0.9085 0.4245 0.4712   0.140084
 H 0.9085 0.5755 0.5288   0.140083
 H 0.0915 0.5755 0.4712   0.140084
 H 0.0915 0.4245 0.5288   0.140083
 H 0.4712 0.9085 0.4245   0.140084
 H 0.5288 0.9085 0.5755   0.140083
 H 0.4712 0.0915 0.5755   0.140084
 H 0.5288 0.0915 0.4245   0.140083
 H 0.9712 0.9245 0.4085   0.140084
 H 0.0288 0.0755 0.4085   0.140083
 H 0.9712 0.0755 0.5915   0.140084
 H 0.0288 0.9245 0.5915   0.140083
 H 0.9245 0.4085 0.9712   0.140084
 H 0.0755 0.4085 0.0288   0.140083
 H 0.0755 0.5915 0.9712   0.140084
 H 0.9245 0.5915 0.0288   0.140083
 H 0.4085 0.9712 0.9245   0.140084
 H 0.4085 0.0288 0.0755   0.140083
 H 0.5915 0.9712 0.0755   0.140084
 H 0.5915 0.0288 0.9245   0.140083
 H 0.3589 0.4135 0.8646   0.12679
 H 0.6411 0.5865 0.8646   0.12679
 H 0.6411 0.4135 0.1354   0.12679
 H 0.3589 0.5865 0.1354   0.12679
 H 0.8646 0.3589 0.4135   0.126791
 H 0.8646 0.6411 0.5865   0.126791
 H 0.1354 0.6411 0.4135   0.126791
 H 0.1354 0.3589 0.5865   0.126791
 H 0.4135 0.8646 0.3589   0.126791
 H 0.5865 0.8646 0.6411   0.126791
 H 0.4135 0.1354 0.6411   0.126791
 H 0.5865 0.1354 0.3589   0.126791
 H 0.9135 0.8589 0.3646   0.12679
 H 0.0865 0.1411 0.3646   0.12679
 H 0.9135 0.1411 0.6354   0.12679
 H 0.0865 0.8589 0.6354   0.12679
 H 0.8589 0.3646 0.9135   0.126791
 H 0.1411 0.3646 0.0865   0.126791
 H 0.1411 0.6354 0.9135   0.126791
 H 0.8589 0.6354 0.0865   0.126791
 H 0.3646 0.9135 0.8589   0.126791
 H 0.3646 0.0865 0.1411   0.126791
 H 0.6354 0.9135 0.1411   0.126791
 H 0.6354 0.0865 0.8589   0.126791
 C 0.37008 0.38929 0.9886   0.41573
 C 0.62992 0.61071 0.9886   0.41573
 C 0.62992 0.38929 0.0114   0.41573
 C 0.37008 0.61071 0.0114   0.41573
 C 0.9886 0.37008 0.38929   0.41573
 C 0.9886 0.62992 0.61071   0.41573
 C 0.0114 0.62992 0.38929   0.41573
 C 0.0114 0.37008 0.61071   0.41573
 C 0.38929 0.9886 0.37008   0.41573
 C 0.61071 0.9886 0.62992   0.41573
 C 0.38929 0.0114 0.62992   0.41573
 C 0.61071 0.0114 0.37008   0.41573
 C 0.88929 0.87008 0.4886   0.41573
 C 0.11071 0.12992 0.4886   0.41573
 C 0.88929 0.12992 0.5114   0.41573
 C 0.11071 0.87008 0.5114   0.41573
 C 0.87008 0.4886 0.88929   0.41573
 C 0.12992 0.4886 0.11071   0.41573
 C 0.12992 0.5114 0.88929   0.41573
 C 0.87008 0.5114 0.11071   0.41573
 C 0.4886 0.88929 0.87008   0.41573
 C 0.4886 0.11071 0.12992   0.41573
 C 0.5114 0.88929 0.12992   0.41573
 C 0.5114 0.11071 0.87008   0.41573
 C 0.35971 0.32587 0.10594   0.030757
 C 0.64029 0.67413 0.10594   0.030757
 C 0.64029 0.32587 0.89406   0.030757
 C 0.35971 0.67413 0.89406   0.030757
 C 0.10594 0.35971 0.32587   0.030757
 C 0.10594 0.64029 0.67413   0.030757
 C 0.89406 0.64029 0.32587   0.030757
 C 0.89406 0.35971 0.67413   0.030757
 C 0.32587 0.10594 0.35971   0.030757
 C 0.67413 0.10594 0.64029   0.030757
 C 0.32587 0.89406 0.64029   0.030757
 C 0.67413 0.89406 0.35971   0.030757
 C 0.82587 0.85971 0.60594   0.030757
 C 0.17413 0.14029 0.60594   0.030757
 C 0.82587 0.14029 0.39406   0.030757
 C 0.17413 0.85971 0.39406   0.030757
 C 0.85971 0.60594 0.82587   0.030757
 C 0.14029 0.60594 0.17413   0.030757
 C 0.14029 0.39406 0.82587   0.030757
 C 0.85971 0.39406 0.17413   0.030757
 C 0.60594 0.82587 0.85971   0.030757
 C 0.60594 0.17413 0.14029   0.030757
 C 0.39406 0.82587 0.14029   0.030757
 C 0.39406 0.17413 0.85971   0.030757
 C 0.30205 0.38656 0.10593   -0.11277
 C 0.69795 0.61344 0.10593   -0.11277
 C 0.69795 0.38656 0.89407   -0.11277
 C 0.30205 0.61344 0.89407   -0.11277
 C 0.10593 0.30205 0.38656   -0.11277
 C 0.10593 0.69795 0.61344   -0.11277
 C 0.89407 0.69795 0.38656   -0.11277
 C 0.89407 0.30205 0.61344   -0.11277
 C 0.38656 0.10593 0.30205   -0.11277
 C 0.61344 0.10593 0.69795   -0.11277
 C 0.38656 0.89407 0.69795   -0.11277
 C 0.61344 0.89407 0.30205   -0.11277
 C 0.88656 0.80205 0.60593   -0.11277
 C 0.11344 0.19795 0.60593   -0.11277
 C 0.88656 0.19795 0.39407   -0.11277
 C 0.11344 0.80205 0.39407   -0.11277
 C 0.80205 0.60593 0.88656   -0.11277
 C 0.19795 0.60593 0.11344   -0.11277
 C 0.19795 0.39407 0.88656   -0.11277
 C 0.80205 0.39407 0.11344   -0.11277
 C 0.60593 0.88656 0.80205   -0.11277
 C 0.60593 0.11344 0.19795   -0.11277
 C 0.39407 0.88656 0.19795   -0.11277
 C 0.39407 0.11344 0.80205   -0.11277
 C 0.40306 0.4154 0.90494   -0.4359
 C 0.59694 0.5846 0.90494   -0.435899
 C 0.59694 0.4154 0.09506   -0.4359
 C 0.40306 0.5846 0.09506   -0.435899
 C 0.90494 0.40306 0.4154   -0.4359
 C 0.90494 0.59694 0.5846   -0.4359
 C 0.09506 0.59694 0.4154   -0.4359
 C 0.09506 0.40306 0.5846   -0.4359
 C 0.4154 0.90494 0.40306   -0.4359
 C 0.5846 0.90494 0.59694   -0.4359
 C 0.4154 0.09506 0.59694   -0.4359
 C 0.5846 0.09506 0.40306   -0.4359
 C 0.9154 0.90306 0.40494   -0.4359
 C 0.0846 0.09694 0.40494   -0.435899
 C 0.9154 0.09694 0.59506   -0.4359
 C 0.0846 0.90306 0.59506   -0.435899
 C 0.90306 0.40494 0.9154   -0.4359
 C 0.09694 0.40494 0.0846   -0.4359
 C 0.09694 0.59506 0.9154   -0.4359
 C 0.90306 0.59506 0.0846   -0.4359
 C 0.40494 0.9154 0.90306   -0.4359
 C 0.40494 0.0846 0.09694   -0.4359
 C 0.59506 0.9154 0.09694   -0.4359
 C 0.59506 0.0846 0.90306   -0.4359
 N 0.30612 0.42758 0.03026   -0.266711
 N 0.69388 0.57242 0.03026   -0.266711
 N 0.69388 0.42758 0.96974   -0.266711
 N 0.30612 0.57242 0.96974   -0.266711
 N 0.03026 0.30612 0.42758   -0.266711
 N 0.03026 0.69388 0.57242   -0.266711
 N 0.96974 0.69388 0.42758   -0.266711
 N 0.96974 0.30612 0.57242   -0.266711
 N 0.42758 0.03026 0.30612   -0.266711
 N 0.57242 0.03026 0.69388   -0.266711
 N 0.42758 0.96974 0.69388   -0.266711
 N 0.57242 0.96974 0.30612   -0.266711
 N 0.92758 0.80612 0.53026   -0.266711
 N 0.07242 0.19388 0.53026   -0.266711
 N 0.92758 0.19388 0.46974   -0.266711
 N 0.07242 0.80612 0.46974   -0.266711
 N 0.80612 0.53026 0.92758   -0.266711
 N 0.19388 0.53026 0.07242   -0.266711
 N 0.19388 0.46974 0.92758   -0.266711
 N 0.80612 0.46974 0.07242   -0.266711
 N 0.53026 0.92758 0.80612   -0.266711
 N 0.53026 0.07242 0.19388   -0.266711
 N 0.46974 0.92758 0.19388   -0.266711
 N 0.46974 0.07242 0.80612   -0.266711
 N 0.40334 0.32712 0.03154   -0.567817
 N 0.59666 0.67288 0.03154   -0.567817
 N 0.59666 0.32712 0.96846   -0.567817
 N 0.40334 0.67288 0.96846   -0.567817
 N 0.03154 0.40334 0.32712   -0.567817
 N 0.03154 0.59666 0.67288   -0.567817
 N 0.96846 0.59666 0.32712   -0.567817
 N 0.96846 0.40334 0.67288   -0.567817
 N 0.32712 0.03154 0.40334   -0.567817
 N 0.67288 0.03154 0.59666   -0.567817
 N 0.32712 0.96846 0.59666   -0.567817
 N 0.67288 0.96846 0.40334   -0.567817
 N 0.82712 0.90334 0.53154   -0.567817
 N 0.17288 0.09666 0.53154   -0.567817
 N 0.82712 0.09666 0.46846   -0.567817
 N 0.17288 0.90334 0.46846   -0.567817
 N 0.90334 0.53154 0.82712   -0.567817
 N 0.09666 0.53154 0.17288   -0.567817
 N 0.09666 0.46846 0.82712   -0.567817
 N 0.90334 0.46846 0.17288   -0.567817
 N 0.53154 0.82712 0.90334   -0.567817
 N 0.53154 0.17288 0.09666   -0.567817
 N 0.46846 0.82712 0.09666   -0.567817
 N 0.46846 0.17288 0.90334   -0.567817
