{'_ref': 'TBD', '_srcid': 'CAKYAQ_clean', 'submitters': [{'name': 'Dalar Nazarian Jeff Camp and David Sholl', 'email': 'dalar@gatech.edu jcamp6@gatech.edu'}], '_method': 'VASP DFT with PBE;DDEC'}
data_CdH3C2N4Cl
_symmetry_space_group_name_H-M   'P 1'
_cell_length_a   18.27192572
_cell_length_b   18.27210000
_cell_length_c   18.27209994
_cell_angle_alpha   105.05100093
_cell_angle_beta   105.05057848
_cell_angle_gamma   118.72767685
_symmetry_Int_Tables_number   1
_chemical_formula_structural   CdH3C2N4Cl
_chemical_formula_sum   'Cd24 H72 C48 N96 Cl24'
_cell_volume   4602.88167417
_cell_formula_units_Z   24
loop_
 _symmetry_equiv_pos_site_id
 _symmetry_equiv_pos_as_xyz
  1  'x, y, z'
loop_
 _atom_site_label
 _atom_site_fract_x
 _atom_site_fract_y
 _atom_site_fract_z
 _atom_site_charge
 Cd 0.4096 0.2865 0.48744   0.686252
 Cd 0.56678 0.35172 0.38058   0.799144
 Cd 0.57085 0.36461 0.74096   0.664487
 Cd 0.79906 0.92216 0.51256   0.686403
 Cd 0.97114 0.1862 0.61942   0.800949
 Cd 0.62365 0.82989 0.25904   0.659388
 Cd 0.07784 0.5904 0.8769   0.687623
 Cd 0.8138 0.43322 0.78494   0.801364
 Cd 0.17011 0.42914 0.79376   0.668188
 Cd 0.7135 0.20094 0.1231   0.685242
 Cd 0.64828 0.02886 0.21506   0.800965
 Cd 0.63539 0.37635 0.20624   0.65719
 Cd 0.20094 0.7135 0.1231   0.68392
 Cd 0.02886 0.64828 0.21506   0.800936
 Cd 0.37635 0.63538 0.20624   0.655978
 Cd 0.5904 0.07784 0.8769   0.689181
 Cd 0.43322 0.8138 0.78494   0.803461
 Cd 0.42915 0.17011 0.79376   0.667789
 Cd 0.2865 0.4096 0.48744   0.68804
 Cd 0.35172 0.56678 0.38058   0.799117
 Cd 0.36461 0.57085 0.74096   0.663843
 Cd 0.92216 0.79906 0.51256   0.687489
 Cd 0.1862 0.97114 0.61942   0.801019
 Cd 0.82989 0.62365 0.25904   0.666444
 H 0.77154 0.34662 0.49945   0.138292
 H 0.81689 0.47218 0.54305   0.163629
 H 0.85104 0.42638 0.61501   0.151115
 H 0.14673 0.98783 0.43618   0.152493
 H 0.19974 0.08622 0.4088   0.16782
 H 0.228 0.99997 0.38857   0.157611
 H 0.92772 0.27252 0.45279   0.161084
 H 0.80854 0.23602 0.38667   0.150304
 H 0.8514 0.27341 0.50301   0.139357
 H 0.61608 0.84229 0.6124   0.158863
 H 0.54932 0.7125 0.56463   0.150225
 H 0.67506 0.78612 0.58941   0.166944
 H 0.76396 0.15143 0.57135   0.150569
 H 0.72806 0.17906 0.6551   0.162599
 H 0.72603 0.23004 0.57927   0.139388
 H 0.25526 0.82969 0.89976   0.169838
 H 0.25926 0.83488 0.80035   0.148193
 H 0.14456 0.76096 0.79943   0.171965
 H 0.53499 0.0686 0.34528   0.157242
 H 0.65646 0.1624 0.43125   0.1362
 H 0.56337 0.18133 0.41776   0.150943
 H 0.00819 0.4452 0.15378   0.152444
 H 0.00437 0.39424 0.22988   0.154929
 H 0.91342 0.3201 0.11679   0.166371
 H 0.07926 0.51725 0.34678   0.158833
 H 0.19978 0.59426 0.43651   0.147171
 H 0.1333 0.64331 0.41101   0.144748
 H 0.40075 0.00921 0.23156   0.159178
 H 0.44108 0.0033 0.14792   0.154178
 H 0.3177 0.91347 0.12097   0.1679
 H 0.23177 0.7234 0.58587   0.145591
 H 0.17312 0.73105 0.65402   0.16645
 H 0.15563 0.76358 0.56582   0.14929
 H 0.84802 0.28064 0.82492   0.150221
 H 0.81182 0.22733 0.89453   0.169404
 H 0.76569 0.15112 0.7801   0.166224
 H 0.48214 0.82862 0.56061   0.160685
 H 0.35577 0.76786 0.49052   0.144416
 H 0.40727 0.84299 0.60638   0.147373
 H 0.98415 0.14809 0.43522   0.151332
 H 0.00436 0.23022 0.38744   0.16252
 H 0.08551 0.19616 0.4109   0.16901
 H 0.23709 0.79858 0.39687   0.145389
 H 0.26619 0.91852 0.4343   0.159474
 H 0.27867 0.87057 0.51131   0.144748
 H 0.74627 0.646 0.57497   0.167954
 H 0.73928 0.54097 0.57506   0.147321
 H 0.85536 0.65349 0.6164   0.172771
 H 0.54186 0.61 0.35267   0.14175
 H 0.64486 0.61562 0.41392   0.135376
 H 0.55455 0.51565 0.30662   0.160261
 H 0.56995 0.63003 0.85887   0.166321
 H 0.52442 0.52263 0.8744   0.169422
 H 0.63147 0.57318 0.85838   0.167746
 H 0.18997 0.24792 0.60929   0.142089
 H 0.22851 0.23094 0.70438   0.169017
 H 0.24957 0.18919 0.61312   0.141351
 H 0.65591 0.64416 0.12575   0.170155
 H 0.70071 0.76491 0.13973   0.163829
 H 0.77758 0.72513 0.14287   0.170426
 H 0.81208 0.43644 0.06547   0.14109
 H 0.76262 0.46538 0.98432   0.167083
 H 0.75725 0.35692 0.95021   0.139486
 H 0.33697 0.4631 0.97849   0.168771
 H 0.30949 0.44773 0.06695   0.161593
 H 0.21934 0.36332 0.95455   0.17094
 H 0.43558 0.81204 0.06519   0.142219
 H 0.35715 0.75685 0.94957   0.138851
 H 0.46601 0.76306 0.98524   0.168018
 H 0.44133 0.30198 0.06505   0.164048
 H 0.46818 0.34235 0.98568   0.17025
 H 0.36465 0.22148 0.94927   0.171244
 C 0.7098 0.3858 0.5726   0.427921
 C 0.7921 0.4091 0.5566   -0.473233
 C 0.2929 0.0991 0.52   0.423043
 C 0.2121 0.0398 0.4333   -0.473406
 C 0.8132 0.1372 0.4274   0.433565
 C 0.8525 0.2355 0.4434   -0.474572
 C 0.5791 0.7729 0.48   0.430411
 C 0.6065 0.7788 0.5667   -0.475074
 C 0.8628 0.2902 0.676   0.432387
 C 0.7645 0.2079 0.617   -0.474114
 C 0.2271 0.7071 0.8062   0.421396
 C 0.2212 0.7879 0.8277   -0.48776
 C 0.6142 0.1868 0.324   0.43199
 C 0.5909 0.1475 0.383   -0.470114
 C 0.9009 0.4209 0.1938   0.424158
 C 0.9602 0.3935 0.1723   -0.46842
 C 0.1868 0.6142 0.324   0.429613
 C 0.1475 0.5909 0.383   -0.473779
 C 0.4209 0.9009 0.1938   0.424445
 C 0.3935 0.9602 0.1723   -0.475492
 C 0.2902 0.8628 0.676   0.425354
 C 0.2079 0.7645 0.617   -0.478595
 C 0.7071 0.2271 0.8062   0.420419
 C 0.7879 0.2212 0.8277   -0.483436
 C 0.3858 0.7098 0.5726   0.431081
 C 0.4091 0.7921 0.5566   -0.473915
 C 0.0991 0.2929 0.52   0.420841
 C 0.0398 0.2121 0.4333   -0.478685
 C 0.1372 0.8132 0.4274   0.431388
 C 0.2355 0.8525 0.4434   -0.471238
 C 0.7729 0.5791 0.48   0.423628
 C 0.7788 0.6065 0.5667   -0.487268
 C 0.5129 0.5129 0.408   0.453603
 C 0.5669 0.5669 0.3678   -0.465109
 C 0.5016 0.5016 0.7472   0.468373
 C 0.5602 0.5602 0.84   -0.498986
 C 0.1049 0.1049 0.592   0.459205
 C 0.1991 0.1991 0.6322   -0.476992
 C 0.7544 0.7544 0.2528   0.468602
 C 0.7202 0.7202 0.16   -0.50014
 C 0.8951 0.4871 0.0   0.457668
 C 0.8009 0.4331 0.0   -0.472706
 C 0.2456 0.4984 0.0   0.467558
 C 0.2798 0.4398 0.0   -0.496621
 C 0.4871 0.8951 0.0   0.454595
 C 0.4331 0.8009 0.0   -0.473865
 C 0.4984 0.2456 0.0   0.468552
 C 0.4398 0.2798 0.0   -0.501303
 N 0.6294 0.3649 0.5177   -0.324603
 N 0.575 0.3483 0.5579   -0.033282
 N 0.6202 0.3585 0.6317   -0.011327
 N 0.705 0.3814 0.6432   -0.314458
 N 0.4591 0.4174 0.4587   -0.031514
 N 0.5204 0.4499 0.4269   -0.311398
 N 0.2973 0.0747 0.5836   -0.3242
 N 0.3798 0.1468 0.6496   -0.027115
 N 0.4243 0.2125 0.6282   -0.058596
 N 0.3708 0.1829 0.5455   -0.282416
 N 0.5041 0.4353 0.6992   -0.292881
 N 0.4394 0.398 0.6188   -0.0409
 N 0.8472 0.1117 0.4823   -0.328852
 N 0.7904 0.0171 0.4421   -0.034852
 N 0.7268 0.9885 0.3683   -0.010539
 N 0.7382 0.0618 0.3568   -0.3135
 N 0.9587 0.000399999999999 0.5413   -0.030963
 N 0.023 0.0935 0.5731   -0.315691
 N 0.4911 0.7137 0.4164   -0.328286
 N 0.4972 0.7302 0.3504   -0.02909
 N 0.5843 0.7961 0.3718   -0.056132
 N 0.6374 0.8253 0.4545   -0.281063
 N 0.7361 0.8049 0.3008   -0.291212
 N 0.7792 0.8206 0.3812   -0.041673
 N 0.8883 0.3706 0.7355   -0.328964
 N 0.9829 0.425 0.7733   -0.034103
 N 0.0115 0.3798 0.7383   -0.011912
 N 0.9382 0.295 0.6764   -0.314317
 N 0.9996 0.5409 0.9583   -0.031499
 N 0.9065 0.4796 0.9295   -0.313954
 N 0.2863 0.7027 0.7774   -0.321943
 N 0.2698 0.6202 0.767   -0.024679
 N 0.2039 0.5757 0.7882   -0.0574
 N 0.1747 0.6292 0.8121   -0.283602
 N 0.1951 0.4959 0.9312   -0.293917
 N 0.1794 0.5606 0.9586   -0.041495
 N 0.6351 0.1528 0.2645   -0.325281
 N 0.6517 0.2096 0.2267   -0.035401
 N 0.6415 0.2732 0.2617   -0.01007
 N 0.6186 0.2618 0.3236   -0.315799
 N 0.5826 0.0413 0.0417   -0.031651
 N 0.5501 0.977 0.0705   -0.318479
 N 0.9253 0.5089 0.2226   -0.326189
 N 0.8532 0.5028 0.233   -0.028376
 N 0.7875 0.4157 0.2118   -0.057195
 N 0.8171 0.3626 0.1879   -0.281217
 N 0.5647 0.2639 0.0688   -0.291059
 N 0.602 0.2208 0.0414   -0.041277
 N 0.1528 0.6351 0.2645   -0.325794
 N 0.2096 0.6517 0.2267   -0.033863
 N 0.2732 0.6415 0.2617   -0.008657
 N 0.2618 0.6186 0.3236   -0.31728
 N 0.0413 0.5826 0.0417   -0.030756
 N 0.977 0.5501 0.0705   -0.318485
 N 0.5089 0.9253 0.2226   -0.332814
 N 0.5028 0.8532 0.233   -0.024941
 N 0.4157 0.7875 0.2118   -0.056643
 N 0.3626 0.8171 0.1879   -0.279874
 N 0.2639 0.5647 0.0688   -0.290481
 N 0.2208 0.602 0.0414   -0.041399
 N 0.3706 0.8883 0.7355   -0.326457
 N 0.425 0.9829 0.7733   -0.031704
 N 0.3798 0.0115 0.7383   -0.010998
 N 0.295 0.9382 0.6764   -0.31586
 N 0.5409 0.9996 0.9583   -0.031639
 N 0.4796 0.9065 0.9295   -0.311276
 N 0.7027 0.2863 0.7774   -0.324118
 N 0.6202 0.2698 0.767   -0.024069
 N 0.5757 0.2039 0.7882   -0.058074
 N 0.6292 0.1747 0.8121   -0.283111
 N 0.4959 0.1951 0.9312   -0.293598
 N 0.5606 0.1794 0.9586   -0.042018
 N 0.3649 0.6294 0.5177   -0.326738
 N 0.3483 0.575 0.5579   -0.034099
 N 0.3585 0.6202 0.6317   -0.010684
 N 0.3814 0.705 0.6432   -0.317873
 N 0.4174 0.4591 0.4587   -0.032888
 N 0.4499 0.5204 0.4269   -0.316218
 N 0.0747 0.2973 0.5836   -0.326361
 N 0.1468 0.3798 0.6496   -0.025463
 N 0.2125 0.4243 0.6282   -0.058328
 N 0.1829 0.3708 0.5455   -0.281888
 N 0.4353 0.5041 0.6992   -0.292693
 N 0.398 0.4394 0.6188   -0.041819
 N 0.1117 0.8472 0.4823   -0.328138
 N 0.0171 0.7904 0.4421   -0.034067
 N 0.9885 0.7268 0.3683   -0.010636
 N 0.0618 0.7382 0.3568   -0.31728
 N 0.000399999999999 0.9587 0.5413   -0.031458
 N 0.0935 0.023 0.5731   -0.31743
 N 0.7137 0.4911 0.4164   -0.322269
 N 0.7302 0.4972 0.3504   -0.024364
 N 0.7961 0.5843 0.3718   -0.055496
 N 0.8253 0.6374 0.4545   -0.284324
 N 0.8049 0.7361 0.3008   -0.293387
 N 0.8206 0.7792 0.3812   -0.0427
 Cl 0.41523 0.20228 0.35733   -0.475229
 Cl 0.49393 0.33258 0.23083   -0.447164
 Cl 0.84495 0.0579 0.64267   -0.478002
 Cl 0.10175 0.2631 0.76917   -0.453063
 Cl 0.9421 0.58477 0.78705   -0.478125
 Cl 0.7369 0.50607 0.83865   -0.451125
 Cl 0.79772 0.15505 0.21295   -0.476854
 Cl 0.66742 0.89825 0.16135   -0.449554
 Cl 0.15505 0.79772 0.21295   -0.478177
 Cl 0.89825 0.66742 0.16135   -0.452163
 Cl 0.58477 0.9421 0.78705   -0.479392
 Cl 0.50607 0.7369 0.83865   -0.450986
 Cl 0.20228 0.41523 0.35733   -0.477987
 Cl 0.33258 0.49393 0.23083   -0.447136
 Cl 0.0579 0.84495 0.64267   -0.479231
 Cl 0.2631 0.10175 0.76917   -0.452209
 Cl 0.24448 0.24448 0.42506   -0.458649
 Cl 0.81942 0.81942 0.57494   -0.461681
 Cl 0.18058 0.75552 0.0   -0.462252
 Cl 0.75552 0.18058 0.0   -0.459569
 Cl 0.5 0.34212 0.84212   -0.441451
 Cl 0.5 0.65788 0.15788   -0.436184
 Cl 0.34212 0.5 0.84212   -0.441278
 Cl 0.65788 0.5 0.15788   -0.439028
