{'_ref': 'TBD', '_srcid': 'CAKYAQ_clean', 'submitters': [{'name': 'Dalar Nazarian Jeff Camp and David Sholl', 'email': 'dalar@gatech.edu jcamp6@gatech.edu'}], '_method': 'VASP DFT with PBE;DDEC'}
data_NdH2C6(NO3)2
_symmetry_space_group_name_H-M   'P 1'
_cell_length_a   7.98410000
_cell_length_b   8.35770054
_cell_length_c   17.59300000
_cell_angle_alpha   90.00000000
_cell_angle_beta   90.00000000
_cell_angle_gamma   109.49000217
_symmetry_Int_Tables_number   1
_chemical_formula_structural   NdH2C6(NO3)2
_chemical_formula_sum   'Nd4 H8 C24 N8 O24'
_cell_volume   1106.69018165
_cell_formula_units_Z   4
loop_
 _symmetry_equiv_pos_site_id
 _symmetry_equiv_pos_as_xyz
  1  'x, y, z'
loop_
 _atom_site_label
 _atom_site_fract_x
 _atom_site_fract_y
 _atom_site_fract_z
 _atom_site_charge
 Nd 0.74129 0.71817 0.47788   2.284802
 Nd 0.75871 0.28183 0.97788   2.284802
 Nd 0.25871 0.28183 0.52212   2.284802
 Nd 0.24129 0.71817 0.02212   2.284802
 H 0.6623 0.3728 0.2102   0.147909
 H 0.3676 0.0941 0.372   0.25158
 H 0.8377 0.6272 0.7102   0.147909
 H 0.1324 0.9059 0.872   0.25158
 H 0.3377 0.6272 0.7898   0.147909
 H 0.6324 0.9059 0.628   0.25158
 H 0.1623 0.3728 0.2898   0.147909
 H 0.8676 0.0941 0.128   0.25158
 C 0.071 0.564 0.4745   0.572694
 C 0.607 0.4131 0.375   0.762687
 C 0.5497 0.28 0.3154   -0.121608
 C 0.5867 0.2818 0.2374   -0.117798
 C 0.4934 0.1283 0.209   0.020049
 C 0.483 0.0589 0.1311   0.836858
 C 0.429 0.436 0.9745   0.572694
 C 0.893 0.5869 0.875   0.762687
 C 0.9503 0.72 0.8154   -0.121608
 C 0.9133 0.7182 0.7374   -0.117798
 C 0.0066 0.8717 0.709   0.020049
 C 0.017 0.9411 0.6311   0.836858
 C 0.929 0.436 0.5255   0.572695
 C 0.393 0.5869 0.625   0.762688
 C 0.4503 0.72 0.6846   -0.121607
 C 0.4133 0.7182 0.7626   -0.117797
 C 0.5066 0.8717 0.791   0.020049
 C 0.517 0.9411 0.8689   0.836858
 C 0.571 0.564 0.0255   0.572695
 C 0.107 0.4131 0.125   0.762688
 C 0.0497 0.28 0.1846   -0.121607
 C 0.0867 0.2818 0.2626   -0.117797
 C 0.9934 0.1283 0.291   0.020049
 C 0.983 0.0589 0.3689   0.836858
 N 0.421 0.1256 0.3292   0.034721
 N 0.3905 0.033 0.266   -0.285913
 N 0.079 0.8744 0.8292   0.034721
 N 0.1095 0.967 0.766   -0.285913
 N 0.579 0.8744 0.6708   0.034721
 N 0.6095 0.967 0.734   -0.285913
 N 0.921 0.1256 0.1708   0.034721
 N 0.8905 0.033 0.234   -0.285913
 O 0.0497 0.7023 0.4591   -0.635712
 O 0.2005 0.5221 0.4569   -0.655379
 O 0.5085 0.3911 0.4344   -0.91373
 O 0.7397 0.5314 0.3675   -0.599987
 O 0.5828 0.1508 0.0833   -0.819157
 O 0.374 0.9182 0.1191   -0.762018
 O 0.4503 0.2977 0.9591   -0.635712
 O 0.2995 0.4779 0.9569   -0.655379
 O 0.9915 0.6089 0.9344   -0.91373
 O 0.7603 0.4686 0.8675   -0.599987
 O 0.9172 0.8492 0.5833   -0.819157
 O 0.126 0.0818 0.6191   -0.762018
 O 0.9503 0.2977 0.5409   -0.635712
 O 0.7995 0.4779 0.5431   -0.655379
 O 0.4915 0.6089 0.5656   -0.91373
 O 0.2603 0.4686 0.6325   -0.599988
 O 0.4172 0.8492 0.9167   -0.819157
 O 0.626 0.0818 0.8809   -0.762018
 O 0.5497 0.7023 0.0409   -0.635712
 O 0.7005 0.5221 0.0431   -0.655379
 O 0.0085 0.3911 0.0656   -0.91373
 O 0.2397 0.5314 0.1325   -0.599988
 O 0.0828 0.1508 0.4167   -0.819157
 O 0.874 0.9182 0.3809   -0.762018
