{'_ref': 'TBD', '_srcid': 'CAKYAQ_clean', 'submitters': [{'name': 'Dalar Nazarian Jeff Camp and David Sholl', 'email': 'dalar@gatech.edu jcamp6@gatech.edu'}], '_method': 'VASP DFT with PBE;DDEC'}
data_CdH12C16(NO2)3
_symmetry_space_group_name_H-M   'P 1'
_cell_length_a   10.61500026
_cell_length_b   14.58890000
_cell_length_c   29.85600000
_cell_angle_alpha   90.00000000
_cell_angle_beta   90.39500125
_cell_angle_gamma   90.00000000
_symmetry_Int_Tables_number   1
_chemical_formula_structural   CdH12C16(NO2)3
_chemical_formula_sum   'Cd8 H96 C128 N24 O48'
_cell_volume   4623.42543333
_cell_formula_units_Z   8
loop_
 _symmetry_equiv_pos_site_id
 _symmetry_equiv_pos_as_xyz
  1  'x, y, z'
loop_
 _atom_site_label
 _atom_site_fract_x
 _atom_site_fract_y
 _atom_site_fract_z
 _atom_site_charge
 Cd 0.35457 0.16625 0.22468   0.944164
 Cd 0.81476 0.95873 0.25048   1.003382
 Cd 0.64543 0.66625 0.27532   0.944164
 Cd 0.18524 0.45873 0.24952   1.003382
 Cd 0.64543 0.83375 0.77532   0.944164
 Cd 0.18524 0.04127 0.74952   1.003382
 Cd 0.35457 0.33375 0.72468   0.944164
 Cd 0.81476 0.54127 0.75048   1.003382
 H 0.1074 0.8749 0.1572   0.112984
 H 0.1401 0.0277 0.1741   0.105592
 H 0.698 0.4279 0.206   0.098838
 H 0.8843 0.5032 0.2208   0.097293
 H 0.4721 0.3471 0.1822   0.073191
 H 0.5628 0.4025 0.1172   0.122349
 H 0.3547 0.2184 0.0505   0.140671
 H 0.2796 0.1679 0.1188   0.088679
 H 0.3459 0.3645 0.9994   0.142573
 H 0.7864 0.4186 0.9888   0.124583
 H 0.5494 0.3627 0.8685   0.139715
 H 0.6198 0.4114 0.8001   0.080192
 H 0.8736 0.567 0.8566   0.056647
 H 0.8103 0.5211 0.9264   0.120842
 H 0.2548 0.3629 0.9424   0.08253
 H 0.2649 0.4562 0.9693   0.061781
 H 0.2544 0.4479 0.8739   0.05739
 H 0.2567 0.5399 0.9018   0.058348
 H 0.0683 0.4159 0.905   0.412197
 H 0.9374 0.1636 0.1143   0.392132
 H 0.9051 0.4033 0.0559   0.078206
 H 0.8803 0.321 0.0239   0.059093
 H 0.9239 0.3014 0.1142   0.03602
 H 0.0317 0.3034 0.0799   0.053845
 H 0.8926 0.3749 0.3428   0.112984
 H 0.8599 0.5277 0.3259   0.105592
 H 0.302 0.9279 0.294   0.098838
 H 0.1157 0.0032 0.2792   0.097293
 H 0.5279 0.8471 0.3178   0.073191
 H 0.4372 0.9025 0.3828   0.122349
 H 0.6453 0.7184 0.4495   0.140671
 H 0.7204 0.6679 0.3812   0.088679
 H 0.6541 0.8645 0.5006   0.142573
 H 0.2136 0.9186 0.5112   0.124583
 H 0.4506 0.8627 0.6315   0.139715
 H 0.3802 0.9114 0.6999   0.080192
 H 0.1264 0.067 0.6434   0.056647
 H 0.1897 0.0211 0.5736   0.120842
 H 0.7452 0.8629 0.5576   0.08253
 H 0.7351 0.9562 0.5307   0.061781
 H 0.7456 0.9479 0.6261   0.05739
 H 0.7433 0.0399 0.5982   0.058348
 H 0.9317 0.9159 0.595   0.412197
 H 0.0626 0.6636 0.3857   0.392132
 H 0.0949 0.9033 0.4441   0.078206
 H 0.1197 0.821 0.4761   0.059093
 H 0.0761 0.8014 0.3858   0.03602
 H 0.9683 0.8034 0.4201   0.053845
 H 0.8926 0.1251 0.8428   0.112985
 H 0.8599 0.9723 0.8259   0.105592
 H 0.302 0.5721 0.794   0.098838
 H 0.1157 0.4968 0.7792   0.097293
 H 0.5279 0.6529 0.8178   0.073191
 H 0.4372 0.5975 0.8828   0.122349
 H 0.6453 0.7816 0.9495   0.140671
 H 0.7204 0.8321 0.8812   0.088679
 H 0.6541 0.6355 0.000599999999999   0.142573
 H 0.2136 0.5814 0.0112   0.124583
 H 0.4506 0.6373 0.1315   0.139715
 H 0.3802 0.5886 0.1999   0.080192
 H 0.1264 0.433 0.1434   0.056647
 H 0.1897 0.4789 0.0736   0.120842
 H 0.7452 0.6371 0.0576   0.08253
 H 0.7351 0.5438 0.0307   0.061781
 H 0.7456 0.5521 0.1261   0.05739
 H 0.7433 0.4601 0.0982   0.058349
 H 0.9317 0.5841 0.095   0.412198
 H 0.0626 0.8364 0.8857   0.392132
 H 0.0949 0.5967 0.9441   0.078206
 H 0.1197 0.679 0.9761   0.059093
 H 0.0761 0.6986 0.8858   0.03602
 H 0.9683 0.6966 0.9201   0.053845
 H 0.1074 0.6251 0.6572   0.112985
 H 0.1401 0.4723 0.6741   0.105592
 H 0.698 0.0721 0.706   0.098838
 H 0.8843 0.9968 0.7208   0.097293
 H 0.4721 0.1529 0.6822   0.073191
 H 0.5628 0.0975 0.6172   0.122349
 H 0.3547 0.2816 0.5505   0.140671
 H 0.2796 0.3321 0.6188   0.088679
 H 0.3459 0.1355 0.4994   0.142573
 H 0.7864 0.0814 0.4888   0.124583
 H 0.5494 0.1373 0.3685   0.139715
 H 0.6198 0.0886 0.3001   0.080192
 H 0.8736 0.933 0.3566   0.056647
 H 0.8103 0.9789 0.4264   0.120842
 H 0.2548 0.1371 0.4424   0.08253
 H 0.2649 0.0438 0.4693   0.061781
 H 0.2544 0.0521 0.3739   0.05739
 H 0.2567 0.9601 0.4018   0.058349
 H 0.0683 0.0841 0.405   0.412198
 H 0.9374 0.3364 0.6143   0.392132
 H 0.9051 0.0967 0.5559   0.078206
 H 0.8803 0.179 0.5239   0.059093
 H 0.9239 0.1986 0.6142   0.03602
 H 0.0317 0.1966 0.5799   0.053845
 C 0.4115 0.9564 0.19977   0.037091
 C 0.3986 0.8635 0.1916   0.149598
 C 0.1849 0.8944 0.1683   0.092513
 C 0.2054 0.9861 0.17845   0.066347
 C 0.534 0.9972 0.21742   0.601116
 C 0.4997 0.7927 0.20177   0.628604
 C 0.9935 0.3038 0.21861   0.046366
 C 0.8835 0.2545 0.2107   0.130041
 C 0.772 0.3945 0.2097   0.095313
 C 0.8845 0.4397 0.21823   0.062725
 C 0.122 0.258 0.2207   0.583311
 C 0.8795 0.1513 0.2055   0.631527
 C 0.4637 0.3137 0.1558   0.21322
 C 0.5083 0.3526 0.1163   -0.23336
 C 0.4703 0.3157 0.0756   0.154996
 C 0.3858 0.2433 0.077   -0.221207
 C 0.3475 0.2081 0.1178   0.136597
 C 0.5014 0.3988 0.9604   0.254323
 C 0.6302 0.4029 0.9499   -0.051994
 C 0.5173 0.3518 0.0336   -0.029127
 C 0.4331 0.3703 0.9981   -0.277615
 C 0.7035 0.398 0.9884   -0.237816
 C 0.6475 0.3605 0.0265   0.211612
 C 0.6725 0.4353 0.9059   0.147684
 C 0.616 0.4041 0.867   -0.189683
 C 0.6583 0.4342 0.82588   0.190653
 C 0.8075 0.5255 0.8589   0.169197
 C 0.7699 0.4977 0.9011   -0.225215
 C 0.2838 0.4259 0.9413   0.046078
 C 0.2296 0.4764 0.9019   0.118547
 C 0.869 0.342 0.0543   0.059479
 C 0.947 0.2814 0.084   0.148441
 C 0.5885 0.4564 0.30023   0.037091
 C 0.6014 0.3635 0.3084   0.149598
 C 0.8151 0.3944 0.3317   0.092513
 C 0.7946 0.4861 0.32155   0.066347
 C 0.466 0.4972 0.28258   0.601116
 C 0.5003 0.2927 0.29823   0.628604
 C 0.0065 0.8038 0.28139   0.046366
 C 0.1165 0.7545 0.2893   0.130041
 C 0.228 0.8945 0.2903   0.095313
 C 0.1155 0.9397 0.28177   0.062725
 C 0.878 0.758 0.2793   0.583311
 C 0.1205 0.6513 0.2945   0.631527
 C 0.5363 0.8137 0.3442   0.21322
 C 0.4917 0.8526 0.3837   -0.23336
 C 0.5297 0.8157 0.4244   0.154996
 C 0.6142 0.7433 0.423   -0.221207
 C 0.6525 0.7081 0.3822   0.136597
 C 0.4986 0.8988 0.5396   0.254323
 C 0.3698 0.9029 0.5501   -0.051994
 C 0.4827 0.8518 0.4664   -0.029127
 C 0.5669 0.8703 0.5019   -0.277615
 C 0.2965 0.898 0.5116   -0.237816
 C 0.3525 0.8605 0.4735   0.211612
 C 0.3275 0.9353 0.5941   0.147684
 C 0.384 0.9041 0.633   -0.189683
 C 0.3417 0.9342 0.67412   0.190653
 C 0.1925 0.0255 0.6411   0.169197
 C 0.2301 0.9977 0.5989   -0.225215
 C 0.7162 0.9259 0.5587   0.046078
 C 0.7704 0.9764 0.5981   0.118547
 C 0.131 0.842 0.4457   0.059479
 C 0.053 0.7814 0.416   0.148441
 C 0.5885 0.0436 0.80023   0.037091
 C 0.6014 0.1365 0.8084   0.149598
 C 0.8151 0.1056 0.8317   0.092512
 C 0.7946 0.0139 0.82155   0.066347
 C 0.466 0.0028 0.78258   0.601116
 C 0.5003 0.2073 0.79823   0.628604
 C 0.0065 0.6962 0.78139   0.046366
 C 0.1165 0.7455 0.7893   0.130041
 C 0.228 0.6055 0.7903   0.095313
 C 0.1155 0.5603 0.78177   0.062725
 C 0.878 0.742 0.7793   0.583311
 C 0.1205 0.8487 0.7945   0.631527
 C 0.5363 0.6863 0.8442   0.21322
 C 0.4917 0.6474 0.8837   -0.23336
 C 0.5297 0.6843 0.9244   0.154996
 C 0.6142 0.7567 0.923   -0.221207
 C 0.6525 0.7919 0.8822   0.136597
 C 0.4986 0.6012 0.0396   0.254323
 C 0.3698 0.5971 0.0501   -0.051994
 C 0.4827 0.6482 0.9664   -0.029126
 C 0.5669 0.6297 0.0019   -0.277614
 C 0.2965 0.602 0.0116   -0.237816
 C 0.3525 0.6395 0.9735   0.211612
 C 0.3275 0.5647 0.0941   0.147685
 C 0.384 0.5959 0.133   -0.189683
 C 0.3417 0.5658 0.17412   0.190653
 C 0.1925 0.4745 0.1411   0.169197
 C 0.2301 0.5023 0.0989   -0.225215
 C 0.7162 0.5741 0.0587   0.046078
 C 0.7704 0.5236 0.0981   0.118547
 C 0.131 0.658 0.9457   0.059479
 C 0.053 0.7186 0.916   0.148441
 C 0.4115 0.5436 0.69977   0.037091
 C 0.3986 0.6365 0.6916   0.149598
 C 0.1849 0.6056 0.6683   0.092513
 C 0.2054 0.5139 0.67845   0.066347
 C 0.534 0.5028 0.71742   0.601116
 C 0.4997 0.7073 0.70177   0.628604
 C 0.9935 0.1962 0.71861   0.046366
 C 0.8835 0.2455 0.7107   0.130041
 C 0.772 0.1055 0.7097   0.095313
 C 0.8845 0.0603 0.71823   0.062725
 C 0.122 0.242 0.7207   0.583311
 C 0.8795 0.3487 0.7055   0.631527
 C 0.4637 0.1863 0.6558   0.21322
 C 0.5083 0.1474 0.6163   -0.23336
 C 0.4703 0.1843 0.5756   0.154996
 C 0.3858 0.2567 0.577   -0.221207
 C 0.3475 0.2919 0.6178   0.136597
 C 0.5014 0.1012 0.4604   0.254323
 C 0.6302 0.0971 0.4499   -0.051994
 C 0.5173 0.1482 0.5336   -0.029126
 C 0.4331 0.1297 0.4981   -0.277614
 C 0.7035 0.102 0.4884   -0.237816
 C 0.6475 0.1395 0.5265   0.211612
 C 0.6725 0.0647 0.4059   0.147685
 C 0.616 0.0959 0.367   -0.189683
 C 0.6583 0.0658 0.32588   0.190653
 C 0.8075 0.9745 0.3589   0.169197
 C 0.7699 0.0023 0.4011   -0.225215
 C 0.2838 0.0741 0.4413   0.046078
 C 0.2296 0.0236 0.4019   0.118547
 C 0.869 0.158 0.5543   0.059479
 C 0.947 0.2186 0.584   0.148441
 N 0.3162 0.0167 0.19421   -0.304233
 N 0.2823 0.8321 0.1752   -0.340541
 N 0.9936 0.3945 0.22283   -0.301265
 N 0.7696 0.3014 0.2068   -0.276487
 N 0.4105 0.2327 0.1579   -0.327453
 N 0.7528 0.4952 0.82151   -0.373522
 N 0.6838 0.5167 0.30579   -0.304233
 N 0.7177 0.3321 0.3248   -0.340541
 N 0.0064 0.8945 0.27717   -0.301265
 N 0.2304 0.8014 0.2932   -0.276487
 N 0.5895 0.7327 0.3421   -0.327453
 N 0.2472 0.9952 0.67849   -0.373522
 N 0.6838 0.9833 0.80579   -0.304233
 N 0.7177 0.1679 0.8248   -0.340541
 N 0.0064 0.6055 0.77717   -0.301265
 N 0.2304 0.6986 0.7932   -0.276487
 N 0.5895 0.7673 0.8421   -0.327453
 N 0.2472 0.5048 0.17849   -0.373522
 N 0.3162 0.4833 0.69421   -0.304233
 N 0.2823 0.6679 0.6752   -0.340541
 N 0.9936 0.1055 0.72283   -0.301265
 N 0.7696 0.1986 0.7068   -0.276487
 N 0.4105 0.2673 0.6579   -0.327453
 N 0.7528 0.0048 0.32151   -0.373522
 O 0.5383 0.0797 0.22767   -0.535835
 O 0.6246 0.9416 0.21933   -0.542161
 O 0.5034 0.7645 0.24101   -0.561937
 O 0.5634 0.7627 0.16925   -0.621001
 O 0.2157 0.3054 0.23328   -0.56991
 O 0.1304 0.1762 0.20943   -0.529778
 O 0.8684 0.118 0.16685   -0.572384
 O 0.8798 0.1085 0.24176   -0.600759
 O 0.4202 0.432 0.9301   -0.264005
 O 0.0907 0.4692 0.9086   -0.626252
 O 0.7286 0.3527 0.0613   -0.272784
 O 0.9635 0.1795 0.0897   -0.632296
 O 0.4617 0.5797 0.27233   -0.535835
 O 0.3754 0.4416 0.28067   -0.542161
 O 0.4966 0.2645 0.25899   -0.561937
 O 0.4366 0.2627 0.33075   -0.621001
 O 0.7843 0.8054 0.26672   -0.56991
 O 0.8696 0.6762 0.29057   -0.529778
 O 0.1316 0.618 0.33315   -0.572384
 O 0.1202 0.6085 0.25824   -0.600759
 O 0.5798 0.932 0.5699   -0.264005
 O 0.9093 0.9692 0.5914   -0.626252
 O 0.2714 0.8527 0.4387   -0.272784
 O 0.0365 0.6795 0.4103   -0.632296
 O 0.4617 0.9203 0.77233   -0.535835
 O 0.3754 0.0584 0.78067   -0.542161
 O 0.4966 0.2355 0.75899   -0.561937
 O 0.4366 0.2373 0.83075   -0.621001
 O 0.7843 0.6946 0.76672   -0.56991
 O 0.8696 0.8238 0.79057   -0.529778
 O 0.1316 0.882 0.83315   -0.572384
 O 0.1202 0.8915 0.75824   -0.600759
 O 0.5798 0.568 0.0699   -0.264005
 O 0.9093 0.5308 0.0914   -0.626252
 O 0.2714 0.6473 0.9387   -0.272784
 O 0.0365 0.8205 0.9103   -0.632296
 O 0.5383 0.4203 0.72767   -0.535835
 O 0.6246 0.5584 0.71933   -0.542161
 O 0.5034 0.7355 0.74101   -0.561937
 O 0.5634 0.7373 0.66925   -0.621001
 O 0.2157 0.1946 0.73328   -0.56991
 O 0.1304 0.3238 0.70943   -0.529778
 O 0.8684 0.382 0.66685   -0.572384
 O 0.8798 0.3915 0.74176   -0.600759
 O 0.4202 0.068 0.4301   -0.264005
 O 0.0907 0.0308 0.4086   -0.626252
 O 0.7286 0.1473 0.5613   -0.272784
 O 0.9635 0.3205 0.5897   -0.632296
