{'_ref': 'TBD', '_srcid': 'CAKYAQ_clean', 'submitters': [{'name': 'Dalar Nazarian Jeff Camp and David Sholl', 'email': 'dalar@gatech.edu jcamp6@gatech.edu'}], '_method': 'VASP DFT with PBE;DDEC'}
data_Zn3H4C10N4O9
_symmetry_space_group_name_H-M   'P 1'
_cell_length_a   11.74370000
_cell_length_b   13.01010019
_cell_length_c   18.92510000
_cell_angle_alpha   90.00000000
_cell_angle_beta   90.00000000
_cell_angle_gamma   112.31600073
_symmetry_Int_Tables_number   1
_chemical_formula_structural   Zn3H4C10N4O9
_chemical_formula_sum   'Zn12 H16 C40 N16 O36'
_cell_volume   2674.94093431
_cell_formula_units_Z   4
loop_
 _symmetry_equiv_pos_site_id
 _symmetry_equiv_pos_as_xyz
  1  'x, y, z'
loop_
 _atom_site_label
 _atom_site_fract_x
 _atom_site_fract_y
 _atom_site_fract_z
 _atom_site_charge
 Zn 0.1761 0.65079 0.62815   0.969031
 Zn 0.6612 0.62255 0.58563   1.061413
 Zn 0.55602 0.87889 0.83179   0.883933
 Zn 0.3239 0.84921 0.12815   0.969031
 Zn 0.8388 0.87745 0.08563   1.061413
 Zn 0.94398 0.62111 0.33179   0.883933
 Zn 0.8239 0.34921 0.37185   0.96903
 Zn 0.3388 0.37745 0.41437   1.061412
 Zn 0.44398 0.12111 0.16821   0.883933
 Zn 0.6761 0.15079 0.87185   0.969031
 Zn 0.1612 0.12255 0.91437   1.061412
 Zn 0.05602 0.37889 0.66821   0.883933
 H 0.1607 0.6217 0.4521   0.07868
 H 0.2368 0.5339 0.7054   0.473822
 H 0.1218 0.5479 0.7364   0.504967
 H 0.6975 0.7288 0.7502   0.094058
 H 0.3393 0.8783 0.9521   0.07868
 H 0.2632 0.9661 0.2054   0.473822
 H 0.3782 0.9521 0.2364   0.504967
 H 0.8025 0.7712 0.2502   0.094058
 H 0.8393 0.3783 0.5479   0.078679
 H 0.7632 0.4661 0.2946   0.473822
 H 0.8782 0.4521 0.2636   0.504967
 H 0.3025 0.2712 0.2498   0.094058
 H 0.6607 0.1217 0.0479   0.07868
 H 0.7368 0.0339 0.7946   0.473822
 H 0.6218 0.0479 0.7636   0.504967
 H 0.1975 0.2288 0.7498   0.094058
 C 0.0926 0.6313 0.4715   0.327186
 C 0.4236 0.6533 0.582   0.646966
 C 0.6274 0.7286 0.7273   0.331893
 C 0.4591 0.7531 0.7056   -0.081474
 C 0.3668 0.8032 0.7224   0.631705
 C 0.4832 0.6969 0.65   -0.004574
 C 0.9179 0.6483 0.4809   -0.012788
 C 0.9292 0.6647 0.6203   0.694978
 C 0.9657 0.651 0.5479   -0.041638
 C 0.8051 0.6603 0.4508   0.665745
 C 0.4074 0.8687 0.9715   0.327186
 C 0.0764 0.8467 0.082   0.646966
 C 0.8726 0.7714 0.2273   0.331893
 C 0.0409 0.7469 0.2056   -0.081474
 C 0.1332 0.6968 0.2224   0.631705
 C 0.0168 0.8031 0.15   -0.004574
 C 0.5821 0.8517 0.9809   -0.012788
 C 0.5708 0.8353 0.1203   0.694978
 C 0.5343 0.849 0.0479   -0.041638
 C 0.6949 0.8397 0.9508   0.665745
 C 0.9074 0.3687 0.5285   0.327186
 C 0.5764 0.3467 0.418   0.646966
 C 0.3726 0.2714 0.2727   0.331893
 C 0.5409 0.2469 0.2944   -0.081474
 C 0.6332 0.1968 0.2776   0.631705
 C 0.5168 0.3031 0.35   -0.004574
 C 0.0821 0.3517 0.5191   -0.012788
 C 0.0708 0.3353 0.3797   0.694978
 C 0.0343 0.349 0.4521   -0.041638
 C 0.1949 0.3397 0.5492   0.665744
 C 0.5926 0.1313 0.0285   0.327186
 C 0.9236 0.1533 0.918   0.646966
 C 0.1274 0.2286 0.7727   0.331893
 C 0.9591 0.2531 0.7944   -0.081474
 C 0.8668 0.3032 0.7776   0.631705
 C 0.9832 0.1969 0.85   -0.004574
 C 0.4179 0.1483 0.0191   -0.012788
 C 0.4292 0.1647 0.8797   0.694978
 C 0.4657 0.151 0.9521   -0.041638
 C 0.3051 0.1603 0.0492   0.665744
 N 0.0781 0.6417 0.5397   -0.420569
 N 0.5901 0.683 0.6642   -0.44686
 N 0.5523 0.7739 0.7537   -0.431694
 N 0.9987 0.6358 0.433   -0.447092
 N 0.4219 0.8583 0.0397   -0.420569
 N 0.9099 0.817 0.1642   -0.44686
 N 0.9477 0.7261 0.2537   -0.431694
 N 0.5013 0.8642 0.933   -0.447092
 N 0.9219 0.3583 0.4603   -0.420569
 N 0.4099 0.317 0.3358   -0.44686
 N 0.4477 0.2261 0.2463   -0.431694
 N 0.0013 0.3642 0.567   -0.447092
 N 0.5781 0.1417 0.9603   -0.420569
 N 0.0901 0.183 0.8358   -0.44686
 N 0.0523 0.2739 0.7463   -0.431694
 N 0.4987 0.1358 0.067   -0.447092
 O 0.32 0.6526 0.5662   -0.602939
 O 0.4862 0.6184 0.5413   -0.57261
 O 0.3854 0.8606 0.7777   -0.569867
 O 0.2766 0.7895 0.6818   -0.573349
 O 0.1558 0.5306 0.6931   -0.749041
 O 0.0089 0.6736 0.667   -0.600448
 O 0.8267 0.6677 0.6352   -0.626334
 O 0.7254 0.6739 0.4906   -0.592443
 O 0.7974 0.6577 0.3843   -0.590656
 O 0.18 0.8474 0.0662   -0.602939
 O 0.0138 0.8816 0.0413   -0.57261
 O 0.1146 0.6394 0.2777   -0.569867
 O 0.2234 0.7105 0.1818   -0.573349
 O 0.3442 0.9694 0.1931   -0.749041
 O 0.4911 0.8264 0.167   -0.600448
 O 0.6733 0.8323 0.1352   -0.626334
 O 0.7746 0.8261 0.9906   -0.592443
 O 0.7026 0.8423 0.8843   -0.590656
 O 0.68 0.3474 0.4338   -0.602939
 O 0.5138 0.3816 0.4587   -0.57261
 O 0.6146 0.1394 0.2223   -0.569867
 O 0.7234 0.2105 0.3182   -0.573349
 O 0.8442 0.4694 0.3069   -0.749041
 O 0.9911 0.3264 0.333   -0.600449
 O 0.1733 0.3323 0.3648   -0.626334
 O 0.2746 0.3261 0.5094   -0.592442
 O 0.2026 0.3423 0.6157   -0.590656
 O 0.82 0.1526 0.9338   -0.602939
 O 0.9862 0.1184 0.9587   -0.57261
 O 0.8854 0.3606 0.7223   -0.569867
 O 0.7766 0.2895 0.8182   -0.573349
 O 0.6558 0.0306 0.8069   -0.749041
 O 0.5089 0.1736 0.833   -0.600449
 O 0.3267 0.1677 0.8648   -0.626334
 O 0.2254 0.1739 0.0094   -0.592442
 O 0.2974 0.1577 0.1157   -0.590656
