{'_ref': 'TBD', '_srcid': 'CAKYAQ_clean', 'submitters': [{'name': 'Dalar Nazarian Jeff Camp and David Sholl', 'email': 'dalar@gatech.edu jcamp6@gatech.edu'}], '_method': 'VASP DFT with PBE;DDEC'}
data_LuH6(CO)6
_symmetry_space_group_name_H-M   'P 1'
_cell_length_a   5.22400000
_cell_length_b   8.79999968
_cell_length_c   26.05500000
_cell_angle_alpha   90.00000000
_cell_angle_beta   90.00000000
_cell_angle_gamma   97.38000037
_symmetry_Int_Tables_number   1
_chemical_formula_structural   LuH6(CO)6
_chemical_formula_sum   'Lu4 H24 C24 O24'
_cell_volume   1187.85723688
_cell_formula_units_Z   4
loop_
 _symmetry_equiv_pos_site_id
 _symmetry_equiv_pos_as_xyz
  1  'x, y, z'
loop_
 _atom_site_label
 _atom_site_fract_x
 _atom_site_fract_y
 _atom_site_fract_z
 _atom_site_charge
 Lu 0.59652 0.47856 0.65917   1.940449
 Lu 0.40348 0.02144 0.15917   1.940449
 Lu 0.40348 0.52144 0.34083   1.940449
 Lu 0.59652 0.97856 0.84083   1.940449
 H 0.995 0.88 0.6442   0.143586
 H 0.944 0.851 0.7016   0.139237
 H 0.414 0.987 0.6647   0.123853
 H 0.231 0.079 0.6943   0.127595
 H 0.7762 0.55 0.483   0.116083
 H 0.9995 0.6526 0.5111   0.131518
 H 0.005 0.62 0.1442   0.143586
 H 0.056 0.649 0.2016   0.139237
 H 0.586 0.513 0.1647   0.123853
 H 0.769 0.421 0.1943   0.127595
 H 0.2238 0.95 0.983   0.116083
 H 0.000500000000002 0.8474 0.0111   0.131518
 H 0.005 0.12 0.3558   0.143586
 H 0.056 0.149 0.2984   0.139237
 H 0.586 0.013 0.3353   0.123854
 H 0.769 0.921 0.3057   0.127595
 H 0.2238 0.45 0.517   0.116083
 H 0.000500000000002 0.3474 0.4889   0.131518
 H 0.995 0.38 0.8558   0.143586
 H 0.944 0.351 0.7984   0.139237
 H 0.414 0.487 0.8353   0.123854
 H 0.231 0.579 0.8057   0.127595
 H 0.7762 0.05 0.017   0.116083
 H 0.9995 0.1526 0.9889   0.131518
 C 0.165 0.7046 0.6685   0.816355
 C 0.0764 0.8583 0.67597   -0.316185
 C 0.29 0.9841 0.68985   -0.267374
 C 0.4132 0.967 0.7414   0.725137
 C 0.7803 0.5105 0.55961   0.730641
 C 0.9097 0.5492 0.50886   -0.26917
 C 0.835 0.7954 0.1685   0.816355
 C 0.9236 0.6417 0.17597   -0.316185
 C 0.71 0.5159 0.18985   -0.267374
 C 0.5868 0.533 0.2414   0.725137
 C 0.2197 0.9895 0.05961   0.730641
 C 0.0903 0.9508 0.00886   -0.26917
 C 0.835 0.2954 0.3315   0.816355
 C 0.9236 0.1417 0.32403   -0.316185
 C 0.71 0.0159 0.31015   -0.267374
 C 0.5868 0.033 0.2586   0.725137
 C 0.2197 0.4895 0.44039   0.730641
 C 0.0903 0.4508 0.49114   -0.26917
 C 0.165 0.2046 0.8315   0.816355
 C 0.0764 0.3583 0.82403   -0.316185
 C 0.29 0.4841 0.81015   -0.267374
 C 0.4132 0.467 0.7586   0.725137
 C 0.7803 0.0105 0.94039   0.730641
 C 0.9097 0.0492 0.99114   -0.26917
 O 0.4 0.6924 0.66646   -0.651573
 O 0.9959 0.5897 0.66387   -0.740733
 O 0.6269 0.0461 0.75162   -0.667929
 O 0.3023 0.8802 0.77586   -0.69896
 O 0.8113 0.3901 0.58401   -0.706071
 O 0.6422 0.6037 0.57821   -0.67646
 O 0.6 0.8076 0.16646   -0.651573
 O 0.0041 0.9103 0.16387   -0.740733
 O 0.3731 0.4539 0.25162   -0.667929
 O 0.6977 0.6198 0.27586   -0.69896
 O 0.1887 0.1099 0.08401   -0.706071
 O 0.3578 0.8963 0.07821   -0.67646
 O 0.6 0.3076 0.33354   -0.651573
 O 0.0041 0.4103 0.33613   -0.740733
 O 0.3731 0.9539 0.24838   -0.667929
 O 0.6977 0.1198 0.22414   -0.69896
 O 0.1887 0.6099 0.41599   -0.706071
 O 0.3578 0.3963 0.42179   -0.67646
 O 0.4 0.1924 0.83354   -0.651573
 O 0.9959 0.0897 0.83613   -0.740733
 O 0.6269 0.5461 0.74838   -0.667929
 O 0.3023 0.3802 0.72414   -0.69896
 O 0.8113 0.8901 0.91599   -0.706071
 O 0.6422 0.1037 0.92179   -0.67646
