{'_ref': 'TBD', '_srcid': 'CAKYAQ_clean', 'submitters': [{'name': 'Dalar Nazarian Jeff Camp and David Sholl', 'email': 'dalar@gatech.edu jcamp6@gatech.edu'}], '_method': 'VASP DFT with PBE;DDEC'}
data_ZnH16(C17N5)2
_symmetry_space_group_name_H-M   'P 1'
_cell_length_a   11.43410000
_cell_length_b   12.57910000
_cell_length_c   14.77590000
_cell_angle_alpha   90.00000000
_cell_angle_beta   90.00000000
_cell_angle_gamma   90.00000000
_symmetry_Int_Tables_number   1
_chemical_formula_structural   ZnH16(C17N5)2
_chemical_formula_sum   'Zn2 H32 C68 N20'
_cell_volume   2125.22785262
_cell_formula_units_Z   2
loop_
 _symmetry_equiv_pos_site_id
 _symmetry_equiv_pos_as_xyz
  1  'x, y, z'
loop_
 _atom_site_label
 _atom_site_fract_x
 _atom_site_fract_y
 _atom_site_fract_z
 _atom_site_charge
 Zn 0.5 0.5 0.25   0.853603
 Zn 0.5 0.5 0.75   0.853603
 H 0.6967 0.2179 0.1361   0.111279
 H 0.8286 0.0791 0.1359   0.103069
 H 0.9106 0.3444 0.2804   0.127983
 H 0.7093 0.3496 0.2808   0.083335
 H 0.3033 0.7821 0.1361   0.111279
 H 0.1714 0.9209 0.1359   0.103069
 H 0.0894 0.6556 0.2804   0.127983
 H 0.2907 0.6504 0.2808   0.083335
 H 0.3033 0.2179 0.3639   0.111279
 H 0.1714 0.0791 0.3641   0.10307
 H 0.0894 0.3444 0.2196   0.127983
 H 0.2907 0.3496 0.2192   0.083335
 H 0.6967 0.7821 0.3639   0.111279
 H 0.8286 0.9209 0.3641   0.10307
 H 0.9106 0.6556 0.2196   0.127983
 H 0.7093 0.6504 0.2192   0.083335
 H 0.3033 0.7821 0.8639   0.111279
 H 0.1714 0.9209 0.8641   0.103069
 H 0.0894 0.6556 0.7196   0.127983
 H 0.2907 0.6504 0.7192   0.083335
 H 0.6967 0.2179 0.8639   0.111279
 H 0.8286 0.0791 0.8641   0.103069
 H 0.9106 0.3444 0.7196   0.127983
 H 0.7093 0.3496 0.7192   0.083335
 H 0.6967 0.7821 0.6361   0.111279
 H 0.8286 0.9209 0.6359   0.10307
 H 0.9106 0.6556 0.7804   0.127983
 H 0.7093 0.6504 0.7808   0.083335
 H 0.3033 0.2179 0.6361   0.111279
 H 0.1714 0.0791 0.6359   0.10307
 H 0.0894 0.3444 0.7804   0.127983
 H 0.2907 0.3496 0.7808   0.083335
 C 0.87186 0.40778 0.26813   -0.183854
 C 0.75022 0.41168 0.26799   0.161713
 C 0.53842 0.34899 0.08035   0.435492
 C 0.7207 0.1889 0.08133   -0.152125
 C 0.8014 0.1066 0.08143   -0.079743
 C 0.9214 0.9093 0.081   0.288197
 C 0.12814 0.59222 0.26813   -0.183854
 C 0.24978 0.58832 0.26799   0.161712
 C 0.46158 0.65101 0.08035   0.435492
 C 0.2793 0.8111 0.08133   -0.152126
 C 0.1986 0.8934 0.08143   -0.079743
 C 0.0786 0.0907 0.081   0.288197
 C 0.12814 0.40778 0.23187   -0.183854
 C 0.24978 0.41168 0.23201   0.161713
 C 0.46158 0.34899 0.41965   0.435492
 C 0.2793 0.1889 0.41867   -0.152125
 C 0.1986 0.1066 0.41857   -0.079743
 C 0.0786 0.9093 0.419   0.288197
 C 0.87186 0.59222 0.23187   -0.183855
 C 0.75022 0.58832 0.23201   0.161713
 C 0.53842 0.65101 0.41965   0.435493
 C 0.7207 0.8111 0.41867   -0.152126
 C 0.8014 0.8934 0.41857   -0.079743
 C 0.9214 0.0907 0.419   0.288197
 C 0.12814 0.59222 0.73187   -0.183856
 C 0.24978 0.58832 0.73201   0.161713
 C 0.46158 0.65101 0.91965   0.435493
 C 0.2793 0.8111 0.91867   -0.152125
 C 0.1986 0.8934 0.91857   -0.079743
 C 0.0786 0.0907 0.919   0.288196
 C 0.87186 0.40778 0.73187   -0.183856
 C 0.75022 0.41168 0.73201   0.161713
 C 0.53842 0.34899 0.91965   0.435493
 C 0.7207 0.1889 0.91867   -0.152126
 C 0.8014 0.1066 0.91857   -0.079743
 C 0.9214 0.9093 0.919   0.288197
 C 0.87186 0.59222 0.76813   -0.183856
 C 0.75022 0.58832 0.76799   0.161713
 C 0.53842 0.65101 0.58035   0.435493
 C 0.7207 0.8111 0.58133   -0.152125
 C 0.8014 0.8934 0.58143   -0.079743
 C 0.9214 0.0907 0.581   0.288196
 C 0.12814 0.40778 0.76813   -0.183857
 C 0.24978 0.41168 0.76799   0.161713
 C 0.46158 0.34899 0.58035   0.435493
 C 0.2793 0.1889 0.58133   -0.152126
 C 0.1986 0.1066 0.58143   -0.079743
 C 0.0786 0.9093 0.581   0.288196
 C 0.9351 0.5 0.25   0.094734
 C 0.0649 0.5 0.25   0.094729
 C 0.0649 0.5 0.75   0.094733
 C 0.9351 0.5 0.75   0.094728
 C 0.5852 0.3106 0.0   -0.429205
 C 0.6764 0.23 0.0   0.171531
 C 0.8417 0.0648 0.0   -0.080034
 C 0.934 0.9764 0.0   0.014188
 C 0.4148 0.6894 0.0   -0.429205
 C 0.3236 0.77 0.0   0.171531
 C 0.1583 0.9352 0.0   -0.080034
 C 0.066 0.0236 0.0   0.014187
 C 0.4148 0.3106 0.5   -0.429205
 C 0.3236 0.23 0.5   0.171531
 C 0.1583 0.0648 0.5   -0.080033
 C 0.066 0.9764 0.5   0.014188
 C 0.5852 0.6894 0.5   -0.429205
 C 0.6764 0.77 0.5   0.171531
 C 0.8417 0.9352 0.5   -0.080033
 C 0.934 0.0236 0.5   0.014187
 N 0.50101 0.37981 0.14765   -0.498951
 N 0.9108 0.8592 0.1447   -0.339731
 N 0.49899 0.62019 0.14765   -0.498951
 N 0.0892 0.1408 0.1447   -0.339731
 N 0.49899 0.37981 0.35235   -0.498951
 N 0.0892 0.8592 0.3553   -0.339731
 N 0.50101 0.62019 0.35235   -0.498951
 N 0.9108 0.1408 0.3553   -0.339731
 N 0.49899 0.62019 0.85235   -0.498951
 N 0.0892 0.1408 0.8553   -0.339731
 N 0.50101 0.37981 0.85235   -0.498951
 N 0.9108 0.8592 0.8553   -0.339731
 N 0.50101 0.62019 0.64765   -0.498951
 N 0.9108 0.1408 0.6447   -0.339731
 N 0.49899 0.37981 0.64765   -0.498952
 N 0.0892 0.8592 0.6447   -0.339731
 N 0.6897 0.5 0.25   -0.311336
 N 0.3103 0.5 0.25   -0.311336
 N 0.3103 0.5 0.75   -0.311336
 N 0.6897 0.5 0.75   -0.311336
