{'_ref': 'TBD', '_srcid': 'CAKYAQ_clean', 'submitters': [{'name': 'Dalar Nazarian Jeff Camp and David Sholl', 'email': 'dalar@gatech.edu jcamp6@gatech.edu'}], '_method': 'VASP DFT with PBE;DDEC'}
data_ZnH16(C17N5)2
_symmetry_space_group_name_H-M   'P 1'
_cell_length_a   11.37490000
_cell_length_b   12.72390000
_cell_length_c   14.80100000
_cell_angle_alpha   90.00000000
_cell_angle_beta   90.00000000
_cell_angle_gamma   90.00000000
_symmetry_Int_Tables_number   1
_chemical_formula_structural   ZnH16(C17N5)2
_chemical_formula_sum   'Zn2 H32 C68 N20'
_cell_volume   2142.19446672
_cell_formula_units_Z   2
loop_
 _symmetry_equiv_pos_site_id
 _symmetry_equiv_pos_as_xyz
  1  'x, y, z'
loop_
 _atom_site_label
 _atom_site_fract_x
 _atom_site_fract_y
 _atom_site_fract_z
 _atom_site_charge
 Zn 0.0 0.0 0.25   0.849473
 Zn 0.0 0.0 0.75   0.849473
 H 0.5887 0.8436 0.2268   0.129134
 H 0.7924 0.848 0.2283   0.084775
 H 0.1961 0.7175 0.1367   0.110789
 H 0.3307 0.5826 0.1361   0.101103
 H 0.4113 0.1564 0.2268   0.129133
 H 0.2076 0.152 0.2283   0.084775
 H 0.8039 0.2825 0.1367   0.110789
 H 0.6693 0.4174 0.1361   0.101103
 H 0.4113 0.8436 0.2732   0.129134
 H 0.2076 0.848 0.2717   0.084775
 H 0.8039 0.7175 0.3633   0.110789
 H 0.6693 0.5826 0.3639   0.101104
 H 0.5887 0.1564 0.2732   0.129134
 H 0.7924 0.152 0.2717   0.084775
 H 0.1961 0.2825 0.3633   0.110789
 H 0.3307 0.4174 0.3639   0.101104
 H 0.4113 0.1564 0.7732   0.129134
 H 0.2076 0.152 0.7717   0.084775
 H 0.8039 0.2825 0.8633   0.110789
 H 0.6693 0.4174 0.8639   0.101103
 H 0.5887 0.8436 0.7732   0.129134
 H 0.7924 0.848 0.7717   0.084775
 H 0.1961 0.7175 0.8633   0.110789
 H 0.3307 0.5826 0.8639   0.101103
 H 0.5887 0.1564 0.7268   0.129134
 H 0.7924 0.152 0.7283   0.084775
 H 0.1961 0.2825 0.6367   0.110789
 H 0.3307 0.4174 0.6361   0.101104
 H 0.4113 0.8436 0.7268   0.129134
 H 0.2076 0.848 0.7283   0.084775
 H 0.8039 0.7175 0.6367   0.110789
 H 0.6693 0.5826 0.6361   0.101104
 C 0.0392 0.84939 0.08053   0.437624
 C 0.4181 0.4112 0.0806   0.294275
 C 0.6284 0.9084 0.23648   -0.185462
 C 0.7503 0.9116 0.23727   0.158698
 C 0.2219 0.6892 0.0807   -0.156631
 C 0.3023 0.6097 0.0804   -0.076739
 C 0.9608 0.15061 0.08053   0.437624
 C 0.5819 0.5888 0.0806   0.294275
 C 0.3716 0.0916 0.23648   -0.185461
 C 0.2497 0.0884 0.23727   0.158697
 C 0.7781 0.3108 0.0807   -0.156632
 C 0.6977 0.3903 0.0804   -0.076739
 C 0.9608 0.84939 0.41947   0.437624
 C 0.5819 0.4112 0.4194   0.294275
 C 0.3716 0.9084 0.26352   -0.185461
 C 0.2497 0.9116 0.26273   0.158697
 C 0.7781 0.6892 0.4193   -0.156631
 C 0.6977 0.6097 0.4196   -0.07674
 C 0.0392 0.15061 0.41947   0.437624
 C 0.4181 0.5888 0.4194   0.294275
 C 0.6284 0.0916 0.26352   -0.185462
 C 0.7503 0.0884 0.26273   0.158697
 C 0.2219 0.3108 0.4193   -0.156632
 C 0.3023 0.3903 0.4196   -0.07674
 C 0.9608 0.15061 0.91947   0.437625
 C 0.5819 0.5888 0.9194   0.294274
 C 0.3716 0.0916 0.76352   -0.185464
 C 0.2497 0.0884 0.76273   0.158698
 C 0.7781 0.3108 0.9193   -0.156631
 C 0.6977 0.3903 0.9196   -0.076739
 C 0.0392 0.84939 0.91947   0.437625
 C 0.4181 0.4112 0.9194   0.294274
 C 0.6284 0.9084 0.76352   -0.185463
 C 0.7503 0.9116 0.76273   0.158698
 C 0.2219 0.6892 0.9193   -0.156632
 C 0.3023 0.6097 0.9196   -0.076739
 C 0.0392 0.15061 0.58053   0.437625
 C 0.4181 0.5888 0.5806   0.294274
 C 0.6284 0.0916 0.73648   -0.185463
 C 0.7503 0.0884 0.73727   0.158697
 C 0.2219 0.3108 0.5807   -0.156631
 C 0.3023 0.3903 0.5804   -0.07674
 C 0.9608 0.84939 0.58053   0.437625
 C 0.5819 0.4112 0.5806   0.294274
 C 0.3716 0.9084 0.73648   -0.185464
 C 0.2497 0.9116 0.73727   0.158698
 C 0.7781 0.6892 0.5807   -0.156632
 C 0.6977 0.6097 0.5804   -0.07674
 C 0.565 0.0 0.25   0.098824
 C 0.435 0.0 0.25   0.098818
 C 0.435 0.0 0.75   0.098823
 C 0.565 0.0 0.75   0.098817
 C 0.1764 0.7299 0.0   0.177768
 C 0.433 0.4794 0.0   0.013818
 C 0.3431 0.5678 0.0   -0.077682
 C 0.0852 0.8097 0.0   -0.434187
 C 0.8236 0.2701 0.0   0.177768
 C 0.567 0.5206 0.0   0.013818
 C 0.6569 0.4322 0.0   -0.077682
 C 0.9148 0.1903 0.0   -0.434187
 C 0.8236 0.7299 0.5   0.177768
 C 0.567 0.4794 0.5   0.013818
 C 0.6569 0.5678 0.5   -0.077682
 C 0.9148 0.8097 0.5   -0.434187
 C 0.1764 0.2701 0.5   0.177768
 C 0.433 0.5206 0.5   0.013818
 C 0.3431 0.4322 0.5   -0.077682
 C 0.0852 0.1903 0.5   -0.434187
 N 0.404 0.3617 0.1428   -0.349192
 N 0.0019 0.881 0.14706   -0.498142
 N 0.596 0.6383 0.1428   -0.349192
 N 0.9981 0.119 0.14706   -0.498142
 N 0.596 0.3617 0.3572   -0.349192
 N 0.9981 0.881 0.35294   -0.498142
 N 0.404 0.6383 0.3572   -0.349192
 N 0.0019 0.119 0.35294   -0.498142
 N 0.596 0.6383 0.8572   -0.349192
 N 0.9981 0.119 0.85294   -0.498142
 N 0.404 0.3617 0.8572   -0.349192
 N 0.0019 0.881 0.85294   -0.498142
 N 0.404 0.6383 0.6428   -0.349192
 N 0.0019 0.119 0.64706   -0.498142
 N 0.596 0.3617 0.6428   -0.349192
 N 0.9981 0.881 0.64706   -0.498142
 N 0.8114 0.0 0.25   -0.303734
 N 0.1886 0.0 0.25   -0.303734
 N 0.1886 0.0 0.75   -0.303734
 N 0.8114 0.0 0.75   -0.303734
