{'_ref': 'TBD', '_srcid': 'CAKYAQ_clean', 'submitters': [{'name': 'Dalar Nazarian Jeff Camp and David Sholl', 'email': 'dalar@gatech.edu jcamp6@gatech.edu'}], '_method': 'VASP DFT with PBE;DDEC'}
data_FeH2(C3N4)2
_symmetry_space_group_name_H-M   'P 1'
_cell_length_a   18.82350000
_cell_length_b   18.82350000
_cell_length_c   18.82350000
_cell_angle_alpha   90.00000000
_cell_angle_beta   90.00000000
_cell_angle_gamma   90.00000000
_symmetry_Int_Tables_number   1
_chemical_formula_structural   FeH2(C3N4)2
_chemical_formula_sum   'Fe12 H24 C72 N96'
_cell_volume   6669.62067988
_cell_formula_units_Z   12
loop_
 _symmetry_equiv_pos_site_id
 _symmetry_equiv_pos_as_xyz
  1  'x, y, z'
loop_
 _atom_site_label
 _atom_site_fract_x
 _atom_site_fract_y
 _atom_site_fract_z
 _atom_site_charge
 Fe 0.14071 0.0 0.5   0.699173
 Fe 0.85929 0.0 0.5   0.699174
 Fe 0.5 0.14071 0.0   0.699173
 Fe 0.5 0.85929 0.0   0.699174
 Fe 0.0 0.5 0.14071   0.699173
 Fe 0.0 0.5 0.85929   0.699174
 Fe 0.0 0.14071 0.5   0.699174
 Fe 0.0 0.85929 0.5   0.699174
 Fe 0.14071 0.5 0.0   0.699174
 Fe 0.85929 0.5 0.0   0.699174
 Fe 0.5 0.0 0.85929   0.699174
 Fe 0.5 0.0 0.14071   0.699174
 H 0.1081 0.2607 0.7393   0.122022
 H 0.8919 0.7393 0.7393   0.122022
 H 0.8919 0.2607 0.2607   0.122022
 H 0.1081 0.7393 0.2607   0.122022
 H 0.7393 0.1081 0.2607   0.122022
 H 0.7393 0.8919 0.7393   0.122022
 H 0.2607 0.8919 0.2607   0.122022
 H 0.2607 0.1081 0.7393   0.122022
 H 0.2607 0.7393 0.1081   0.122022
 H 0.7393 0.7393 0.8919   0.122022
 H 0.2607 0.2607 0.8919   0.122022
 H 0.7393 0.2607 0.1081   0.122022
 H 0.2607 0.1081 0.2607   0.122018
 H 0.7393 0.8919 0.2607   0.122018
 H 0.2607 0.8919 0.7393   0.122018
 H 0.7393 0.1081 0.7393   0.122018
 H 0.1081 0.7393 0.7393   0.122019
 H 0.8919 0.7393 0.2607   0.122019
 H 0.8919 0.2607 0.7393   0.122019
 H 0.1081 0.2607 0.2607   0.122019
 H 0.7393 0.2607 0.8919   0.122019
 H 0.7393 0.7393 0.1081   0.122019
 H 0.2607 0.2607 0.1081   0.122019
 H 0.2607 0.7393 0.8919   0.122019
 C 0.14956 0.24031 0.75969   -0.063941
 C 0.85044 0.75969 0.75969   -0.063941
 C 0.85044 0.24031 0.24031   -0.063941
 C 0.14956 0.75969 0.24031   -0.063941
 C 0.75969 0.14956 0.24031   -0.063941
 C 0.75969 0.85044 0.75969   -0.063941
 C 0.24031 0.85044 0.24031   -0.063941
 C 0.24031 0.14956 0.75969   -0.063941
 C 0.24031 0.75969 0.14956   -0.063942
 C 0.75969 0.75969 0.85044   -0.063942
 C 0.24031 0.24031 0.85044   -0.063942
 C 0.75969 0.24031 0.14956   -0.063942
 C 0.24031 0.14956 0.24031   -0.063963
 C 0.75969 0.85044 0.24031   -0.063963
 C 0.24031 0.85044 0.75969   -0.063963
 C 0.75969 0.14956 0.75969   -0.063963
 C 0.14956 0.75969 0.75969   -0.063963
 C 0.85044 0.75969 0.24031   -0.063963
 C 0.85044 0.24031 0.75969   -0.063963
 C 0.14956 0.24031 0.24031   -0.063963
 C 0.75969 0.24031 0.85044   -0.063964
 C 0.75969 0.75969 0.14956   -0.063964
 C 0.24031 0.24031 0.14956   -0.063964
 C 0.24031 0.75969 0.85044   -0.063964
 C 0.14881 0.14881 0.66572   0.369494
 C 0.18003 0.18003 0.72942   -0.051439
 C 0.85119 0.85119 0.66572   0.369493
 C 0.81997 0.81997 0.72942   -0.051438
 C 0.85119 0.14881 0.33428   0.369494
 C 0.81997 0.18003 0.27058   -0.051439
 C 0.14881 0.85119 0.33428   0.369493
 C 0.18003 0.81997 0.27058   -0.051438
 C 0.66572 0.14881 0.14881   0.369494
 C 0.72942 0.18003 0.18003   -0.051438
 C 0.66572 0.85119 0.85119   0.369493
 C 0.72942 0.81997 0.81997   -0.051438
 C 0.33428 0.85119 0.14881   0.369494
 C 0.27058 0.81997 0.18003   -0.051438
 C 0.33428 0.14881 0.85119   0.369493
 C 0.27058 0.18003 0.81997   -0.051438
 C 0.14881 0.66572 0.14881   0.369494
 C 0.18003 0.72942 0.18003   -0.051438
 C 0.85119 0.66572 0.85119   0.369493
 C 0.81997 0.72942 0.81997   -0.051438
 C 0.14881 0.33428 0.85119   0.369494
 C 0.18003 0.27058 0.81997   -0.051438
 C 0.85119 0.33428 0.14881   0.369493
 C 0.81997 0.27058 0.18003   -0.051438
 C 0.14881 0.14881 0.33428   0.369468
 C 0.18003 0.18003 0.27058   -0.051429
 C 0.85119 0.85119 0.33428   0.369468
 C 0.81997 0.81997 0.27058   -0.051429
 C 0.14881 0.85119 0.66572   0.369468
 C 0.18003 0.81997 0.72942   -0.051429
 C 0.85119 0.14881 0.66572   0.369468
 C 0.81997 0.18003 0.72942   -0.051429
 C 0.14881 0.66572 0.85119   0.369468
 C 0.18003 0.72942 0.81997   -0.051429
 C 0.85119 0.66572 0.14881   0.369468
 C 0.81997 0.72942 0.18003   -0.051429
 C 0.85119 0.33428 0.85119   0.369468
 C 0.81997 0.27058 0.81997   -0.051429
 C 0.14881 0.33428 0.14881   0.369468
 C 0.18003 0.27058 0.18003   -0.051429
 C 0.66572 0.14881 0.85119   0.369468
 C 0.72942 0.18003 0.81997   -0.051429
 C 0.66572 0.85119 0.14881   0.369468
 C 0.72942 0.81997 0.18003   -0.051429
 C 0.33428 0.14881 0.14881   0.369468
 C 0.27058 0.18003 0.18003   -0.051429
 C 0.33428 0.85119 0.85119   0.369468
 C 0.27058 0.81997 0.81997   -0.051429
 N 0.13083 0.08129 0.57831   -0.060471
 N 0.17458 0.09125 0.63333   -0.302433
 N 0.86917 0.91871 0.57831   -0.060471
 N 0.82542 0.90875 0.63333   -0.302433
 N 0.86917 0.08129 0.42169   -0.060471
 N 0.82542 0.09125 0.36667   -0.302433
 N 0.13083 0.91871 0.42169   -0.060471
 N 0.17458 0.90875 0.36667   -0.302433
 N 0.57831 0.13083 0.08129   -0.060471
 N 0.63333 0.17458 0.09125   -0.302433
 N 0.57831 0.86917 0.91871   -0.060471
 N 0.63333 0.82542 0.90875   -0.302433
 N 0.42169 0.86917 0.08129   -0.060471
 N 0.36667 0.82542 0.09125   -0.302433
 N 0.42169 0.13083 0.91871   -0.060471
 N 0.36667 0.17458 0.90875   -0.302433
 N 0.08129 0.57831 0.13083   -0.060471
 N 0.09125 0.63333 0.17458   -0.302433
 N 0.91871 0.57831 0.86917   -0.060471
 N 0.90875 0.63333 0.82542   -0.302433
 N 0.08129 0.42169 0.86917   -0.060471
 N 0.09125 0.36667 0.82542   -0.302433
 N 0.91871 0.42169 0.13083   -0.060471
 N 0.90875 0.36667 0.17458   -0.302433
 N 0.08129 0.13083 0.42169   -0.060471
 N 0.09125 0.17458 0.36667   -0.302431
 N 0.91871 0.86917 0.42169   -0.060471
 N 0.90875 0.82542 0.36667   -0.302431
 N 0.08129 0.86917 0.57831   -0.060471
 N 0.09125 0.82542 0.63333   -0.302431
 N 0.91871 0.13083 0.57831   -0.060471
 N 0.90875 0.17458 0.63333   -0.302431
 N 0.13083 0.57831 0.91871   -0.060471
 N 0.17458 0.63333 0.90875   -0.302431
 N 0.86917 0.57831 0.08129   -0.060471
 N 0.82542 0.63333 0.09125   -0.302431
 N 0.86917 0.42169 0.91871   -0.060471
 N 0.82542 0.36667 0.90875   -0.302431
 N 0.13083 0.42169 0.08129   -0.060471
 N 0.17458 0.36667 0.09125   -0.302431
 N 0.57831 0.08129 0.86917   -0.060471
 N 0.63333 0.09125 0.82542   -0.302431
 N 0.57831 0.91871 0.13083   -0.060471
 N 0.63333 0.90875 0.17458   -0.302431
 N 0.42169 0.08129 0.13083   -0.060471
 N 0.36667 0.09125 0.17458   -0.302431
 N 0.42169 0.91871 0.86917   -0.060471
 N 0.36667 0.90875 0.82542   -0.302431
 N 0.86917 0.91871 0.42169   -0.060371
 N 0.82542 0.90875 0.36667   -0.302428
 N 0.13083 0.08129 0.42169   -0.060371
 N 0.17458 0.09125 0.36667   -0.302428
 N 0.13083 0.91871 0.57831   -0.060371
 N 0.17458 0.90875 0.63333   -0.302428
 N 0.86917 0.08129 0.57831   -0.060371
 N 0.82542 0.09125 0.63333   -0.302428
 N 0.42169 0.86917 0.91871   -0.060371
 N 0.36667 0.82542 0.90875   -0.302428
 N 0.42169 0.13083 0.08129   -0.060371
 N 0.36667 0.17458 0.09125   -0.302428
 N 0.57831 0.13083 0.91871   -0.060371
 N 0.63333 0.17458 0.90875   -0.302428
 N 0.57831 0.86917 0.08129   -0.060371
 N 0.63333 0.82542 0.09125   -0.302428
 N 0.91871 0.42169 0.86917   -0.060371
 N 0.90875 0.36667 0.82542   -0.302428
 N 0.08129 0.42169 0.13083   -0.060371
 N 0.09125 0.36667 0.17458   -0.302428
 N 0.91871 0.57831 0.13083   -0.060371
 N 0.90875 0.63333 0.17458   -0.302428
 N 0.08129 0.57831 0.86917   -0.060371
 N 0.09125 0.63333 0.82542   -0.302428
 N 0.91871 0.86917 0.57831   -0.06037
 N 0.90875 0.82542 0.63333   -0.30243
 N 0.08129 0.13083 0.57831   -0.06037
 N 0.09125 0.17458 0.63333   -0.30243
 N 0.91871 0.13083 0.42169   -0.06037
 N 0.90875 0.17458 0.36667   -0.30243
 N 0.08129 0.86917 0.42169   -0.06037
 N 0.09125 0.82542 0.36667   -0.30243
 N 0.86917 0.42169 0.08129   -0.06037
 N 0.82542 0.36667 0.09125   -0.30243
 N 0.13083 0.42169 0.91871   -0.06037
 N 0.17458 0.36667 0.90875   -0.30243
 N 0.13083 0.57831 0.08129   -0.06037
 N 0.17458 0.63333 0.09125   -0.30243
 N 0.86917 0.57831 0.91871   -0.06037
 N 0.82542 0.63333 0.90875   -0.30243
 N 0.42169 0.91871 0.13083   -0.06037
 N 0.36667 0.90875 0.17458   -0.30243
 N 0.42169 0.08129 0.86917   -0.06037
 N 0.36667 0.09125 0.82542   -0.30243
 N 0.57831 0.91871 0.86917   -0.06037
 N 0.63333 0.90875 0.82542   -0.30243
 N 0.57831 0.08129 0.13083   -0.06037
 N 0.63333 0.09125 0.17458   -0.30243
