{'_ref': 'TBD', '_srcid': 'CAKYAQ_clean', 'submitters': [{'name': 'Dalar Nazarian Jeff Camp and David Sholl', 'email': 'dalar@gatech.edu jcamp6@gatech.edu'}], '_method': 'VASP DFT with PBE;DDEC'}
data_Cd2H31C35(N2O3)2
_symmetry_space_group_name_H-M   'P 1'
_cell_length_a   9.89759972
_cell_length_b   14.58220000
_cell_length_c   26.57320000
_cell_angle_alpha   90.00000000
_cell_angle_beta   91.92999907
_cell_angle_gamma   90.00000000
_symmetry_Int_Tables_number   1
_chemical_formula_structural   Cd2H31C35(N2O3)2
_chemical_formula_sum   'Cd8 H124 C140 N16 O24'
_cell_volume   3833.10182052
_cell_formula_units_Z   4
loop_
 _symmetry_equiv_pos_site_id
 _symmetry_equiv_pos_as_xyz
  1  'x, y, z'
loop_
 _atom_site_label
 _atom_site_fract_x
 _atom_site_fract_y
 _atom_site_fract_z
 _atom_site_charge
 Cd 0.77801 0.87467 0.55439   0.876793
 Cd 0.79484 0.63106 0.58444   0.847778
 Cd 0.72199 0.37467 0.94561   0.876793
 Cd 0.70516 0.13106 0.91556   0.847778
 Cd 0.22199 0.12533 0.44561   0.876793
 Cd 0.20516 0.36894 0.41556   0.847778
 Cd 0.27801 0.62533 0.05439   0.876793
 Cd 0.29484 0.86894 0.08444   0.847778
 H 0.0686 0.6172 0.514   0.104851
 H 0.4759 0.6205 0.5057   0.101893
 H 0.2819 0.8379 0.5641   0.084617
 H 0.7809 0.7421 0.4593   0.094504
 H 0.7323 0.7364 0.3734   0.127067
 H 0.685 0.009 0.3722   0.132287
 H 0.7288 0.0089 0.4584   0.064741
 H 0.6318 0.9241 0.2968   0.079883
 H 0.5931 0.8188 0.3035   0.09013
 H 0.7414 0.8303 0.2405   0.062915
 H 0.8138 0.7768 0.2864   0.058587
 H 0.8545 0.9658 0.2716   0.082227
 H 0.9413 0.8999 0.3081   0.080382
 H 0.0014 0.8842 0.112   0.072033
 H 0.851 0.9016 0.1744   0.133223
 H 0.1657 0.8729 0.2758   0.12616
 H 0.3059 0.8519 0.2091   0.046244
 H 0.5766 0.8856 0.6474   0.069458
 H 0.5699 0.9044 0.7334   0.120653
 H 0.9763 0.8763 0.7413   0.121255
 H 0.9734 0.8632 0.6545   0.072011
 H 0.8578 0.9273 0.8172   0.103434
 H 0.6972 0.9422 0.8141   0.080161
 H 0.6659 0.779 0.8134   0.067771
 H 0.8263 0.7653 0.8179   0.06512
 H 0.6648 0.8453 0.8945   0.099316
 H 0.8266 0.8422 0.8987   0.107366
 H 0.9221 0.5415 0.9432   0.068271
 H 0.9419 0.694 0.916   0.126686
 H 0.5334 0.7043 0.9063   0.118156
 H 0.5288 0.5537 0.9316   0.065033
 H 0.4314 0.1172 0.986   0.104851
 H 0.0241 0.1205 0.9943   0.101893
 H 0.2181 0.3379 0.9359   0.084617
 H 0.7191 0.2421 0.0407   0.094504
 H 0.7677 0.2364 0.1266   0.127066
 H 0.815 0.509 0.1278   0.132287
 H 0.7712 0.5089 0.0416   0.064741
 H 0.8682 0.4241 0.2032   0.079883
 H 0.9069 0.3188 0.1965   0.09013
 H 0.7586 0.3303 0.2595   0.062915
 H 0.6862 0.2768 0.2136   0.058587
 H 0.6455 0.4658 0.2284   0.082227
 H 0.5587 0.3999 0.1919   0.080382
 H 0.4986 0.3842 0.388   0.072033
 H 0.649 0.4016 0.3256   0.133222
 H 0.3343 0.3729 0.2242   0.12616
 H 0.1941 0.3519 0.2909   0.046244
 H 0.9234 0.3856 0.8526   0.069458
 H 0.9301 0.4044 0.7666   0.120653
 H 0.5237 0.3763 0.7587   0.121255
 H 0.5266 0.3632 0.8455   0.072011
 H 0.6422 0.4273 0.6828   0.103434
 H 0.8028 0.4422 0.6859   0.080161
 H 0.8341 0.279 0.6866   0.067771
 H 0.6737 0.2653 0.6821   0.06512
 H 0.8352 0.3453 0.6055   0.099316
 H 0.6734 0.3422 0.6013   0.107366
 H 0.5779 0.0415 0.5568   0.068271
 H 0.5581 0.194 0.584   0.126686
 H 0.9666 0.2043 0.5937   0.118156
 H 0.9712 0.0537 0.5684   0.065033
 H 0.9314 0.3828 0.486   0.104851
 H 0.5241 0.3795 0.4943   0.101894
 H 0.7181 0.1621 0.4359   0.084618
 H 0.2191 0.2579 0.5407   0.094504
 H 0.2677 0.2636 0.6266   0.127067
 H 0.315 0.991 0.6278   0.132289
 H 0.2712 0.9911 0.5416   0.06474
 H 0.3682 0.0759 0.7032   0.079882
 H 0.4069 0.1812 0.6965   0.090131
 H 0.2586 0.1697 0.7595   0.062916
 H 0.1862 0.2232 0.7136   0.058586
 H 0.1455 0.0342 0.7284   0.082226
 H 0.0587 0.1001 0.6919   0.080382
 H 0.9986 0.1158 0.888   0.072033
 H 0.149 0.0984 0.8256   0.133223
 H 0.8343 0.1271 0.7242   0.126161
 H 0.6941 0.1481 0.7909   0.046244
 H 0.4234 0.1144 0.3526   0.069458
 H 0.4301 0.0956 0.2666   0.120652
 H 0.0237 0.1237 0.2587   0.121255
 H 0.0266 0.1368 0.3455   0.072012
 H 0.1422 0.0727 0.1828   0.103435
 H 0.3028 0.0578 0.1859   0.08016
 H 0.3341 0.221 0.1866   0.067771
 H 0.1737 0.2347 0.1821   0.065122
 H 0.3352 0.1547 0.1055   0.099316
 H 0.1734 0.1578 0.1013   0.107366
 H 0.0779 0.4585 0.0568   0.068271
 H 0.0581 0.306 0.084   0.126686
 H 0.4666 0.2957 0.0937   0.118156
 H 0.4712 0.4463 0.0684   0.065033
 H 0.5686 0.8828 0.014   0.104851
 H 0.9759 0.8795 0.0057   0.101894
 H 0.7819 0.6621 0.0641   0.084618
 H 0.2809 0.7579 0.9593   0.094504
 H 0.2323 0.7636 0.8734   0.127066
 H 0.185 0.491 0.8722   0.132289
 H 0.2288 0.4911 0.9584   0.06474
 H 0.1318 0.5759 0.7968   0.079882
 H 0.0931 0.6812 0.8035   0.090131
 H 0.2414 0.6697 0.7405   0.062916
 H 0.3138 0.7232 0.7864   0.058586
 H 0.3545 0.5342 0.7716   0.082226
 H 0.4413 0.6001 0.8081   0.080382
 H 0.5014 0.6158 0.612   0.072033
 H 0.351 0.5984 0.6744   0.133221
 H 0.6657 0.6271 0.7758   0.126161
 H 0.8059 0.6481 0.7091   0.046244
 H 0.0766 0.6144 0.1474   0.069458
 H 0.0699 0.5956 0.2334   0.120652
 H 0.4763 0.6237 0.2413   0.121255
 H 0.4734 0.6368 0.1545   0.072012
 H 0.3578 0.5727 0.3172   0.103435
 H 0.1972 0.5578 0.3141   0.08016
 H 0.1659 0.721 0.3134   0.067771
 H 0.3263 0.7347 0.3179   0.065122
 H 0.1648 0.6547 0.3945   0.099316
 H 0.3266 0.6578 0.3987   0.107366
 H 0.4221 0.9585 0.4432   0.068271
 H 0.4419 0.806 0.416   0.126686
 H 0.0334 0.7957 0.4063   0.118156
 H 0.0288 0.9463 0.4316   0.065033
 C 0.1551 0.7357 0.5412   -0.199082
 C 0.1522 0.6482 0.5192   -0.013288
 C 0.2725 0.6066 0.505   -0.130354
 C 0.394 0.6493 0.5147   0.004488
 C 0.3967 0.7355 0.5378   -0.182464
 C 0.2788 0.7783 0.5497   0.014249
 C 0.0279 0.7854 0.5511   0.643584
 C 0.2655 0.5179 0.4751   0.628315
 C 0.5306 0.7815 0.5472   0.644008
 C 0.7604 0.7973 0.4416   0.159228
 C 0.7313 0.7939 0.3902   -0.245359
 C 0.7015 0.8706 0.3637   0.153132
 C 0.7029 0.953 0.3894   -0.239668
 C 0.7309 0.9521 0.4409   0.199238
 C 0.6671 0.8639 0.3083   -0.182517
 C 0.7785 0.8373 0.2754   -0.073422
 C 0.8924 0.9032 0.275   -0.18503
 C 0.0341 0.881 0.1459   0.183743
 C 0.9443 0.8922 0.1823   -0.263641
 C 0.9946 0.8896 0.234   0.123542
 C 0.129 0.8749 0.2423   -0.247354
 C 0.2124 0.8626 0.2022   0.157755
 C 0.6591 0.8847 0.6667   0.170996
 C 0.6545 0.8955 0.7182   -0.252922
 C 0.7727 0.8936 0.7483   0.14747
 C 0.8926 0.8797 0.7228   -0.251805
 C 0.8904 0.8709 0.6709   0.147495
 C 0.7713 0.9009 0.8043   -0.195562
 C 0.7511 0.8059 0.8273   -0.077418
 C 0.7455 0.8101 0.8848   -0.213766
 C 0.842 0.5749 0.935   0.172216
 C 0.8555 0.6665 0.9187   -0.244501
 C 0.7393 0.7144 0.9067   0.171154
 C 0.6155 0.672 0.9128   -0.24058
 C 0.6143 0.5824 0.9285   0.175548
 C 0.3449 0.2357 0.9588   -0.199082
 C 0.3478 0.1482 0.9808   -0.013288
 C 0.2275 0.1066 0.995   -0.130354
 C 0.106 0.1493 0.9853   0.004488
 C 0.1033 0.2355 0.9622   -0.182464
 C 0.2212 0.2783 0.9503   0.014249
 C 0.4721 0.2854 0.9489   0.643584
 C 0.2345 0.0179 0.0249   0.628315
 C 0.9694 0.2815 0.9528   0.644008
 C 0.7396 0.2973 0.0584   0.159227
 C 0.7687 0.2939 0.1098   -0.245359
 C 0.7985 0.3706 0.1363   0.153131
 C 0.7971 0.453 0.1106   -0.239668
 C 0.7691 0.4521 0.0591   0.199238
 C 0.8329 0.3639 0.1917   -0.182517
 C 0.7215 0.3373 0.2246   -0.073422
 C 0.6076 0.4032 0.225   -0.185029
 C 0.4659 0.381 0.3541   0.183743
 C 0.5557 0.3922 0.3177   -0.263641
 C 0.5054 0.3896 0.266   0.123542
 C 0.371 0.3749 0.2577   -0.247354
 C 0.2876 0.3626 0.2978   0.157755
 C 0.8409 0.3847 0.8333   0.170997
 C 0.8455 0.3955 0.7818   -0.252922
 C 0.7273 0.3936 0.7517   0.14747
 C 0.6074 0.3797 0.7772   -0.251805
 C 0.6096 0.3709 0.8291   0.147495
 C 0.7287 0.4009 0.6957   -0.195562
 C 0.7489 0.3059 0.6727   -0.077418
 C 0.7545 0.3101 0.6152   -0.213766
 C 0.658 0.0749 0.565   0.172216
 C 0.6445 0.1665 0.5813   -0.244501
 C 0.7607 0.2144 0.5933   0.171154
 C 0.8845 0.172 0.5872   -0.24058
 C 0.8857 0.0824 0.5715   0.175548
 C 0.8449 0.2643 0.4588   -0.199082
 C 0.8478 0.3518 0.4808   -0.013288
 C 0.7275 0.3934 0.495   -0.130354
 C 0.606 0.3507 0.4853   0.004487
 C 0.6033 0.2645 0.4622   -0.182464
 C 0.7212 0.2217 0.4503   0.014249
 C 0.9721 0.2146 0.4489   0.643584
 C 0.7345 0.4821 0.5249   0.628315
 C 0.4694 0.2185 0.4528   0.644008
 C 0.2396 0.2027 0.5584   0.159228
 C 0.2687 0.2061 0.6098   -0.24536
 C 0.2985 0.1294 0.6363   0.153132
 C 0.2971 0.047 0.6106   -0.239668
 C 0.2691 0.0479 0.5591   0.199238
 C 0.3329 0.1361 0.6917   -0.182517
 C 0.2215 0.1627 0.7246   -0.073422
 C 0.1076 0.0968 0.725   -0.185029
 C 0.9659 0.119 0.8541   0.183743
 C 0.0557 0.1078 0.8177   -0.26364
 C 0.0054 0.1104 0.766   0.123542
 C 0.871 0.1251 0.7577   -0.247355
 C 0.7876 0.1374 0.7978   0.157755
 C 0.3409 0.1153 0.3333   0.170996
 C 0.3455 0.1045 0.2818   -0.252921
 C 0.2273 0.1064 0.2517   0.14747
 C 0.1074 0.1203 0.2772   -0.251806
 C 0.1096 0.1291 0.3291   0.147495
 C 0.2287 0.0991 0.1957   -0.195562
 C 0.2489 0.1941 0.1727   -0.077419
 C 0.2545 0.1899 0.1152   -0.213765
 C 0.158 0.4251 0.065   0.172216
 C 0.1445 0.3335 0.0813   -0.244501
 C 0.2607 0.2856 0.0933   0.171154
 C 0.3845 0.328 0.0872   -0.24058
 C 0.3857 0.4176 0.0715   0.175548
 C 0.6551 0.7643 0.0412   -0.199082
 C 0.6522 0.8518 0.0192   -0.013288
 C 0.7725 0.8934 0.005   -0.130354
 C 0.894 0.8507 0.0147   0.004487
 C 0.8967 0.7645 0.0378   -0.182464
 C 0.7788 0.7217 0.0497   0.014249
 C 0.5279 0.7146 0.0511   0.643584
 C 0.7655 0.9821 0.9751   0.628315
 C 0.0306 0.7185 0.0472   0.644008
 C 0.2604 0.7027 0.9416   0.159227
 C 0.2313 0.7061 0.8902   -0.245359
 C 0.2015 0.6294 0.8637   0.153132
 C 0.2029 0.547 0.8894   -0.239669
 C 0.2309 0.5479 0.9409   0.199239
 C 0.1671 0.6361 0.8083   -0.182517
 C 0.2785 0.6627 0.7754   -0.073422
 C 0.3924 0.5968 0.775   -0.185029
 C 0.5341 0.619 0.6459   0.183743
 C 0.4443 0.6078 0.6823   -0.26364
 C 0.4946 0.6104 0.734   0.123542
 C 0.629 0.6251 0.7423   -0.247355
 C 0.7124 0.6374 0.7022   0.157755
 C 0.1591 0.6153 0.1667   0.170996
 C 0.1545 0.6045 0.2182   -0.252922
 C 0.2727 0.6064 0.2483   0.14747
 C 0.3926 0.6203 0.2228   -0.251806
 C 0.3904 0.6291 0.1709   0.147495
 C 0.2713 0.5991 0.3043   -0.195562
 C 0.2511 0.6941 0.3273   -0.077419
 C 0.2455 0.6899 0.3848   -0.213765
 C 0.342 0.9251 0.435   0.172216
 C 0.3555 0.8335 0.4187   -0.244501
 C 0.2393 0.7856 0.4067   0.171154
 C 0.1155 0.828 0.4128   -0.24058
 C 0.1143 0.9176 0.4285   0.175548
 N 0.7601 0.8776 0.467   -0.348148
 N 0.1687 0.8651 0.1543   -0.400678
 N 0.7743 0.873 0.6429   -0.37704
 N 0.7242 0.5327 0.9396   -0.347396
 N 0.7399 0.3776 0.033   -0.348148
 N 0.3313 0.3651 0.3457   -0.400678
 N 0.7257 0.373 0.8571   -0.37704
 N 0.7758 0.0327 0.5604   -0.347396
 N 0.2399 0.1224 0.533   -0.348148
 N 0.8313 0.1349 0.8457   -0.400678
 N 0.2257 0.127 0.3571   -0.37704
 N 0.2758 0.4673 0.0604   -0.347396
 N 0.2601 0.6224 0.967   -0.348148
 N 0.6687 0.6349 0.6543   -0.400678
 N 0.2743 0.627 0.1429   -0.37704
 N 0.2242 0.9673 0.4396   -0.347396
 O 0.0305 0.8697 0.5592   -0.571124
 O 0.9155 0.7417 0.5491   -0.610834
 O 0.161 0.4684 0.4787   -0.576715
 O 0.3594 0.498 0.4464   -0.588157
 O 0.5334 0.8681 0.5538   -0.593343
 O 0.6391 0.7355 0.5479   -0.595
 O 0.4695 0.3697 0.9408   -0.571123
 O 0.5845 0.2417 0.9509   -0.610834
 O 0.339 0.9684 0.0213   -0.576715
 O 0.1406 0.998 0.0536   -0.588157
 O 0.9666 0.3681 0.9462   -0.593343
 O 0.8609 0.2355 0.9521   -0.595
 O 0.9695 0.1303 0.4408   -0.571124
 O 0.0845 0.2583 0.4509   -0.610834
 O 0.839 0.5316 0.5213   -0.576715
 O 0.6406 0.502 0.5536   -0.588157
 O 0.4666 0.1319 0.4462   -0.593343
 O 0.3609 0.2645 0.4521   -0.595
 O 0.5305 0.6303 0.0592   -0.571124
 O 0.4155 0.7583 0.0491   -0.610834
 O 0.661 0.0316 0.9787   -0.576715
 O 0.8594 0.002 0.9464   -0.588157
 O 0.0334 0.6319 0.0538   -0.593343
 O 0.1391 0.7645 0.0479   -0.595
