{'_ref': 'TBD', '_srcid': 'CAKYAQ_clean', 'submitters': [{'name': 'Dalar Nazarian Jeff Camp and David Sholl', 'email': 'dalar@gatech.edu jcamp6@gatech.edu'}], '_method': 'VASP DFT with PBE;DDEC'}
data_CuH5C9N4O
_symmetry_space_group_name_H-M   'P 1'
_cell_length_a   7.31400000
_cell_length_b   12.75799965
_cell_length_c   15.33200000
_cell_angle_alpha   90.00000000
_cell_angle_beta   90.00000000
_cell_angle_gamma   94.49999948
_symmetry_Int_Tables_number   1
_chemical_formula_structural   CuH5C9N4O
_chemical_formula_sum   'Cu4 H20 C36 N16 O4'
_cell_volume   1426.24948283
_cell_formula_units_Z   4
loop_
 _symmetry_equiv_pos_site_id
 _symmetry_equiv_pos_as_xyz
  1  'x, y, z'
loop_
 _atom_site_label
 _atom_site_fract_x
 _atom_site_fract_y
 _atom_site_fract_z
 _atom_site_charge
 Cu 0.73207 0.35771 0.87975   0.601035
 Cu 0.26793 0.14229 0.37975   0.601035
 Cu 0.26793 0.64229 0.12025   0.601036
 Cu 0.73207 0.85771 0.62025   0.601036
 H 0.9142 0.405 0.5833   0.160744
 H 0.839 0.4231 0.4894   0.153515
 H 0.7455 0.5902 0.5825   0.153691
 H 0.7549 0.5386 0.6751   0.173265
 H 0.5671 0.5713 0.6389   0.166396
 H 0.0858 0.095 0.0833   0.160744
 H 0.161 0.0769 0.9894   0.153515
 H 0.2545 0.9098 0.0825   0.153691
 H 0.2451 0.9614 0.1751   0.173265
 H 0.4329 0.9287 0.1389   0.166396
 H 0.0858 0.595 0.4167   0.160745
 H 0.161 0.5769 0.5106   0.153516
 H 0.2545 0.4098 0.4175   0.153691
 H 0.2451 0.4614 0.3249   0.173265
 H 0.4329 0.4287 0.3611   0.166396
 H 0.9142 0.905 0.9167   0.160745
 H 0.839 0.9231 0.0106   0.153516
 H 0.7455 0.0902 0.9175   0.153691
 H 0.7549 0.0386 0.8249   0.173265
 H 0.5671 0.0713 0.8611   0.166396
 C 0.7685 0.2097 0.6163   -0.48859
 C 0.7829 0.2697 0.5311   0.171395
 C 0.7595 0.2602 0.6959   0.434483
 C 0.7563 0.1013 0.6155   0.425853
 C 0.6192 0.2389 0.4768   0.305337
 C 0.9424 0.2352 0.4822   0.305791
 C 0.81 0.3897 0.545   -0.391877
 C 0.6451 0.4373 0.5836   0.590809
 C 0.6814 0.5439 0.6236   -0.522022
 C 0.2315 0.2903 0.1163   -0.48859
 C 0.2171 0.2303 0.0311   0.171395
 C 0.2405 0.2398 0.1959   0.434483
 C 0.2437 0.3987 0.1155   0.425853
 C 0.3808 0.2611 0.9768   0.305337
 C 0.0576 0.2648 0.9822   0.305791
 C 0.19 0.1103 0.045   -0.391877
 C 0.3549 0.0627 0.0836   0.590809
 C 0.3186 0.9561 0.1236   -0.522022
 C 0.2315 0.7903 0.3837   -0.48859
 C 0.2171 0.7303 0.4689   0.171395
 C 0.2405 0.7398 0.3041   0.434483
 C 0.2437 0.8987 0.3845   0.425853
 C 0.3808 0.7611 0.5232   0.305337
 C 0.0576 0.7648 0.5178   0.305791
 C 0.19 0.6103 0.455   -0.391878
 C 0.3549 0.5627 0.4164   0.590809
 C 0.3186 0.4561 0.3764   -0.522022
 C 0.7685 0.7097 0.8837   -0.48859
 C 0.7829 0.7697 0.9689   0.171395
 C 0.7595 0.7602 0.8041   0.434483
 C 0.7563 0.6013 0.8845   0.425853
 C 0.6192 0.7389 0.0232   0.305337
 C 0.9424 0.7352 0.0178   0.305791
 C 0.81 0.8897 0.955   -0.391878
 C 0.6451 0.9373 0.9164   0.590809
 C 0.6814 0.0439 0.8764   -0.522022
 N 0.7509 0.3015 0.762   -0.52421
 N 0.7493 0.0099 0.6142   -0.519292
 N 0.4986 0.205 0.4363   -0.381891
 N 0.0651 0.2041 0.4491   -0.368034
 N 0.2491 0.1985 0.262   -0.52421
 N 0.2507 0.4901 0.1142   -0.519292
 N 0.5014 0.295 0.9363   -0.381891
 N 0.9349 0.2959 0.9491   -0.368034
 N 0.2491 0.6985 0.238   -0.52421
 N 0.2507 0.9901 0.3858   -0.519292
 N 0.5014 0.795 0.5637   -0.381891
 N 0.9349 0.7959 0.5509   -0.368034
 N 0.7509 0.8015 0.738   -0.52421
 N 0.7493 0.5099 0.8858   -0.519292
 N 0.4986 0.705 0.0637   -0.381891
 N 0.0651 0.7041 0.0509   -0.368034
 O 0.4958 0.3916 0.5807   -0.446399
 O 0.5042 0.1084 0.0807   -0.446399
 O 0.5042 0.6084 0.4193   -0.446399
 O 0.4958 0.8916 0.9193   -0.446399
