{'_ref': 'TBD', '_srcid': 'CAKYAQ_clean', 'submitters': [{'name': 'Dalar Nazarian Jeff Camp and David Sholl', 'email': 'dalar@gatech.edu jcamp6@gatech.edu'}], '_method': 'VASP DFT with PBE;DDEC'}
data_La2Mg3H18C42(NO4)6
_symmetry_space_group_name_H-M   'P 1'
_cell_length_a   15.10000000
_cell_length_b   15.67699978
_cell_length_c   15.67700000
_cell_angle_alpha   120.00000047
_cell_angle_beta   90.00000000
_cell_angle_gamma   90.00000000
_symmetry_Int_Tables_number   1
_chemical_formula_structural   La2Mg3H18C42(NO4)6
_chemical_formula_sum   'La4 Mg6 H36 C84 N12 O48'
_cell_volume   3213.90834664
_cell_formula_units_Z   2
loop_
 _symmetry_equiv_pos_site_id
 _symmetry_equiv_pos_as_xyz
  1  'x, y, z'
loop_
 _atom_site_label
 _atom_site_fract_x
 _atom_site_fract_y
 _atom_site_fract_z
 _atom_site_charge
 La 0.75 0.33333 0.66666   2.016374
 La 0.75 0.66667 0.33334   2.016373
 La 0.25 0.66667 0.33334   2.016378
 La 0.25 0.33333 0.66666   2.016378
 Mg 0.0 0.5 0.0   1.596808
 Mg 0.0 0.5 0.5   1.596807
 Mg 0.0 0.0 0.5   1.596809
 Mg 0.5 0.5 0.0   1.596809
 Mg 0.5 0.0 0.5   1.596808
 Mg 0.5 0.5 0.5   1.596808
 H 0.844 0.235 0.9466   0.11556
 H 0.844 0.7116 0.765   0.115561
 H 0.844 0.0534 0.2884   0.115568
 H 0.844 0.765 0.0534   0.11556
 H 0.844 0.2884 0.235   0.115561
 H 0.844 0.9466 0.7116   0.115568
 H 0.656 0.2884 0.0534   0.11556
 H 0.656 0.9466 0.235   0.11556
 H 0.656 0.765 0.7116   0.115568
 H 0.656 0.7116 0.9466   0.115561
 H 0.656 0.0534 0.765   0.115561
 H 0.656 0.235 0.2884   0.115569
 H 0.156 0.765 0.0534   0.115562
 H 0.156 0.2884 0.235   0.115563
 H 0.156 0.9466 0.7116   0.11557
 H 0.156 0.235 0.9466   0.115562
 H 0.156 0.7116 0.765   0.115563
 H 0.156 0.0534 0.2884   0.11557
 H 0.344 0.7116 0.9466   0.115562
 H 0.344 0.0534 0.765   0.115562
 H 0.344 0.235 0.2884   0.11557
 H 0.344 0.2884 0.0534   0.115563
 H 0.344 0.9466 0.235   0.115563
 H 0.344 0.765 0.7116   0.115571
 H 0.75 0.101 0.899   0.086918
 H 0.75 0.798 0.899   0.086918
 H 0.75 0.101 0.202   0.086927
 H 0.75 0.899 0.101   0.086925
 H 0.75 0.202 0.101   0.086925
 H 0.75 0.899 0.798   0.086933
 H 0.25 0.899 0.101   0.086918
 H 0.25 0.202 0.101   0.086918
 H 0.25 0.899 0.798   0.086927
 H 0.25 0.101 0.899   0.086925
 H 0.25 0.798 0.899   0.086925
 H 0.25 0.101 0.202   0.086933
 C 0.80574 0.21511 0.89348   -0.120353
 C 0.80306 0.26469 0.84108   0.129744
 C 0.86094 0.35256 0.86598   0.696895
 C 0.80574 0.67837 0.78489   -0.120346
 C 0.80306 0.57639 0.73531   0.129664
 C 0.86094 0.51342 0.64744   0.69691
 C 0.80574 0.10652 0.32163   -0.120326
 C 0.80306 0.15892 0.42361   0.129604
 C 0.86094 0.13402 0.48658   0.696932
 C 0.80574 0.78489 0.10652   -0.120352
 C 0.80306 0.73531 0.15892   0.129744
 C 0.86094 0.64744 0.13402   0.696895
 C 0.80574 0.32163 0.21511   -0.120346
 C 0.80306 0.42361 0.26469   0.129664
 C 0.86094 0.48658 0.35256   0.69691
 C 0.80574 0.89348 0.67837   -0.120325
 C 0.80306 0.84108 0.57639   0.129604
 C 0.86094 0.86598 0.51342   0.696932
 C 0.69426 0.32163 0.10652   -0.120352
 C 0.69694 0.42361 0.15892   0.129744
 C 0.63906 0.48658 0.13402   0.696895
 C 0.69426 0.89348 0.21511   -0.120346
 C 0.69694 0.84108 0.26469   0.129663
 C 0.63906 0.86598 0.35256   0.696911
 C 0.69426 0.78489 0.67837   -0.120325
 C 0.69694 0.73531 0.57639   0.129604
 C 0.63906 0.64744 0.51342   0.69693
 C 0.69426 0.67837 0.89348   -0.120353
 C 0.69694 0.57639 0.84108   0.129744
 C 0.63906 0.51342 0.86598   0.696895
 C 0.69426 0.10652 0.78489   -0.120347
 C 0.69694 0.15892 0.73531   0.129663
 C 0.63906 0.13402 0.64744   0.696911
 C 0.69426 0.21511 0.32163   -0.120326
 C 0.69694 0.26469 0.42361   0.129604
 C 0.63906 0.35256 0.48658   0.69693
 C 0.19426 0.78489 0.10652   -0.120353
 C 0.19694 0.73531 0.15892   0.129744
 C 0.13906 0.64744 0.13402   0.696896
 C 0.19426 0.32163 0.21511   -0.120346
 C 0.19694 0.42361 0.26469   0.129665
 C 0.13906 0.48658 0.35256   0.69691
 C 0.19426 0.89348 0.67837   -0.120326
 C 0.19694 0.84108 0.57639   0.129604
 C 0.13906 0.86598 0.51342   0.696932
 C 0.19426 0.21511 0.89348   -0.120352
 C 0.19694 0.26469 0.84108   0.129744
 C 0.13906 0.35256 0.86598   0.696896
 C 0.19426 0.67837 0.78489   -0.120346
 C 0.19694 0.57639 0.73531   0.129664
 C 0.13906 0.51342 0.64744   0.69691
 C 0.19426 0.10652 0.32163   -0.120325
 C 0.19694 0.15892 0.42361   0.129604
 C 0.13906 0.13402 0.48658   0.696932
 C 0.30574 0.67837 0.89348   -0.120352
 C 0.30306 0.57639 0.84108   0.129744
 C 0.36094 0.51342 0.86598   0.696895
 C 0.30574 0.10652 0.78489   -0.120346
 C 0.30306 0.15892 0.73531   0.129663
 C 0.36094 0.13402 0.64744   0.696912
 C 0.30574 0.21511 0.32163   -0.120325
 C 0.30306 0.26469 0.42361   0.129604
 C 0.36094 0.35256 0.48658   0.696931
 C 0.30574 0.32163 0.10652   -0.120353
 C 0.30306 0.42361 0.15892   0.129744
 C 0.36094 0.48658 0.13402   0.696895
 C 0.30574 0.89348 0.21511   -0.120347
 C 0.30306 0.84108 0.26469   0.129664
 C 0.36094 0.86598 0.35256   0.696911
 C 0.30574 0.78489 0.67837   -0.120326
 C 0.30306 0.73531 0.57639   0.129605
 C 0.36094 0.64744 0.51342   0.696931
 C 0.75 0.13525 0.86475   -0.029215
 C 0.75 0.7295 0.86475   -0.029215
 C 0.75 0.13525 0.2705   -0.029208
 C 0.75 0.86475 0.13525   -0.029218
 C 0.75 0.2705 0.13525   -0.029218
 C 0.75 0.86475 0.7295   -0.029211
 C 0.25 0.86475 0.13525   -0.029215
 C 0.25 0.2705 0.13525   -0.029215
 C 0.25 0.86475 0.7295   -0.029208
 C 0.25 0.13525 0.86475   -0.029217
 C 0.25 0.7295 0.86475   -0.029217
 C 0.25 0.13525 0.2705   -0.029211
 N 0.75 0.23653 0.76348   -0.371983
 N 0.75 0.52695 0.76348   -0.371984
 N 0.75 0.23653 0.47306   -0.371827
 N 0.75 0.76347 0.23652   -0.371983
 N 0.75 0.47305 0.23652   -0.371983
 N 0.75 0.76347 0.52694   -0.371827
 N 0.25 0.76347 0.23652   -0.371984
 N 0.25 0.47305 0.23652   -0.371984
 N 0.25 0.76347 0.52694   -0.371827
 N 0.25 0.23653 0.76348   -0.371984
 N 0.25 0.52695 0.76348   -0.371984
 N 0.25 0.23653 0.47306   -0.371827
 O 0.90539 0.38843 0.94261   -0.723119
 O 0.85938 0.38344 0.80493   -0.676837
 O 0.90539 0.55418 0.61157   -0.723118
 O 0.85938 0.42149 0.61656   -0.676845
 O 0.90539 0.05739 0.44582   -0.72312
 O 0.85938 0.19507 0.57851   -0.67684
 O 0.90539 0.61157 0.05739   -0.723119
 O 0.85938 0.61656 0.19507   -0.676837
 O 0.90539 0.44582 0.38843   -0.723118
 O 0.85938 0.57851 0.38344   -0.676845
 O 0.90539 0.94261 0.55418   -0.72312
 O 0.85938 0.80493 0.42149   -0.67684
 O 0.59461 0.44582 0.05739   -0.723119
 O 0.64062 0.57851 0.19507   -0.676837
 O 0.59461 0.94261 0.38843   -0.723119
 O 0.64062 0.80493 0.38344   -0.676845
 O 0.59461 0.61157 0.55418   -0.723119
 O 0.64062 0.61656 0.42149   -0.676841
 O 0.59461 0.55418 0.94261   -0.723119
 O 0.64062 0.42149 0.80493   -0.676837
 O 0.59461 0.05739 0.61157   -0.723119
 O 0.64062 0.19507 0.61656   -0.676845
 O 0.59461 0.38843 0.44582   -0.723119
 O 0.64062 0.38344 0.57851   -0.676841
 O 0.09461 0.61157 0.05739   -0.723119
 O 0.14062 0.61656 0.19507   -0.676837
 O 0.09461 0.44582 0.38843   -0.723118
 O 0.14062 0.57851 0.38344   -0.676845
 O 0.09461 0.94261 0.55418   -0.72312
 O 0.14062 0.80493 0.42149   -0.676841
 O 0.09461 0.38843 0.94261   -0.723119
 O 0.14062 0.38344 0.80493   -0.676837
 O 0.09461 0.55418 0.61157   -0.723119
 O 0.14062 0.42149 0.61656   -0.676845
 O 0.09461 0.05739 0.44582   -0.72312
 O 0.14062 0.19507 0.57851   -0.676841
 O 0.40539 0.55418 0.94261   -0.723119
 O 0.35938 0.42149 0.80493   -0.676837
 O 0.40539 0.05739 0.61157   -0.723119
 O 0.35938 0.19507 0.61656   -0.676845
 O 0.40539 0.38843 0.44582   -0.723119
 O 0.35938 0.38344 0.57851   -0.676841
 O 0.40539 0.44582 0.05739   -0.723119
 O 0.35938 0.57851 0.19507   -0.676837
 O 0.40539 0.94261 0.38843   -0.723119
 O 0.35938 0.80493 0.38344   -0.676845
 O 0.40539 0.61157 0.55418   -0.723119
 O 0.35938 0.61656 0.42149   -0.676841
