{'_ref': 'TBD', '_srcid': 'CAKYAQ_clean', 'submitters': [{'name': 'Dalar Nazarian Jeff Camp and David Sholl', 'email': 'dalar@gatech.edu jcamp6@gatech.edu'}], '_method': 'VASP DFT with PBE;DDEC'}
data_CoH22C30(N3O2)2
_symmetry_space_group_name_H-M   'P 1'
_cell_length_a   11.86399986
_cell_length_b   12.75370023
_cell_length_c   13.60586481
_cell_angle_alpha   117.94872212
_cell_angle_beta   107.64904469
_cell_angle_gamma   90.00000086
_symmetry_Int_Tables_number   1
_chemical_formula_structural   CoH22C30(N3O2)2
_chemical_formula_sum   'Co2 H44 C60 N12 O8'
_cell_volume   1708.1228016
_cell_formula_units_Z   2
loop_
 _symmetry_equiv_pos_site_id
 _symmetry_equiv_pos_as_xyz
  1  'x, y, z'
loop_
 _atom_site_label
 _atom_site_fract_x
 _atom_site_fract_y
 _atom_site_fract_z
 _atom_site_charge
 Co 0.0 0.5 0.5   0.540355
 Co 0.5 0.0 0.5   0.502202
 H 0.2024 0.4551 0.3854   0.260004
 H 0.5371 0.6359 0.4898   0.109052
 H 0.6487 0.5483 0.37   0.096186
 H 0.5567 0.4242 0.1716   0.087319
 H 0.3502 0.3811 0.09   0.091962
 H 0.2363 0.4648 0.2106   0.099593
 H 0.1717 0.765 0.6114   0.096379
 H 0.8832 0.5648 0.3002   0.062739
 H 0.7719 0.4776 0.1038   0.119176
 H 0.8361 0.1589 0.0728   0.131535
 H 0.9448 0.2544 0.27   0.087687
 H 0.2976 0.0697 0.6146   0.260892
 H 0.9629 0.1461 0.5102   0.108229
 H 0.8513 0.1783 0.63   0.096533
 H 0.9433 0.2526 0.8284   0.0871
 H 0.1498 0.2911 0.91   0.092262
 H 0.2637 0.2542 0.7894   0.099855
 H 0.3283 0.1536 0.3886   0.096248
 H 0.6168 0.2646 0.6998   0.061346
 H 0.7281 0.3738 0.8962   0.117068
 H 0.6639 0.0861 0.9272   0.129627
 H 0.5552 0.9844 0.73   0.087196
 H 0.7976 0.5449 0.6146   0.260003
 H 0.4629 0.3641 0.5102   0.109044
 H 0.3513 0.4517 0.63   0.096187
 H 0.4433 0.5758 0.8284   0.08732
 H 0.6498 0.6189 0.91   0.091971
 H 0.7637 0.5352 0.7894   0.099593
 H 0.8283 0.235 0.3886   0.096369
 H 0.1168 0.4352 0.6998   0.062739
 H 0.2281 0.5224 0.8962   0.119177
 H 0.1639 0.8411 0.9272   0.131571
 H 0.0552 0.7456 0.73   0.087682
 H 0.7024 0.9303 0.3854   0.260891
 H 0.0371 0.8539 0.4898   0.108221
 H 0.1487 0.8217 0.37   0.096534
 H 0.0567 0.7474 0.1716   0.087101
 H 0.8502 0.7089 0.09   0.09227
 H 0.7363 0.7458 0.2106   0.099855
 H 0.6717 0.8464 0.6114   0.096236
 H 0.3832 0.7354 0.3002   0.061346
 H 0.2719 0.6262 0.1038   0.117068
 H 0.3361 0.9139 0.0728   0.12966
 H 0.4448 0.0156 0.27   0.087189
 C 0.4987 0.58348 0.40936   -0.090686
 C 0.5653 0.53206 0.33752   -0.065895
 C 0.5107 0.4579 0.2198   -0.091914
 C 0.3876 0.43199 0.17098   -0.093142
 C 0.3196 0.48224 0.24328   -0.114301
 C 0.3746 0.55773 0.36292   0.022219
 C 0.3 0.60733 0.4384   0.142073
 C 0.1985 0.70377 0.55668   0.105285
 C 0.2917 0.72315 0.52152   -0.323924
 C 0.3501 0.84514 0.55782   0.689366
 C 0.8726 0.48146 0.25412   0.172669
 C 0.8055 0.42959 0.13558   -0.2095
 C 0.7878 0.30599 0.06378   0.095726
 C 0.8431 0.24198 0.11736   -0.199353
 C 0.9087 0.30024 0.23648   0.162108
 C 0.0013 0.17412 0.59064   -0.091002
 C 0.9347 0.19454 0.66248   -0.064902
 C 0.9893 0.2381 0.7802   -0.092733
 C 0.1124 0.26101 0.82902   -0.094615
 C 0.1804 0.23896 0.75672   -0.113715
 C 0.1254 0.19481 0.63708   0.021554
 C 0.2 0.16893 0.5616   0.140294
 C 0.3015 0.14709 0.44332   0.103096
 C 0.2083 0.20163 0.47848   -0.328345
 C 0.1499 0.28732 0.44218   0.692835
 C 0.6274 0.22734 0.74588   0.170465
 C 0.6945 0.29401 0.86442   -0.209656
 C 0.7122 0.24221 0.93622   0.087308
 C 0.6569 0.12462 0.88264   -0.200216
 C 0.5913 0.06376 0.76352   0.159547
 C 0.5013 0.41652 0.59064   -0.090686
 C 0.4347 0.46794 0.66248   -0.065908
 C 0.4893 0.5421 0.7802   -0.091913
 C 0.6124 0.56801 0.82902   -0.093145
 C 0.6804 0.51776 0.75672   -0.1143
 C 0.6254 0.44227 0.63708   0.022219
 C 0.7 0.39267 0.5616   0.142067
 C 0.8015 0.29623 0.44332   0.105284
 C 0.7083 0.27685 0.47848   -0.323928
 C 0.6499 0.15486 0.44218   0.689367
 C 0.1274 0.51854 0.74588   0.172667
 C 0.1945 0.57041 0.86442   -0.2095
 C 0.2122 0.69401 0.93622   0.095729
 C 0.1569 0.75802 0.88264   -0.199364
 C 0.0913 0.69976 0.76352   0.162111
 C 0.9987 0.82588 0.40936   -0.090999
 C 0.0653 0.80546 0.33752   -0.064916
 C 0.0107 0.7619 0.2198   -0.092733
 C 0.8876 0.73899 0.17098   -0.094619
 C 0.8196 0.76104 0.24328   -0.113715
 C 0.8746 0.80519 0.36292   0.021553
 C 0.8 0.83107 0.4384   0.140289
 C 0.6985 0.85291 0.55668   0.103094
 C 0.7917 0.79837 0.52152   -0.328349
 C 0.8501 0.71268 0.55782   0.692836
 C 0.3726 0.77266 0.25412   0.170463
 C 0.3055 0.70599 0.13558   -0.209656
 C 0.2878 0.75779 0.06378   0.087311
 C 0.3431 0.87538 0.11736   -0.200226
 C 0.4087 0.93624 0.23648   0.15955
 N 0.15266 0.58858 0.5035   -0.19261
 N 0.21533 0.53173 0.4312   -0.057484
 N 0.9234 0.4189 0.30664   -0.252458
 N 0.34734 0.08508 0.4965   -0.187481
 N 0.28467 0.10053 0.5688   -0.058315
 N 0.5766 0.11226 0.69336   -0.249423
 N 0.84734 0.41142 0.4965   -0.192611
 N 0.78467 0.46827 0.5688   -0.057483
 N 0.0766 0.5811 0.69336   -0.252459
 N 0.65266 0.91492 0.5035   -0.187483
 N 0.71533 0.89947 0.4312   -0.058314
 N 0.4234 0.88774 0.30664   -0.249425
 O 0.42104 0.85544 0.50974   -0.549155
 O 0.31928 0.93185 0.63448   -0.643573
 O 0.07896 0.3457 0.49026   -0.549859
 O 0.18072 0.29737 0.36552   -0.63954
 O 0.57896 0.14456 0.49026   -0.549155
 O 0.68072 0.06815 0.36552   -0.643572
 O 0.92104 0.6543 0.50974   -0.549859
 O 0.81928 0.70263 0.63448   -0.63954
