{'_ref': 'TBD', '_srcid': 'CAKYAQ_clean', 'submitters': [{'name': 'Dalar Nazarian Jeff Camp and David Sholl', 'email': 'dalar@gatech.edu jcamp6@gatech.edu'}], '_method': 'VASP DFT with PBE;DDEC'}
data_ErH3C6N2O5
_symmetry_space_group_name_H-M   'P 1'
_cell_length_a   6.15100000
_cell_length_b   11.70600005
_cell_length_c   14.06300000
_cell_angle_alpha   92.25499923
_cell_angle_beta   90.00000000
_cell_angle_gamma   90.00000000
_symmetry_Int_Tables_number   1
_chemical_formula_structural   ErH3C6N2O5
_chemical_formula_sum   'Er4 H12 C24 N8 O20'
_cell_volume   1011.80257496
_cell_formula_units_Z   4
loop_
 _symmetry_equiv_pos_site_id
 _symmetry_equiv_pos_as_xyz
  1  'x, y, z'
loop_
 _atom_site_label
 _atom_site_fract_x
 _atom_site_fract_y
 _atom_site_fract_z
 _atom_site_charge
 Er 0.50667 0.84627 0.24583   1.378096
 Er 0.00667 0.65373 0.25417   1.378097
 Er 0.49333 0.15373 0.75417   1.378096
 Er 0.99333 0.34627 0.74583   1.378097
 H 0.7831 0.9651 0.5978   0.096012
 H 0.216 0.118 0.9768   0.095406
 H 0.222 0.766 0.38   0.39099
 H 0.2831 0.5349 0.9022   0.096012
 H 0.716 0.382 0.5232   0.095406
 H 0.722 0.734 0.12   0.39099
 H 0.2169 0.0349 0.4022   0.096013
 H 0.784 0.882 0.0232   0.095406
 H 0.778 0.234 0.62   0.390989
 H 0.7169 0.4651 0.0978   0.096013
 H 0.284 0.618 0.4768   0.095406
 H 0.278 0.266 0.88   0.390989
 C 0.8232 0.8408 0.4346   0.621884
 C 0.6527 0.9252 0.4696   0.058676
 C 0.6661 0.9805 0.5584   0.150789
 C 0.1779 0.0178 0.1449   0.610709
 C 0.3462 0.0078 0.0668   0.063434
 C 0.3342 0.0699 0.9852   0.157668
 C 0.3232 0.6592 0.0654   0.621882
 C 0.1527 0.5748 0.0304   0.058676
 C 0.1661 0.5195 0.9416   0.150789
 C 0.6779 0.4822 0.3551   0.610709
 C 0.8462 0.4922 0.4332   0.063433
 C 0.8342 0.4301 0.5148   0.157668
 C 0.1768 0.1592 0.5654   0.621884
 C 0.3473 0.0748 0.5304   0.058675
 C 0.3339 0.0195 0.4416   0.150788
 C 0.8221 0.9822 0.8551   0.610709
 C 0.6538 0.9922 0.9332   0.063432
 C 0.6658 0.9301 0.0148   0.157666
 C 0.6768 0.3408 0.9346   0.621883
 C 0.8473 0.4252 0.9696   0.058675
 C 0.8339 0.4805 0.0584   0.150788
 C 0.3221 0.5178 0.6449   0.610709
 C 0.1538 0.5078 0.5668   0.063431
 C 0.1658 0.5699 0.4852   0.157666
 N 0.4843 0.945 0.4114   -0.284347
 N 0.5132 0.9373 0.081   -0.288873
 N 0.9843 0.555 0.0886   -0.284347
 N 0.0132 0.5627 0.419   -0.288873
 N 0.5157 0.055 0.5886   -0.284347
 N 0.4868 0.0627 0.919   -0.288873
 N 0.0157 0.445 0.9114   -0.284347
 N 0.9868 0.4373 0.581   -0.288873
 O 0.7833 0.7889 0.3546   -0.634279
 O 0.9844 0.8279 0.4834   -0.481364
 O 0.2149 0.9621 0.218   -0.581049
 O 0.0184 0.0796 0.1311   -0.444017
 O 0.27 0.7467 0.32896   -0.90973
 O 0.2833 0.7111 0.1454   -0.634279
 O 0.4844 0.6721 0.0166   -0.481364
 O 0.7149 0.5379 0.282   -0.581049
 O 0.5184 0.4204 0.3689   -0.444017
 O 0.77 0.7533 0.17104   -0.90973
 O 0.2167 0.2111 0.6454   -0.634279
 O 0.0156 0.1721 0.5166   -0.481365
 O 0.7851 0.0379 0.782   -0.581049
 O 0.9816 0.9204 0.8689   -0.444018
 O 0.73 0.2533 0.67104   -0.90973
 O 0.7167 0.2889 0.8546   -0.634279
 O 0.5156 0.3279 0.9834   -0.481365
 O 0.2851 0.4621 0.718   -0.581049
 O 0.4816 0.5796 0.6311   -0.444018
 O 0.23 0.2467 0.82896   -0.90973
