{'_ref': 'TBD', '_srcid': 'CAKYAQ_clean', 'submitters': [{'name': 'Dalar Nazarian Jeff Camp and David Sholl', 'email': 'dalar@gatech.edu jcamp6@gatech.edu'}], '_method': 'VASP DFT with PBE;DDEC'}
data_Ag12H15C25N9(OF)9
_symmetry_space_group_name_H-M   'P 1'
_cell_length_a   16.25640000
_cell_length_b   18.02580000
_cell_length_c   19.60930000
_cell_angle_alpha   90.00000000
_cell_angle_beta   90.00000000
_cell_angle_gamma   90.00000000
_symmetry_Int_Tables_number   1
_chemical_formula_structural   Ag12H15C25N9(OF)9
_chemical_formula_sum   'Ag48 H60 C100 N36 O36 F36'
_cell_volume   5746.20367827
_cell_formula_units_Z   4
loop_
 _symmetry_equiv_pos_site_id
 _symmetry_equiv_pos_as_xyz
  1  'x, y, z'
loop_
 _atom_site_label
 _atom_site_fract_x
 _atom_site_fract_y
 _atom_site_fract_z
 _atom_site_charge
 Ag 0.38237 0.06845 0.60587   0.22684
 Ag 0.46669 0.03135 0.464   -0.045774
 Ag 0.61176 0.95092 0.50015   -0.073325
 Ag 0.58808 0.88647 0.6449   0.436475
 Ag 0.41625 0.88551 0.55355   0.303053
 Ag 0.40709 0.94684 0.70747   0.539558
 Ag 0.5372 0.04575 0.72291   0.218495
 Ag 0.59148 0.09084 0.57799   0.457268
 Ag 0.10902 0.40834 0.85788   0.265236
 Ag 0.38659 0.08515 0.32828   0.297606
 Ag 0.35462 0.07236 0.81717   0.360847
 Ag 0.64268 0.08139 0.3732   0.37493
 Ag 0.61763 0.93155 0.10587   0.22684
 Ag 0.53331 0.96865 0.964   -0.045774
 Ag 0.38824 0.04908 0.000149999999998   -0.073324
 Ag 0.41192 0.11353 0.1449   0.436476
 Ag 0.58375 0.11449 0.05355   0.303053
 Ag 0.59291 0.05316 0.20747   0.539558
 Ag 0.4628 0.95425 0.22291   0.218495
 Ag 0.40852 0.90916 0.07799   0.457267
 Ag 0.89098 0.59166 0.35788   0.265236
 Ag 0.61341 0.91485 0.82828   0.297606
 Ag 0.64538 0.92764 0.31717   0.360847
 Ag 0.35732 0.91861 0.8732   0.37493
 Ag 0.88237 0.43155 0.60587   0.22684
 Ag 0.96669 0.46865 0.464   -0.045774
 Ag 0.11176 0.54908 0.50015   -0.073325
 Ag 0.08808 0.61353 0.6449   0.436475
 Ag 0.91625 0.61449 0.55355   0.303053
 Ag 0.90709 0.55316 0.70747   0.539558
 Ag 0.0372 0.45425 0.72291   0.218495
 Ag 0.09148 0.40916 0.57799   0.457268
 Ag 0.60902 0.09166 0.85788   0.265237
 Ag 0.88659 0.41485 0.32828   0.297607
 Ag 0.85462 0.42764 0.81717   0.360847
 Ag 0.14268 0.41861 0.3732   0.37493
 Ag 0.11763 0.56845 0.10587   0.22684
 Ag 0.03331 0.53135 0.964   -0.045774
 Ag 0.88824 0.45092 0.000149999999998   -0.073324
 Ag 0.91192 0.38647 0.1449   0.436475
 Ag 0.08375 0.38551 0.05355   0.303053
 Ag 0.09291 0.44684 0.20747   0.539558
 Ag 0.9628 0.54575 0.22291   0.218495
 Ag 0.90852 0.59084 0.07799   0.457267
 Ag 0.39098 0.90834 0.35788   0.265237
 Ag 0.11341 0.58515 0.82828   0.297607
 Ag 0.14538 0.57236 0.31717   0.360847
 Ag 0.85732 0.58139 0.8732   0.37493
 H 0.3363 0.2417 0.6273   0.344923
 H 0.2943 0.2965 0.6722   0.352939
 H 0.2423 0.1631 0.9254   0.050938
 H 0.1775 0.2753 0.9381   0.053014
 H 0.2224 0.3221 0.7492   0.064434
 H 0.6613 0.2494 0.5666   0.337471
 H 0.7012 0.3047 0.5209   0.347586
 H 0.7561 0.1646 0.2687   0.092617
 H 0.8267 0.2713 0.2533   0.080785
 H 0.7752 0.3312 0.4386   0.038312
 H 0.9867 0.8796 0.5824   0.368861
 H 0.8969 0.8959 0.5814   0.345514
 H 0.7174 0.636 0.5654   0.092241
 H 0.6186 0.7176 0.5977   0.076129
 H 0.7862 0.8694 0.6304   0.075794
 H 0.6637 0.7583 0.1273   0.344923
 H 0.7057 0.7035 0.1722   0.352939
 H 0.7577 0.8369 0.4254   0.050938
 H 0.8225 0.7247 0.4381   0.053014
 H 0.7776 0.6779 0.2492   0.064434
 H 0.3387 0.7506 0.0666   0.337471
 H 0.2988 0.6953 0.0209   0.347586
 H 0.2439 0.8354 0.7687   0.092617
 H 0.1733 0.7287 0.7533   0.080785
 H 0.2248 0.6688 0.9386   0.038312
 H 0.0133 0.1204 0.0824   0.368861
 H 0.1031 0.1041 0.0814   0.345514
 H 0.2826 0.364 0.0654   0.092241
 H 0.3814 0.2824 0.0977   0.076129
 H 0.2138 0.1306 0.1304   0.075794
 H 0.8363 0.2583 0.6273   0.344923
 H 0.7943 0.2035 0.6722   0.352939
 H 0.7423 0.3369 0.9254   0.050938
 H 0.6775 0.2247 0.9381   0.053014
 H 0.7224 0.1779 0.7492   0.064434
 H 0.1613 0.2506 0.5666   0.337471
 H 0.2012 0.1953 0.5209   0.347586
 H 0.2561 0.3354 0.2687   0.092617
 H 0.3267 0.2287 0.2533   0.080785
 H 0.2752 0.1688 0.4386   0.038312
 H 0.4867 0.6204 0.5824   0.368862
 H 0.3969 0.6041 0.5814   0.345514
 H 0.2174 0.864 0.5654   0.092242
 H 0.1186 0.7824 0.5977   0.076129
 H 0.2862 0.6306 0.6304   0.075794
 H 0.1637 0.7417 0.1273   0.344923
 H 0.2057 0.7965 0.1722   0.352939
 H 0.2577 0.6631 0.4254   0.050938
 H 0.3225 0.7753 0.4381   0.053014
 H 0.2776 0.8221 0.2492   0.064434
 H 0.8387 0.7494 0.0666   0.337471
 H 0.7988 0.8047 0.0209   0.347586
 H 0.7439 0.6646 0.7687   0.092617
 H 0.6733 0.7713 0.7533   0.080785
 H 0.7248 0.8312 0.9386   0.038312
 H 0.5133 0.3796 0.0824   0.368862
 H 0.6031 0.3959 0.0814   0.345514
 H 0.7826 0.136 0.0654   0.092242
 H 0.8814 0.2176 0.0977   0.076129
 H 0.7138 0.3694 0.1304   0.075794
 C 0.491 0.9827 0.6265   -0.550101
 C 0.5162 0.9834 0.5687   -0.248422
 C 0.4764 0.9977 0.3426   -0.335036
 C 0.5494 0.005 0.3422   -0.367615
 C 0.2404 0.1959 0.8888   0.086651
 C 0.2001 0.2632 0.8959   0.041261
 C 0.2275 0.2906 0.7866   0.091695
 C 0.2696 0.2266 0.7797   -0.019619
 C 0.3092 0.203 0.714   0.542447
 C 0.7603 0.1976 0.305   0.095393
 C 0.8023 0.2622 0.2953   0.052647
 C 0.7721 0.2971 0.4031   0.114861
 C 0.7288 0.232 0.4137   -0.060459
 C 0.6892 0.2104 0.4804   0.597642
 C 0.7331 0.6835 0.5786   0.059507
 C 0.6732 0.7329 0.5978   0.060309
 C 0.771 0.8218 0.617   0.076997
 C 0.8307 0.7714 0.5976   -0.020688
 C 0.9204 0.7927 0.5907   0.568345
 C 0.4633 0.7941 0.7478   0.478814
 C 0.4587 0.7168 0.779   0.585992
 C 0.2303 0.9857 0.6752   0.520956
 C 0.1336 0.9777 0.6814   0.560809
 C 0.5574 0.2156 0.6891   0.470947
 C 0.5545 0.3016 0.7017   0.567865
 C 0.509 0.0173 0.1265   -0.550101
 C 0.4838 0.0166 0.0687   -0.248422
 C 0.5236 0.0023 0.8426   -0.335036
 C 0.4506 0.995 0.8422   -0.367615
 C 0.7596 0.8041 0.3888   0.086651
 C 0.7999 0.7368 0.3959   0.041261
 C 0.7725 0.7094 0.2866   0.091695
 C 0.7304 0.7734 0.2797   -0.019619
 C 0.6908 0.797 0.214   0.542447
 C 0.2397 0.8024 0.805   0.095393
 C 0.1977 0.7378 0.7953   0.052647
 C 0.2279 0.7029 0.9031   0.114861
 C 0.2712 0.768 0.9137   -0.060459
 C 0.3108 0.7896 0.9804   0.597642
 C 0.2669 0.3165 0.0786   0.059507
 C 0.3268 0.2671 0.0978   0.060309
 C 0.229 0.1782 0.117   0.076997
 C 0.1693 0.2286 0.0976   -0.020688
 C 0.0796 0.2073 0.0907   0.568345
 C 0.5367 0.2059 0.2478   0.478814
 C 0.5413 0.2832 0.279   0.585992
 C 0.7697 0.0143 0.1752   0.520956
 C 0.8664 0.0223 0.1814   0.560809
 C 0.4426 0.7844 0.1891   0.470947
 C 0.4455 0.6984 0.2017   0.567865
 C 0.991 0.5173 0.6265   -0.550101
 C 0.0162 0.5166 0.5687   -0.248422
 C 0.9764 0.5023 0.3426   -0.335036
 C 0.0494 0.495 0.3422   -0.367615
 C 0.7404 0.3041 0.8888   0.086651
 C 0.7001 0.2368 0.8959   0.041261
 C 0.7275 0.2094 0.7866   0.091695
 C 0.7696 0.2734 0.7797   -0.019619
 C 0.8092 0.297 0.714   0.542447
 C 0.2603 0.3024 0.305   0.095393
 C 0.3023 0.2378 0.2953   0.052647
 C 0.2721 0.2029 0.4031   0.114861
 C 0.2288 0.268 0.4137   -0.060459
 C 0.1892 0.2896 0.4804   0.597642
 C 0.2331 0.8165 0.5786   0.059507
 C 0.1732 0.7671 0.5978   0.060309
 C 0.271 0.6782 0.617   0.076997
 C 0.3307 0.7286 0.5976   -0.020688
 C 0.4204 0.7073 0.5907   0.568345
 C 0.9633 0.7059 0.7478   0.478814
 C 0.9587 0.7832 0.779   0.585992
 C 0.7303 0.5143 0.6752   0.520956
 C 0.6336 0.5223 0.6814   0.560809
 C 0.0574 0.2844 0.6891   0.470947
 C 0.0545 0.1984 0.7017   0.567865
 C 0.009 0.4827 0.1265   -0.550101
 C 0.9838 0.4834 0.0687   -0.248422
 C 0.0236 0.4977 0.8426   -0.335036
 C 0.9506 0.505 0.8422   -0.367615
 C 0.2596 0.6959 0.3888   0.086651
 C 0.2999 0.7632 0.3959   0.041261
 C 0.2725 0.7906 0.2866   0.091695
 C 0.2304 0.7266 0.2797   -0.019619
 C 0.1908 0.703 0.214   0.542447
 C 0.7397 0.6976 0.805   0.095393
 C 0.6977 0.7622 0.7953   0.052648
 C 0.7279 0.7971 0.9031   0.114861
 C 0.7712 0.732 0.9137   -0.060459
 C 0.8108 0.7104 0.9804   0.597642
 C 0.7669 0.1835 0.0786   0.059507
 C 0.8268 0.2329 0.0978   0.060309
 C 0.729 0.3218 0.117   0.076997
 C 0.6693 0.2714 0.0976   -0.020688
 C 0.5796 0.2927 0.0907   0.568345
 C 0.0367 0.2941 0.2478   0.478814
 C 0.0413 0.2168 0.279   0.585992
 C 0.2697 0.4857 0.1752   0.520956
 C 0.3664 0.4777 0.1814   0.560809
 C 0.9426 0.7156 0.1891   0.470947
 C 0.9455 0.8016 0.2017   0.567865
 N 0.2761 0.1781 0.8307   -0.267693
 N 0.1926 0.31 0.8463   -0.247237
 N 0.3138 0.2528 0.6656   -0.689877
 N 0.7248 0.1792 0.3642   -0.238986
 N 0.8092 0.313 0.3452   -0.246175
 N 0.6832 0.2605 0.528   -0.694405
 N 0.8128 0.7008 0.5781   -0.257594
 N 0.6911 0.8025 0.6166   -0.297512
 N 0.9366 0.8645 0.584   -0.721362
 N 0.7239 0.8219 0.3307   -0.267693
 N 0.8074 0.69 0.3463   -0.247237
 N 0.6862 0.7472 0.1656   -0.689877
 N 0.2752 0.8208 0.8642   -0.238986
 N 0.1908 0.687 0.8452   -0.246175
 N 0.3168 0.7395 0.028   -0.694405
 N 0.1872 0.2992 0.0781   -0.257594
 N 0.3089 0.1975 0.1166   -0.297512
 N 0.0634 0.1355 0.084   -0.721361
 N 0.7761 0.3219 0.8307   -0.267693
 N 0.6926 0.19 0.8463   -0.247237
 N 0.8138 0.2472 0.6656   -0.689877
 N 0.2248 0.3208 0.3642   -0.238986
 N 0.3092 0.187 0.3452   -0.246175
 N 0.1832 0.2395 0.528   -0.694405
 N 0.3128 0.7992 0.5781   -0.257594
 N 0.1911 0.6975 0.6166   -0.297512
 N 0.4366 0.6355 0.584   -0.721362
 N 0.2239 0.6781 0.3307   -0.267693
 N 0.3074 0.81 0.3463   -0.247237
 N 0.1862 0.7528 0.1656   -0.689877
 N 0.7752 0.6792 0.8642   -0.238986
 N 0.6908 0.813 0.8452   -0.246175
 N 0.8168 0.7605 0.028   -0.694405
 N 0.6872 0.2008 0.0781   -0.257594
 N 0.8089 0.3025 0.1166   -0.297512
 N 0.5634 0.3645 0.084   -0.721362
 O 0.3364 0.138 0.7077   -0.446932
 O 0.6652 0.1482 0.4877   -0.516778
 O 0.9742 0.746 0.5947   -0.498874
 O 0.3987 0.8264 0.7396   -0.482451
 O 0.5374 0.8186 0.7418   -0.55451
 O 0.2518 0.0106 0.6221   -0.512302
 O 0.271 0.9641 0.7248   -0.552222
 O 0.5919 0.1994 0.6336   -0.547781
 O 0.5255 0.1744 0.7315   -0.462614
 O 0.6636 0.862 0.2077   -0.446932
 O 0.3348 0.8518 0.9877   -0.516778
 O 0.0258 0.254 0.0947   -0.498874
 O 0.6013 0.1736 0.2396   -0.482451
 O 0.4626 0.1814 0.2418   -0.55451
 O 0.7482 0.9894 0.1221   -0.512302
 O 0.729 0.0359 0.2248   -0.552222
 O 0.4081 0.8006 0.1336   -0.547781
 O 0.4745 0.8256 0.2315   -0.462614
 O 0.8364 0.362 0.7077   -0.446932
 O 0.1652 0.3518 0.4877   -0.516778
 O 0.4742 0.754 0.5947   -0.498874
 O 0.8987 0.6736 0.7396   -0.482451
 O 0.0374 0.6814 0.7418   -0.55451
 O 0.7518 0.4894 0.6221   -0.512302
 O 0.771 0.5359 0.7248   -0.552222
 O 0.0919 0.3006 0.6336   -0.547781
 O 0.0255 0.3256 0.7315   -0.462614
 O 0.1636 0.638 0.2077   -0.446932
 O 0.8348 0.6482 0.9877   -0.516778
 O 0.5258 0.246 0.0947   -0.498874
 O 0.1013 0.3264 0.2396   -0.482451
 O 0.9626 0.3186 0.2418   -0.55451
 O 0.2482 0.5106 0.1221   -0.512302
 O 0.229 0.4641 0.2248   -0.552222
 O 0.9081 0.6994 0.1336   -0.547781
 O 0.9745 0.6744 0.2315   -0.462614
 F 0.3986 0.6802 0.7503   -0.219328
 F 0.4313 0.7184 0.8418   -0.227052
 F 0.5255 0.6787 0.7845   -0.180477
 F 0.092 0.0079 0.6347   -0.194784
 F 0.1149 0.9052 0.6795   -0.227194
 F 0.1049 0.0056 0.7363   -0.194185
 F 0.4913 0.3293 0.6881   -0.084818
 F 0.6219 0.3368 0.6737   -0.239868
 F 0.5804 0.3155 0.7665   -0.250959
 F 0.6014 0.3198 0.2503   -0.219328
 F 0.5687 0.2816 0.3418   -0.227052
 F 0.4745 0.3213 0.2845   -0.180477
 F 0.908 0.9921 0.1347   -0.194784
 F 0.8851 0.0948 0.1795   -0.227194
 F 0.8951 0.9944 0.2363   -0.194185
 F 0.5087 0.6707 0.1881   -0.084818
 F 0.3781 0.6632 0.1737   -0.239868
 F 0.4196 0.6845 0.2665   -0.250959
 F 0.8986 0.8198 0.7503   -0.219328
 F 0.9313 0.7816 0.8418   -0.227052
 F 0.0255 0.8213 0.7845   -0.180477
 F 0.592 0.4921 0.6347   -0.194784
 F 0.6149 0.5948 0.6795   -0.227194
 F 0.6049 0.4944 0.7363   -0.194186
 F 0.9913 0.1707 0.6881   -0.084818
 F 0.1219 0.1632 0.6737   -0.239868
 F 0.0804 0.1845 0.7665   -0.25096
 F 0.1014 0.1802 0.2503   -0.219328
 F 0.0687 0.2184 0.3418   -0.227052
 F 0.9745 0.1787 0.2845   -0.180477
 F 0.408 0.5079 0.1347   -0.194784
 F 0.3851 0.4052 0.1795   -0.227194
 F 0.3951 0.5056 0.2363   -0.194186
 F 0.0087 0.8293 0.1881   -0.084818
 F 0.8781 0.8368 0.1737   -0.239868
 F 0.9196 0.8155 0.2665   -0.25096
