{'_ref': 'TBD', '_srcid': 'CAKYAQ_clean', 'submitters': [{'name': 'Dalar Nazarian Jeff Camp and David Sholl', 'email': 'dalar@gatech.edu jcamp6@gatech.edu'}], '_method': 'VASP DFT with PBE;DDEC'}
data_MgH2(CO2)2
_symmetry_space_group_name_H-M   'P 1'
_cell_length_a   9.84900000
_cell_length_b   11.34099963
_cell_length_c   14.54700000
_cell_angle_alpha   91.38800115
_cell_angle_beta   90.00000000
_cell_angle_gamma   90.00000000
_symmetry_Int_Tables_number   1
_chemical_formula_structural   MgH2(CO2)2
_chemical_formula_sum   'Mg12 H24 C24 O48'
_cell_volume   1624.38684954
_cell_formula_units_Z   12
loop_
 _symmetry_equiv_pos_site_id
 _symmetry_equiv_pos_as_xyz
  1  'x, y, z'
loop_
 _atom_site_label
 _atom_site_fract_x
 _atom_site_fract_y
 _atom_site_fract_z
 _atom_site_charge
 Mg 0.92135 0.7437 0.86534   1.521022
 Mg 0.11154 0.76041 0.69005   1.497279
 Mg 0.42135 0.7563 0.63466   1.521022
 Mg 0.61154 0.73959 0.80995   1.497279
 Mg 0.07865 0.2563 0.13466   1.521022
 Mg 0.88846 0.23959 0.30995   1.497279
 Mg 0.57865 0.2437 0.36534   1.521022
 Mg 0.38846 0.26041 0.19005   1.497279
 Mg 0.0 0.0 0.0   1.4922
 Mg 0.5 0.5 0.5   1.4922
 Mg 0.0 0.5 0.0   1.502728
 Mg 0.5 0.0 0.5   1.502728
 H 0.0378 0.0237 0.7367   0.002586
 H 0.6185 0.9354 0.9597   -0.002135
 H 0.7602 0.6376 0.6312   -0.009456
 H 0.7053 0.5075 0.9858   -0.001319
 H 0.1945 0.5204 0.7702   -0.008615
 H 0.1577 0.8012 0.0704   -0.002661
 H 0.5378 0.4763 0.7633   0.002586
 H 0.1185 0.5646 0.5403   -0.002135
 H 0.2602 0.8624 0.8688   -0.009456
 H 0.2053 0.9925 0.5142   -0.001319
 H 0.6945 0.9796 0.7298   -0.008615
 H 0.6577 0.6988 0.4296   -0.002661
 H 0.9622 0.9763 0.2633   0.002586
 H 0.3815 0.0646 0.0403   -0.002134
 H 0.2398 0.3624 0.3688   -0.009456
 H 0.2947 0.4925 0.0142   -0.001319
 H 0.8055 0.4796 0.2298   -0.008615
 H 0.8423 0.1988 0.9296   -0.002662
 H 0.4622 0.5237 0.2367   0.002586
 H 0.8815 0.4354 0.4597   -0.002134
 H 0.7398 0.1376 0.1312   -0.009456
 H 0.7947 0.0075 0.4858   -0.001319
 H 0.3055 0.0204 0.2702   -0.008615
 H 0.3423 0.3012 0.5704   -0.002662
 C 0.01602 0.98049 0.78988   0.751467
 C 0.71259 0.92126 0.94992   0.749655
 C 0.83004 0.66927 0.66949   0.755461
 C 0.72397 0.56944 0.94485   0.757099
 C 0.13176 0.54849 0.81522   0.750305
 C 0.10101 0.75761 0.0291   0.762403
 C 0.51602 0.51951 0.71012   0.751467
 C 0.21259 0.57874 0.55008   0.749655
 C 0.33004 0.83073 0.83051   0.755461
 C 0.22397 0.93056 0.55515   0.757099
 C 0.63176 0.95151 0.68478   0.750305
 C 0.60101 0.74239 0.4709   0.762403
 C 0.98398 0.01951 0.21012   0.751467
 C 0.28741 0.07874 0.05008   0.749655
 C 0.16996 0.33073 0.33051   0.755461
 C 0.27603 0.43056 0.05515   0.757099
 C 0.86824 0.45151 0.18478   0.750305
 C 0.89899 0.24239 0.9709   0.762403
 C 0.48398 0.48049 0.28988   0.751467
 C 0.78741 0.42126 0.44992   0.749655
 C 0.66996 0.16927 0.16949   0.755461
 C 0.77603 0.06944 0.44485   0.757099
 C 0.36824 0.04849 0.31522   0.750305
 C 0.39899 0.25761 0.5291   0.762403
 O 0.00628 0.86915 0.77984   -0.830091
 O 0.74419 0.84333 0.88893   -0.824791
 O 0.79967 0.69209 0.75338   -0.819413
 O 0.8481 0.60156 0.93749   -0.827366
 O 0.08188 0.65052 0.80356   -0.824301
 O 0.02614 0.817 0.97487   -0.837728
 O 0.99976 0.03733 0.86212   -0.675626
 O 0.79264 0.98005 0.99746   -0.666182
 O 0.62628 0.61139 0.90368   -0.684889
 O 0.1069 0.48247 0.879   -0.668726
 O 0.10617 0.64976 0.03262   -0.680376
 O 0.94272 0.68486 0.63364   -0.681068
 O 0.50628 0.63085 0.72016   -0.830091
 O 0.24419 0.65667 0.61107   -0.824791
 O 0.29967 0.80791 0.74662   -0.819413
 O 0.3481 0.89844 0.56251   -0.827366
 O 0.58188 0.84948 0.69644   -0.824301
 O 0.52614 0.683 0.52513   -0.837728
 O 0.49976 0.46267 0.63788   -0.675626
 O 0.29264 0.51995 0.50254   -0.666182
 O 0.12628 0.88861 0.59632   -0.684889
 O 0.6069 0.01753 0.621   -0.668726
 O 0.60617 0.85024 0.46738   -0.680376
 O 0.44272 0.81514 0.86636   -0.681068
 O 0.99372 0.13085 0.22016   -0.830091
 O 0.25581 0.15667 0.11107   -0.824791
 O 0.20033 0.30791 0.24662   -0.819413
 O 0.1519 0.39844 0.06251   -0.827366
 O 0.91812 0.34948 0.19644   -0.824301
 O 0.97386 0.183 0.02513   -0.837728
 O 0.000239999999998 0.96267 0.13788   -0.675626
 O 0.20736 0.01995 0.00254   -0.666182
 O 0.37372 0.38861 0.09632   -0.684889
 O 0.8931 0.51753 0.121   -0.668726
 O 0.89383 0.35024 0.96738   -0.680376
 O 0.05728 0.31514 0.36636   -0.681068
 O 0.49372 0.36915 0.27984   -0.830091
 O 0.75581 0.34333 0.38893   -0.824791
 O 0.70033 0.19209 0.25338   -0.819413
 O 0.6519 0.10156 0.43749   -0.827366
 O 0.41812 0.15052 0.30356   -0.824301
 O 0.47386 0.317 0.47487   -0.837728
 O 0.50024 0.53733 0.36212   -0.675626
 O 0.70736 0.48005 0.49746   -0.666182
 O 0.87372 0.11139 0.40368   -0.684889
 O 0.3931 0.98247 0.379   -0.668726
 O 0.39383 0.14976 0.53262   -0.680376
 O 0.55728 0.18486 0.13364   -0.681068
