{'_ref': 'TBD', '_srcid': 'CAKYAQ_clean', 'submitters': [{'name': 'Dalar Nazarian Jeff Camp and David Sholl', 'email': 'dalar@gatech.edu jcamp6@gatech.edu'}], '_method': 'VASP DFT with PBE;DDEC'}
data_MgH2(CO2)2
_symmetry_space_group_name_H-M   'P 1'
_cell_length_a   9.84700000
_cell_length_b   11.32399990
_cell_length_c   14.62300000
_cell_angle_alpha   91.15000008
_cell_angle_beta   90.00000000
_cell_angle_gamma   90.00000000
_symmetry_Int_Tables_number   1
_chemical_formula_structural   MgH2(CO2)2
_chemical_formula_sum   'Mg12 H24 C24 O48'
_cell_volume   1630.24467234
_cell_formula_units_Z   12
loop_
 _symmetry_equiv_pos_site_id
 _symmetry_equiv_pos_as_xyz
  1  'x, y, z'
loop_
 _atom_site_label
 _atom_site_fract_x
 _atom_site_fract_y
 _atom_site_fract_z
 _atom_site_charge
 Mg 0.57832 0.74371 0.3653   1.521238
 Mg 0.38799 0.76038 0.19024   1.497695
 Mg 0.07832 0.75629 0.1347   1.521238
 Mg 0.88799 0.73962 0.30976   1.497695
 Mg 0.42168 0.25629 0.6347   1.521238
 Mg 0.61201 0.23962 0.80976   1.497695
 Mg 0.92168 0.24371 0.8653   1.521238
 Mg 0.11201 0.26038 0.69024   1.497695
 Mg 0.5 0.0 0.5   1.490995
 Mg 0.0 0.5 0.0   1.490995
 Mg 0.5 0.5 0.5   1.504977
 Mg 0.0 0.0 0.0   1.504977
 H 0.4627 0.0233 0.2381   0.002022
 H 0.879 0.9353 0.4592   -0.004447
 H 0.7936 0.5088 0.4848   -0.004913
 H 0.7378 0.639 0.1322   -0.013307
 H 0.3443 0.8007 0.5698   -0.006141
 H 0.3065 0.5209 0.2716   -0.010702
 H 0.9627 0.4767 0.2619   0.002022
 H 0.379 0.5647 0.0408   -0.004447
 H 0.2936 0.9912 0.0152   -0.004913
 H 0.2378 0.861 0.3678   -0.013307
 H 0.8443 0.6993 0.9302   -0.006141
 H 0.8065 0.9791 0.2284   -0.010702
 H 0.5373 0.9767 0.7619   0.002021
 H 0.121 0.0647 0.5408   -0.004446
 H 0.2064 0.4912 0.5152   -0.004913
 H 0.2622 0.361 0.8678   -0.013307
 H 0.6557 0.1993 0.4302   -0.006142
 H 0.6935 0.4791 0.7284   -0.010702
 H 0.0373 0.5233 0.7381   0.002021
 H 0.621 0.4353 0.9592   -0.004446
 H 0.7064 0.0088 0.9848   -0.004913
 H 0.7622 0.139 0.6322   -0.013307
 H 0.1557 0.3007 0.0698   -0.006142
 H 0.1935 0.0209 0.7716   -0.010702
 C 0.48367 0.98051 0.28985   0.753556
 C 0.78695 0.92146 0.44978   0.755159
 C 0.77534 0.56946 0.44467   0.765761
 C 0.66934 0.66979 0.16953   0.762449
 C 0.39919 0.75793 0.52931   0.771456
 C 0.36787 0.54842 0.31546   0.756696
 C 0.98367 0.51949 0.21015   0.753556
 C 0.28695 0.57854 0.05022   0.755159
 C 0.27534 0.93054 0.05533   0.765761
 C 0.16934 0.83021 0.33047   0.762449
 C 0.89919 0.74207 0.97069   0.771456
 C 0.86787 0.95158 0.18454   0.756696
 C 0.51633 0.01949 0.71015   0.753556
 C 0.21305 0.07854 0.55022   0.755159
 C 0.22466 0.43054 0.55533   0.765761
 C 0.33066 0.33021 0.83047   0.762449
 C 0.60081 0.24207 0.47069   0.771456
 C 0.63213 0.45158 0.68454   0.756696
 C 0.01633 0.48051 0.78985   0.753556
 C 0.71305 0.42146 0.94978   0.755159
 C 0.72466 0.06946 0.94467   0.765761
 C 0.83066 0.16979 0.66953   0.762449
 C 0.10081 0.25793 0.02931   0.771456
 C 0.13213 0.04842 0.81546   0.756696
 O 0.49307 0.86892 0.27995   -0.827128
 O 0.49995 0.03721 0.36239   -0.680094
 O 0.75524 0.84338 0.38873   -0.828012
 O 0.70696 0.98001 0.49729   -0.66547
 O 0.65166 0.60158 0.43729   -0.828489
 O 0.87328 0.61156 0.40343   -0.690465
 O 0.69984 0.69248 0.25335   -0.823048
 O 0.55678 0.68521 0.13388   -0.680243
 O 0.4738 0.81702 0.47491   -0.837015
 O 0.39395 0.64958 0.53265   -0.686526
 O 0.41792 0.65064 0.30373   -0.827327
 O 0.39289 0.4825 0.37925   -0.67069
 O 0.99307 0.63108 0.22005   -0.827128
 O 0.99995 0.46279 0.13761   -0.680094
 O 0.25524 0.65662 0.11127   -0.828012
 O 0.20696 0.51999 0.00271   -0.665469
 O 0.15166 0.89842 0.06271   -0.828489
 O 0.37328 0.88844 0.09657   -0.690465
 O 0.19984 0.80752 0.24665   -0.823048
 O 0.05678 0.81479 0.36612   -0.680243
 O 0.9738 0.68298 0.02509   -0.837015
 O 0.89395 0.85042 0.96735   -0.686526
 O 0.91792 0.84936 0.19627   -0.827327
 O 0.89289 0.0175 0.12075   -0.67069
 O 0.50693 0.13108 0.72005   -0.827128
 O 0.50005 0.96279 0.63761   -0.680094
 O 0.24476 0.15662 0.61127   -0.828012
 O 0.29304 0.01999 0.50271   -0.665469
 O 0.34834 0.39842 0.56271   -0.828489
 O 0.12672 0.38844 0.59657   -0.690465
 O 0.30016 0.30752 0.74665   -0.823048
 O 0.44322 0.31479 0.86612   -0.680243
 O 0.5262 0.18298 0.52509   -0.837015
 O 0.60605 0.35042 0.46735   -0.686526
 O 0.58208 0.34936 0.69627   -0.827327
 O 0.60711 0.5175 0.62075   -0.67069
 O 0.00693 0.36892 0.77995   -0.827128
 O 5.00000000017e-05 0.53721 0.86239   -0.680094
 O 0.74476 0.34338 0.88873   -0.828012
 O 0.79304 0.48001 0.99729   -0.665469
 O 0.84834 0.10158 0.93729   -0.828489
 O 0.62672 0.11156 0.90343   -0.690465
 O 0.80016 0.19248 0.75335   -0.823048
 O 0.94322 0.18521 0.63388   -0.680243
 O 0.0262 0.31702 0.97491   -0.837015
 O 0.10605 0.14958 0.03265   -0.686526
 O 0.08208 0.15064 0.80373   -0.827327
 O 0.10711 0.9825 0.87925   -0.67069
