{'_ref': 'TBD', '_srcid': 'CAKYAQ_clean', 'submitters': [{'name': 'Dalar Nazarian Jeff Camp and David Sholl', 'email': 'dalar@gatech.edu jcamp6@gatech.edu'}], '_method': 'VASP DFT with PBE;DDEC'}
data_MgH2(CO2)2
_symmetry_space_group_name_H-M   'P 1'
_cell_length_a   9.88500000
_cell_length_b   11.35900002
_cell_length_c   14.58400000
_cell_angle_alpha   91.36999853
_cell_angle_beta   90.00000000
_cell_angle_gamma   90.00000000
_symmetry_Int_Tables_number   1
_chemical_formula_structural   MgH2(CO2)2
_chemical_formula_sum   'Mg12 H24 C24 O48'
_cell_volume   1637.07760282
_cell_formula_units_Z   12
loop_
 _symmetry_equiv_pos_site_id
 _symmetry_equiv_pos_as_xyz
  1  'x, y, z'
loop_
 _atom_site_label
 _atom_site_fract_x
 _atom_site_fract_y
 _atom_site_fract_z
 _atom_site_charge
 Mg 0.92237 0.74376 0.86531   1.518105
 Mg 0.11316 0.76033 0.69071   1.497751
 Mg 0.42237 0.75624 0.63469   1.518105
 Mg 0.61316 0.73967 0.80929   1.497751
 Mg 0.07763 0.25624 0.13469   1.518105
 Mg 0.88684 0.23967 0.30929   1.497751
 Mg 0.57763 0.24376 0.36531   1.518105
 Mg 0.38684 0.26033 0.19071   1.497751
 Mg 0.0 0.0 0.0   1.488743
 Mg 0.5 0.5 0.5   1.488743
 Mg 0.0 0.5 0.0   1.505206
 Mg 0.5 0.0 0.5   1.505206
 H 0.0408 0.023 0.7378   0.000308
 H 0.6205 0.9358 0.9579   -0.003941
 H 0.763 0.6393 0.6311   -0.010701
 H 0.7064 0.5075 0.9843   -0.001201
 H 0.1953 0.521 0.7716   -0.009827
 H 0.1552 0.8008 0.0714   -0.003794
 H 0.5408 0.477 0.7622   0.000308
 H 0.1205 0.5642 0.5421   -0.003941
 H 0.263 0.8607 0.8689   -0.010701
 H 0.2064 0.9925 0.5157   -0.001201
 H 0.6953 0.979 0.7284   -0.009827
 H 0.6552 0.6992 0.4286   -0.003794
 H 0.9592 0.977 0.2622   0.000308
 H 0.3795 0.0642 0.0421   -0.003941
 H 0.237 0.3607 0.3689   -0.010701
 H 0.2936 0.4925 0.0157   -0.001201
 H 0.8047 0.479 0.2284   -0.009827
 H 0.8448 0.1992 0.9286   -0.003795
 H 0.4592 0.523 0.2378   0.000308
 H 0.8795 0.4358 0.4579   -0.003941
 H 0.737 0.1393 0.1311   -0.010701
 H 0.7936 0.0075 0.4843   -0.001201
 H 0.3047 0.021 0.2716   -0.009827
 H 0.3448 0.3008 0.5714   -0.003795
 C 0.01842 0.97992 0.79074   0.7545
 C 0.71421 0.92138 0.94863   0.752911
 C 0.83241 0.67052 0.66969   0.758815
 C 0.72529 0.56956 0.94372   0.756405
 C 0.13227 0.54903 0.81618   0.75206
 C 0.09956 0.75738 0.02966   0.764365
 C 0.51842 0.52008 0.70926   0.7545
 C 0.21421 0.57862 0.55137   0.752911
 C 0.33241 0.82948 0.83031   0.758815
 C 0.22529 0.93044 0.55628   0.756405
 C 0.63227 0.95097 0.68382   0.75206
 C 0.59956 0.74262 0.47034   0.764365
 C 0.98158 0.02008 0.20926   0.7545
 C 0.28579 0.07862 0.05137   0.75291
 C 0.16759 0.32948 0.33031   0.758815
 C 0.27471 0.43044 0.05628   0.756404
 C 0.86773 0.45097 0.18382   0.75206
 C 0.90044 0.24262 0.97034   0.764365
 C 0.48158 0.47992 0.29074   0.7545
 C 0.78579 0.42138 0.44863   0.75291
 C 0.66759 0.17052 0.16969   0.758815
 C 0.77471 0.06956 0.44372   0.756404
 C 0.36773 0.04903 0.31618   0.75206
 C 0.40044 0.25738 0.52966   0.764365
 O 0.00857 0.8692 0.78057   -0.830094
 O 0.74557 0.84327 0.88837   -0.824533
 O 0.80143 0.69296 0.75291   -0.81786
 O 0.84887 0.60145 0.93704   -0.827704
 O 0.08267 0.65063 0.80396   -0.824345
 O 0.02597 0.81688 0.97517   -0.837045
 O 0.00178 0.03668 0.86237   -0.675779
 O 0.7934 0.98016 0.99609   -0.6673
 O 0.62839 0.61152 0.90268   -0.683919
 O 0.1073 0.48324 0.87961   -0.669175
 O 0.10484 0.64991 0.03291   -0.68164
 O 0.94474 0.68562 0.6344   -0.683337
 O 0.50857 0.6308 0.71943   -0.830094
 O 0.24557 0.65673 0.61163   -0.824533
 O 0.30143 0.80704 0.74709   -0.81786
 O 0.34887 0.89855 0.56296   -0.827704
 O 0.58267 0.84937 0.69604   -0.824345
 O 0.52597 0.68312 0.52483   -0.837045
 O 0.50178 0.46332 0.63763   -0.675779
 O 0.2934 0.51984 0.50391   -0.6673
 O 0.12839 0.88848 0.59732   -0.683919
 O 0.6073 0.01676 0.62039   -0.669175
 O 0.60484 0.85009 0.46709   -0.68164
 O 0.44474 0.81438 0.8656   -0.683337
 O 0.99143 0.1308 0.21943   -0.830094
 O 0.25443 0.15673 0.11163   -0.824532
 O 0.19857 0.30704 0.24709   -0.81786
 O 0.15113 0.39855 0.06296   -0.827704
 O 0.91733 0.34937 0.19604   -0.824345
 O 0.97403 0.18312 0.02483   -0.837045
 O 0.99822 0.96332 0.13763   -0.675779
 O 0.2066 0.01984 0.00391   -0.6673
 O 0.37161 0.38848 0.09732   -0.683919
 O 0.8927 0.51676 0.12039   -0.669175
 O 0.89516 0.35009 0.96709   -0.68164
 O 0.05526 0.31438 0.3656   -0.683337
 O 0.49143 0.3692 0.28057   -0.830094
 O 0.75443 0.34327 0.38837   -0.824532
 O 0.69857 0.19296 0.25291   -0.81786
 O 0.65113 0.10145 0.43704   -0.827704
 O 0.41733 0.15063 0.30396   -0.824345
 O 0.47403 0.31688 0.47517   -0.837045
 O 0.49822 0.53668 0.36237   -0.675779
 O 0.7066 0.48016 0.49609   -0.6673
 O 0.87161 0.11152 0.40268   -0.683919
 O 0.3927 0.98324 0.37961   -0.669175
 O 0.39516 0.14991 0.53291   -0.68164
 O 0.55526 0.18562 0.1344   -0.683337
