{'_ref': 'TBD', '_srcid': 'CAKYAQ_clean', 'submitters': [{'name': 'Dalar Nazarian Jeff Camp and David Sholl', 'email': 'dalar@gatech.edu jcamp6@gatech.edu'}], '_method': 'VASP DFT with PBE;DDEC'}
data_CuH10(C4N3)2
_symmetry_space_group_name_H-M   'P 1'
_cell_length_a   6.96760000
_cell_length_b   17.41130000
_cell_length_c   18.62780000
_cell_angle_alpha   90.00000000
_cell_angle_beta   90.00000000
_cell_angle_gamma   90.00000000
_symmetry_Int_Tables_number   1
_chemical_formula_structural   CuH10(C4N3)2
_chemical_formula_sum   'Cu4 H40 C32 N24'
_cell_volume   2259.83107044
_cell_formula_units_Z   4
loop_
 _symmetry_equiv_pos_site_id
 _symmetry_equiv_pos_as_xyz
  1  'x, y, z'
loop_
 _atom_site_label
 _atom_site_fract_x
 _atom_site_fract_y
 _atom_site_fract_z
 _atom_site_charge
 Cu 0.70779 0.25064 0.00822   0.253338
 Cu 0.79221 0.74936 0.50822   0.253339
 Cu 0.29221 0.75064 0.49178   0.253357
 Cu 0.20779 0.24936 0.99178   0.253357
 H 0.7855 0.5891 0.6022   0.093986
 H 0.3505 0.5938 0.583   0.088715
 H 0.2137 0.4012 0.8883   0.095433
 H 0.6523 0.406 0.923   0.083854
 H 0.9968 0.5343 0.8558   0.005204
 H 0.7738 0.5145 0.8461   0.02079
 H 0.8744 0.4292 0.7451   0.076314
 H 0.1373 0.5493 0.7454   0.067747
 H 0.2155 0.4693 0.6383   0.014022
 H 0.9885 0.4564 0.6303   0.013276
 H 0.7145 0.4109 0.1022   0.093987
 H 0.1495 0.4062 0.083   0.088716
 H 0.2863 0.5988 0.3883   0.095434
 H 0.8477 0.594 0.423   0.083852
 H 0.5032 0.4657 0.3558   0.005196
 H 0.7262 0.4855 0.3461   0.020786
 H 0.6256 0.5708 0.2451   0.076314
 H 0.3627 0.4507 0.2454   0.067747
 H 0.2845 0.5307 0.1383   0.014015
 H 0.5115 0.5436 0.1303   0.01327
 H 0.2145 0.0891 0.8978   0.093986
 H 0.6495 0.0938 0.917   0.088715
 H 0.7863 0.9012 0.6117   0.095433
 H 0.3477 0.906 0.577   0.083854
 H 0.0032 0.0343 0.6442   0.005197
 H 0.2262 0.0145 0.6539   0.020787
 H 0.1256 0.9292 0.7549   0.07631
 H 0.8627 0.0493 0.7546   0.067745
 H 0.7845 0.9693 0.8617   0.014018
 H 0.0115 0.9564 0.8697   0.013272
 H 0.2855 0.9109 0.3978   0.093987
 H 0.8505 0.9062 0.417   0.088716
 H 0.7137 0.0988 0.1117   0.095434
 H 0.1523 0.094 0.077   0.083852
 H 0.4968 0.9657 0.1442   0.00519
 H 0.2738 0.9855 0.1539   0.020783
 H 0.3744 0.0708 0.2549   0.07631
 H 0.6373 0.9507 0.2546   0.067745
 H 0.7155 0.0307 0.3617   0.014012
 H 0.4885 0.0436 0.3697   0.013266
 C 0.912 0.60467 0.58988   0.039306
 C 0.2187 0.60726 0.57936   0.017018
 C 0.0892 0.3885 0.90535   0.026469
 C 0.7835 0.39117 0.92435   0.023964
 C 0.9054 0.49362 0.8415   0.07125
 C 0.9414 0.47178 0.76488   -0.202554
 C 0.0627 0.50963 0.7243   -0.19067
 C 0.0882 0.49296 0.64656   0.072621
 C 0.588 0.39533 0.08988   0.039294
 C 0.2813 0.39274 0.07936   0.016997
 C 0.4108 0.6115 0.40535   0.026447
 C 0.7165 0.60883 0.42435   0.023953
 C 0.5946 0.50638 0.3415   0.071253
 C 0.5586 0.52822 0.26488   -0.202554
 C 0.4373 0.49037 0.2243   -0.190671
 C 0.4118 0.50704 0.14656   0.072624
 C 0.088 0.10467 0.91012   0.039307
 C 0.7813 0.10726 0.92064   0.017018
 C 0.9108 0.8885 0.59465   0.026469
 C 0.2165 0.89117 0.57565   0.023965
 C 0.0946 0.99362 0.6585   0.071252
 C 0.0586 0.97178 0.73512   -0.202553
 C 0.9373 0.00963 0.7757   -0.19067
 C 0.9118 0.99296 0.85344   0.072623
 C 0.412 0.89533 0.41012   0.039295
 C 0.7187 0.89274 0.42064   0.016996
 C 0.5892 0.1115 0.09465   0.026446
 C 0.2835 0.10883 0.07565   0.023954
 C 0.4054 0.00638 0.1585   0.071255
 C 0.4414 0.02822 0.23512   -0.202554
 C 0.5627 0.99037 0.2757   -0.190671
 C 0.5882 0.00704 0.35344   0.072626
 N 0.9566 0.66796 0.55518   -0.164895
 N 0.0728 0.56555 0.60518   0.003596
 N 0.0476 0.33036 0.94788   -0.154603
 N 0.9272 0.42696 0.88995   0.004615
 N 0.1523 0.66991 0.54815   -0.1805
 N 0.853 0.3325 0.96015   -0.178262
 N 0.5434 0.33204 0.05518   -0.164894
 N 0.4272 0.43445 0.10518   0.003598
 N 0.4524 0.66964 0.44788   -0.154601
 N 0.5728 0.57304 0.38995   0.004618
 N 0.3477 0.33009 0.04815   -0.180497
 N 0.647 0.6675 0.46015   -0.178262
 N 0.0434 0.16796 0.94482   -0.164898
 N 0.9272 0.06555 0.89482   0.003596
 N 0.9524 0.83036 0.55212   -0.1546
 N 0.0728 0.92696 0.61005   0.004615
 N 0.8477 0.16991 0.95185   -0.180496
 N 0.147 0.8325 0.53985   -0.178263
 N 0.4566 0.83204 0.44482   -0.164897
 N 0.5728 0.93445 0.39482   0.003598
 N 0.5476 0.16964 0.05212   -0.154597
 N 0.4272 0.07304 0.11005   0.004617
 N 0.6523 0.83009 0.45185   -0.180493
 N 0.353 0.1675 0.03985   -0.178263
