{'_ref': 'TBD', '_srcid': 'CAKYAQ_clean', 'submitters': [{'name': 'Dalar Nazarian Jeff Camp and David Sholl', 'email': 'dalar@gatech.edu jcamp6@gatech.edu'}], '_method': 'VASP DFT with PBE;DDEC'}
data_InH6C12O5
_symmetry_space_group_name_H-M   'P 1'
_cell_length_a   7.18120000
_cell_length_b   21.89300000
_cell_length_c   21.89300000
_cell_angle_alpha   90.00000000
_cell_angle_beta   90.00000000
_cell_angle_gamma   90.00000000
_symmetry_Int_Tables_number   1
_chemical_formula_structural   InH6C12O5
_chemical_formula_sum   'In8 H48 C96 O40'
_cell_volume   3441.97392796
_cell_formula_units_Z   8
loop_
 _symmetry_equiv_pos_site_id
 _symmetry_equiv_pos_as_xyz
  1  'x, y, z'
loop_
 _atom_site_label
 _atom_site_fract_x
 _atom_site_fract_y
 _atom_site_fract_z
 _atom_site_charge
 In 0.0 0.5 0.5   1.631066
 In 0.0 0.0 0.0   1.631066
 In 0.0 0.0 0.5   1.631066
 In 0.0 0.5 0.0   1.631066
 In 0.5 0.5 0.5   1.667045
 In 0.5 0.0 0.0   1.667045
 In 0.5 0.0 0.5   1.667045
 In 0.5 0.5 0.0   1.667045
 H 0.4885 0.3033 0.4836   0.124996
 H 0.0412 0.3548 0.5855   0.094117
 H 0.3056 0.3027 0.6173   0.111363
 H 0.4885 0.1967 0.0164   0.124996
 H 0.0412 0.1452 0.9145   0.094117
 H 0.3056 0.1973 0.8827   0.111363
 H 0.4885 0.0164 0.3033   0.124996
 H 0.0412 0.9145 0.3548   0.094117
 H 0.3056 0.8827 0.3027   0.111363
 H 0.4885 0.4836 0.1967   0.124996
 H 0.0412 0.5855 0.1452   0.094117
 H 0.3056 0.6173 0.1973   0.111363
 H 0.5115 0.6967 0.9836   0.124996
 H 0.9588 0.6452 0.0855   0.094117
 H 0.6944 0.6973 0.1173   0.111363
 H 0.5115 0.8033 0.5164   0.124996
 H 0.9588 0.8548 0.4145   0.094117
 H 0.6944 0.8027 0.3827   0.111363
 H 0.5115 0.9836 0.8033   0.124996
 H 0.9588 0.0855 0.8548   0.094117
 H 0.6944 0.1173 0.8027   0.111363
 H 0.5115 0.5164 0.6967   0.124996
 H 0.9588 0.4145 0.6452   0.094117
 H 0.6944 0.3827 0.6973   0.111363
 H 0.5115 0.6967 0.5164   0.124995
 H 0.9588 0.6452 0.4145   0.094118
 H 0.6944 0.6973 0.3827   0.11136
 H 0.5115 0.8033 0.9836   0.124995
 H 0.9588 0.8548 0.0855   0.094118
 H 0.6944 0.8027 0.1173   0.11136
 H 0.5115 0.9836 0.6967   0.124995
 H 0.9588 0.0855 0.6452   0.094118
 H 0.6944 0.1173 0.6973   0.11136
 H 0.5115 0.5164 0.8033   0.124995
 H 0.9588 0.4145 0.8548   0.094118
 H 0.6944 0.3827 0.8027   0.11136
 H 0.4885 0.3033 0.0164   0.124995
 H 0.0412 0.3548 0.9145   0.094118
 H 0.3056 0.3027 0.8827   0.111361
 H 0.4885 0.1967 0.4836   0.124995
 H 0.0412 0.1452 0.5855   0.094118
 H 0.3056 0.1973 0.6173   0.111361
 H 0.4885 0.0164 0.1967   0.124995
 H 0.0412 0.9145 0.1452   0.094118
 H 0.3056 0.8827 0.1973   0.111361
 H 0.4885 0.4836 0.3033   0.124995
 H 0.0412 0.5855 0.3548   0.094118
 H 0.3056 0.6173 0.3027   0.111361
 C 0.7394 0.3817 0.5124   0.739557
 C 0.7445 0.3143 0.5214   -0.126112
 C 0.5909 0.2821 0.4987   -0.056536
 C 0.8962 0.2835 0.5488   0.040319
 C 0.0468 0.3127 0.5799   -0.057551
 C 0.2033 0.2812 0.6025   -0.088391
 C 0.7394 0.1183 0.9876   0.739557
 C 0.7445 0.1857 0.9786   -0.126112
 C 0.5909 0.2179 0.0013   -0.056536
 C 0.8962 0.2165 0.9512   0.040319
 C 0.0468 0.1873 0.9201   -0.057551
 C 0.2033 0.2188 0.8975   -0.088391
 C 0.7394 0.9876 0.3817   0.739557
 C 0.7445 0.9786 0.3143   -0.126112
 C 0.5909 0.0013 0.2821   -0.056536
 C 0.8962 0.9512 0.2835   0.040319
 C 0.0468 0.9201 0.3127   -0.057551
 C 0.2033 0.8975 0.2812   -0.088391
 C 0.7394 0.5124 0.1183   0.739557
 C 0.7445 0.5214 0.1857   -0.126112
 C 0.5909 0.4987 0.2179   -0.056536
 C 0.8962 0.5488 0.2165   0.040319
 C 0.0468 0.5799 0.1873   -0.057551
 C 0.2033 0.6025 0.2188   -0.088391
 C 0.2606 0.6183 0.0124   0.739557
 C 0.2555 0.6857 0.0214   -0.126112
 C 0.4091 0.7179 0.9987   -0.056536
 C 0.1038 0.7165 0.0488   0.040319
 C 0.9532 0.6873 0.0799   -0.05755
 C 0.7967 0.7188 0.1025   -0.088391
 C 0.2606 0.8817 0.4876   0.739557
 C 0.2555 0.8143 0.4786   -0.126112
 C 0.4091 0.7821 0.5013   -0.056536
 C 0.1038 0.7835 0.4512   0.040319
 C 0.9532 0.8127 0.4201   -0.05755
 C 0.7967 0.7812 0.3975   -0.08839
 C 0.2606 0.0124 0.8817   0.739557
 C 0.2555 0.0214 0.8143   -0.126112
 C 0.4091 0.9987 0.7821   -0.056536
 C 0.1038 0.0488 0.7835   0.040319
 C 0.9532 0.0799 0.8127   -0.05755
 C 0.7967 0.1025 0.7812   -0.088391
 C 0.2606 0.4876 0.6183   0.739557
 C 0.2555 0.4786 0.6857   -0.126112
 C 0.4091 0.5013 0.7179   -0.056536
 C 0.1038 0.4512 0.7165   0.040319
 C 0.9532 0.4201 0.6873   -0.05755
 C 0.7967 0.3975 0.7188   -0.08839
 C 0.2606 0.6183 0.4876   0.739557
 C 0.2555 0.6857 0.4786   -0.126112
 C 0.4091 0.7179 0.5013   -0.05654
 C 0.1038 0.7165 0.4512   0.040321
 C 0.9532 0.6873 0.4201   -0.057558
 C 0.7967 0.7188 0.3975   -0.088352
 C 0.2606 0.8817 0.0124   0.739557
 C 0.2555 0.8143 0.0214   -0.126112
 C 0.4091 0.7821 0.9987   -0.05654
 C 0.1038 0.7835 0.0488   0.040321
 C 0.9532 0.8127 0.0799   -0.057558
 C 0.7967 0.7812 0.1025   -0.088352
 C 0.2606 0.0124 0.6183   0.739557
 C 0.2555 0.0214 0.6857   -0.126112
 C 0.4091 0.9987 0.7179   -0.05654
 C 0.1038 0.0488 0.7165   0.040321
 C 0.9532 0.0799 0.6873   -0.057558
 C 0.7967 0.1025 0.7188   -0.088352
 C 0.2606 0.4876 0.8817   0.739557
 C 0.2555 0.4786 0.8143   -0.126112
 C 0.4091 0.5013 0.7821   -0.05654
 C 0.1038 0.4512 0.7835   0.040321
 C 0.9532 0.4201 0.8127   -0.057558
 C 0.7967 0.3975 0.7812   -0.088352
 C 0.7394 0.3817 0.9876   0.739557
 C 0.7445 0.3143 0.9786   -0.126112
 C 0.5909 0.2821 0.0013   -0.05654
 C 0.8962 0.2835 0.9512   0.040321
 C 0.0468 0.3127 0.9201   -0.057558
 C 0.2033 0.2812 0.8975   -0.088352
 C 0.7394 0.1183 0.5124   0.739557
 C 0.7445 0.1857 0.5214   -0.126112
 C 0.5909 0.2179 0.4987   -0.05654
 C 0.8962 0.2165 0.5488   0.040321
 C 0.0468 0.1873 0.5799   -0.057558
 C 0.2033 0.2188 0.6025   -0.088352
 C 0.7394 0.9876 0.1183   0.739557
 C 0.7445 0.9786 0.1857   -0.126112
 C 0.5909 0.0013 0.2179   -0.05654
 C 0.8962 0.9512 0.2165   0.040321
 C 0.0468 0.9201 0.1873   -0.057558
 C 0.2033 0.8975 0.2188   -0.088352
 C 0.7394 0.5124 0.3817   0.739557
 C 0.7445 0.5214 0.3143   -0.126112
 C 0.5909 0.4987 0.2821   -0.05654
 C 0.8962 0.5488 0.2835   0.040321
 C 0.0468 0.5799 0.3127   -0.057558
 C 0.2033 0.6025 0.2812   -0.088352
 O 0.5946 0.4074 0.5077   -0.61199
 O 0.8966 0.4074 0.5095   -0.641995
 O 0.5946 0.0926 0.9923   -0.61199
 O 0.8966 0.0926 0.9905   -0.641995
 O 0.5946 0.9923 0.4074   -0.61199
 O 0.8966 0.9905 0.4074   -0.641995
 O 0.5946 0.5077 0.0926   -0.61199
 O 0.8966 0.5095 0.0926   -0.641995
 O 0.4054 0.5926 0.0077   -0.61199
 O 0.1034 0.5926 0.0095   -0.641995
 O 0.4054 0.9074 0.4923   -0.61199
 O 0.1034 0.9074 0.4905   -0.641995
 O 0.4054 0.0077 0.9074   -0.61199
 O 0.1034 0.0095 0.9074   -0.641995
 O 0.4054 0.4923 0.5926   -0.61199
 O 0.1034 0.4905 0.5926   -0.641995
 O 0.4054 0.5926 0.4923   -0.61199
 O 0.1034 0.5926 0.4905   -0.641995
 O 0.4054 0.9074 0.0077   -0.61199
 O 0.1034 0.9074 0.0095   -0.641995
 O 0.4054 0.0077 0.5926   -0.61199
 O 0.1034 0.0095 0.5926   -0.641995
 O 0.4054 0.4923 0.9074   -0.61199
 O 0.1034 0.4905 0.9074   -0.641995
 O 0.5946 0.4074 0.9923   -0.61199
 O 0.8966 0.4074 0.9905   -0.641995
 O 0.5946 0.0926 0.5077   -0.61199
 O 0.8966 0.0926 0.5095   -0.641995
 O 0.5946 0.9923 0.0926   -0.61199
 O 0.8966 0.9905 0.0926   -0.641995
 O 0.5946 0.5077 0.4074   -0.61199
 O 0.8966 0.5095 0.4074   -0.641995
 O 0.7455 0.5342 0.5342   -0.704639
 O 0.7455 0.9658 0.9658   -0.704639
 O 0.7455 0.9658 0.5342   -0.704639
 O 0.7455 0.5342 0.9658   -0.704639
 O 0.2545 0.4658 0.0342   -0.704639
 O 0.2545 0.0342 0.4658   -0.704639
 O 0.2545 0.0342 0.0342   -0.704639
 O 0.2545 0.4658 0.4658   -0.704639
