{'_ref': 'TBD', '_srcid': 'CAKYAQ_clean', 'submitters': [{'name': 'Dalar Nazarian Jeff Camp and David Sholl', 'email': 'dalar@gatech.edu jcamp6@gatech.edu'}], '_method': 'VASP DFT with PBE;DDEC'}
data_MnH16(C11O4)2
_symmetry_space_group_name_H-M   'P 1'
_cell_length_a   13.43190033
_cell_length_b   16.21600021
_cell_length_c   16.29110000
_cell_angle_alpha   108.09899989
_cell_angle_beta   102.65200048
_cell_angle_gamma   106.18800063
_symmetry_Int_Tables_number   1
_chemical_formula_structural   MnH16(C11O4)2
_chemical_formula_sum   'Mn3 H48 C66 O24'
_cell_volume   3052.13974089
_cell_formula_units_Z   3
loop_
 _symmetry_equiv_pos_site_id
 _symmetry_equiv_pos_as_xyz
  1  'x, y, z'
loop_
 _atom_site_label
 _atom_site_fract_x
 _atom_site_fract_y
 _atom_site_fract_z
 _atom_site_charge
 Mn 0.20488 0.37799 0.39936   1.20777
 Mn 0.79512 0.62201 0.60064   1.20777
 Mn 0.5 0.5 0.5   1.290537
 H 0.3298 0.108 0.8746   0.068593
 H 0.4455 0.1888 0.9431   0.070238
 H 0.5405 0.3299 0.2506   0.090827
 H 0.5514 0.2239 0.1191   0.120542
 H 0.2241 0.0954 0.0272   0.132718
 H 0.5379 0.2177 0.7039   0.134751
 H 0.2031 0.6416 0.6306   0.103836
 H 0.5177 0.3051 0.6172   0.105097
 H 0.611 0.0542 0.8822   0.07323
 H 0.5598 0.0537 0.9624   0.05863
 H 0.5253 0.0954 0.7575   0.069845
 H 0.525 0.1892 0.8294   0.066971
 H 0.2662 0.7993 0.7259   0.113603
 H 0.7269 0.0824 0.0401   0.114142
 H 0.4601 0.6952 0.5376   0.08808
 H 0.5253 0.8507 0.6357   0.140059
 H 0.8823 0.1442 0.1696   0.098313
 H 0.3191 0.9606 0.7683   0.07589
 H 0.3862 0.9374 0.8471   0.06519
 H 0.2155 0.1989 0.1571   0.098408
 H 0.7526 0.3437 0.0682   0.137172
 H 0.9148 0.4057 0.1927   0.111502
 H 0.2095 0.107 0.6371   0.139452
 H 0.1883 0.1985 0.5542   0.110595
 H 0.6702 0.892 0.1254   0.068593
 H 0.5545 0.8112 0.0569   0.070238
 H 0.4595 0.6701 0.7494   0.090827
 H 0.4486 0.7761 0.8809   0.120542
 H 0.7759 0.9046 0.9728   0.132717
 H 0.4621 0.7823 0.2961   0.134752
 H 0.7969 0.3584 0.3694   0.103836
 H 0.4823 0.6949 0.3828   0.105097
 H 0.389 0.9458 0.1178   0.07323
 H 0.4402 0.9463 0.0376   0.05863
 H 0.4747 0.9046 0.2425   0.069845
 H 0.475 0.8108 0.1706   0.066971
 H 0.7338 0.2007 0.2741   0.113603
 H 0.2731 0.9176 0.9599   0.114142
 H 0.5399 0.3048 0.4624   0.08808
 H 0.4747 0.1493 0.3643   0.140059
 H 0.1177 0.8558 0.8304   0.098313
 H 0.6809 0.0394 0.2317   0.07589
 H 0.6138 0.0626 0.1529   0.06519
 H 0.7845 0.8011 0.8429   0.098408
 H 0.2474 0.6563 0.9318   0.137172
 H 0.0852 0.5943 0.8073   0.111503
 H 0.7905 0.893 0.3629   0.139452
 H 0.8117 0.8015 0.4458   0.110595
 C 0.3689 0.3451 0.2997   0.73221
 C 0.404 0.1203 0.9146   0.065382
 C 0.475 0.2823 0.2048   0.02352
 C 0.4819 0.2184 0.1264   -0.250216
 C 0.3885 0.1489 0.0612   0.298944
 C 0.2899 0.143 0.0726   -0.250964
 C 0.4668 0.2143 0.674   -0.286246
 C 0.3749 0.1577 0.6818   0.314947
 C 0.7255 0.2087 0.0424   0.303095
 C 0.3259 0.6515 0.5745   -0.219491
 C 0.2686 0.6842 0.6314   0.041066
 C 0.4629 0.0728 0.858   -0.037162
 C 0.4542 0.2658 0.6223   0.033101
 C 0.5716 0.084 0.9193   0.066322
 C 0.4827 0.1214 0.7938   0.069181
 C 0.3063 0.7777 0.6885   -0.270523
 C 0.764 0.1482 0.0719   -0.277504
 C 0.4023 0.8393 0.691   0.314402
 C 0.4211 0.7157 0.5767   0.034785
 C 0.4595 0.8079 0.6344   -0.2539
 C 0.8569 0.1854 0.1482   0.016056
 C 0.0177 0.32 0.2748   0.638876
 C 0.9137 0.2799 0.194   -0.177452
 C 0.3781 0.2769 0.2157   -0.185982
 C 0.2863 0.5521 0.5161   0.694634
 C 0.34 0.3227 0.5263   0.717952
 C 0.3524 0.2621 0.5779   -0.212204
 C 0.3935 0.9694 0.8046   0.069512
 C 0.2849 0.2052 0.1494   0.011417
 C 0.7803 0.3027 0.088   -0.247589
 C 0.8758 0.3399 0.163   0.003519
 C 0.2727 0.1497 0.6349   -0.255137
 C 0.2597 0.2026 0.5843   0.011775
 C 0.6311 0.6549 0.7003   0.73221
 C 0.596 0.8797 0.0854   0.065382
 C 0.525 0.7177 0.7952   0.02352
 C 0.5181 0.7816 0.8736   -0.250216
 C 0.6115 0.8511 0.9388   0.298943
 C 0.7101 0.857 0.9274   -0.250964
 C 0.5332 0.7857 0.326   -0.286247
 C 0.6251 0.8423 0.3182   0.314948
 C 0.2745 0.7913 0.9576   0.303095
 C 0.6741 0.3485 0.4255   -0.219491
 C 0.7314 0.3158 0.3686   0.041066
 C 0.5371 0.9272 0.142   -0.037162
 C 0.5458 0.7342 0.3777   0.033101
 C 0.4284 0.916 0.0807   0.066322
 C 0.5173 0.8786 0.2062   0.069181
 C 0.6937 0.2223 0.3115   -0.270523
 C 0.236 0.8518 0.9281   -0.277504
 C 0.5977 0.1607 0.309   0.314403
 C 0.5789 0.2843 0.4233   0.034785
 C 0.5405 0.1921 0.3656   -0.2539
 C 0.1431 0.8146 0.8518   0.016056
 C 0.9823 0.68 0.7252   0.638876
 C 0.0863 0.7201 0.806   -0.177452
 C 0.6219 0.7231 0.7843   -0.185982
 C 0.7137 0.4479 0.4839   0.694634
 C 0.66 0.6773 0.4737   0.717952
 C 0.6476 0.7379 0.4221   -0.212204
 C 0.6065 0.0306 0.1954   0.069512
 C 0.7151 0.7948 0.8506   0.011417
 C 0.2197 0.6973 0.912   -0.247589
 C 0.1242 0.6601 0.837   0.003519
 C 0.7273 0.8503 0.3651   -0.255137
 C 0.7403 0.7974 0.4157   0.011775
 O 0.4564 0.40794 0.35825   -0.598416
 O 0.6348 0.18161 0.96881   -0.272427
 O 0.3941 0.08509 0.98599   -0.315118
 O 0.4483 0.93179 0.74545   -0.267208
 O 0.3777 0.10607 0.73426   -0.281142
 O 0.1966 0.49606 0.50984   -0.53436
 O 0.2759 0.3314 0.30401   -0.592102
 O 0.3412 0.52166 0.46698   -0.650032
 O 0.4257 0.38263 0.53183   -0.615374
 O 0.0382 0.2688 0.31463   -0.554287
 O 0.0842 0.4028 0.29838   -0.534726
 O 0.243 0.3089 0.48304   -0.561857
 O 0.5436 0.59206 0.64175   -0.598416
 O 0.3652 0.81839 0.03119   -0.272427
 O 0.6059 0.91491 0.01401   -0.315118
 O 0.5517 0.06821 0.25455   -0.267208
 O 0.6223 0.89393 0.26574   -0.281142
 O 0.8034 0.50394 0.49016   -0.53436
 O 0.7241 0.6686 0.69599   -0.592102
 O 0.6588 0.47834 0.53302   -0.650032
 O 0.5743 0.61737 0.46817   -0.615374
 O 0.9618 0.7312 0.68537   -0.554287
 O 0.9158 0.5972 0.70162   -0.534726
 O 0.757 0.6911 0.51696   -0.561857
