{'_ref': 'TBD', '_srcid': 'CAKYAQ_clean', 'submitters': [{'name': 'Dalar Nazarian Jeff Camp and David Sholl', 'email': 'dalar@gatech.edu jcamp6@gatech.edu'}], '_method': 'VASP DFT with PBE;DDEC'}
data_Zn3H52C64(N2O9)2
_symmetry_space_group_name_H-M   'P 1'
_cell_length_a   10.65489985
_cell_length_b   14.56380005
_cell_length_c   16.04350000
_cell_angle_alpha   99.78300043
_cell_angle_beta   102.39600055
_cell_angle_gamma   101.83399823
_symmetry_Int_Tables_number   1
_chemical_formula_structural   Zn3H52C64(N2O9)2
_chemical_formula_sum   'Zn3 H52 C64 N4 O18'
_cell_volume   2319.47838435
_cell_formula_units_Z   1
loop_
 _symmetry_equiv_pos_site_id
 _symmetry_equiv_pos_as_xyz
  1  'x, y, z'
loop_
 _atom_site_label
 _atom_site_fract_x
 _atom_site_fract_y
 _atom_site_fract_z
 _atom_site_charge
 Zn 0.2243 0.3751 0.47519   0.93794
 Zn 0.7757 0.6249 0.52481   0.93794
 Zn 0.0 0.5 0.5   1.11697
 H 0.099 0.6419 0.2988   0.095092
 H 0.4278 0.5503 0.337   0.087738
 H 0.0838 0.5124 0.7088   0.095119
 H 0.11 0.6059 0.8478   0.144075
 H 0.5098 0.6663 0.8854   0.133199
 H 0.4783 0.5797 0.7431   0.098761
 H 0.4105 0.0842 0.595   0.120579
 H 0.5479 0.0636 0.3862   0.108544
 H 0.6288 0.2572 0.4605   0.146258
 H 0.2713 0.1712 0.4935   0.099449
 H 0.5154 0.3851 0.4529   0.116593
 H 0.5111 0.6492 0.2546   0.130128
 H 0.7765 0.9855 0.2348   0.122378
 H 0.535 0.1602 0.2254   0.12518
 H 0.9415 0.1061 0.3322   0.093268
 H 0.7006 0.2819 0.3214   0.082051
 H 0.6055 0.9274 0.0862   0.046594
 H 0.5906 0.8744 0.1625   0.051937
 H 0.2496 0.7667 0.0917   0.060567
 H 0.3217 0.8581 0.1677   0.057146
 H 0.178 0.7347 0.2105   0.120715
 H 0.4991 0.7332 0.0358   0.068284
 H 0.4912 0.7962 0.9649   0.061197
 H 0.3325 0.9653 0.0521   0.108721
 H 0.3677 0.9194 0.9671   0.113694
 H 0.2402 0.8684 0.9913   0.123394
 H 0.901 0.3581 0.7012   0.095092
 H 0.5722 0.4497 0.663   0.087737
 H 0.9162 0.4876 0.2912   0.095119
 H 0.89 0.3941 0.1522   0.144075
 H 0.4902 0.3337 0.1146   0.1332
 H 0.5217 0.4203 0.2569   0.098761
 H 0.5895 0.9158 0.405   0.12058
 H 0.4521 0.9364 0.6138   0.108544
 H 0.3712 0.7428 0.5395   0.146258
 H 0.7287 0.8288 0.5065   0.099449
 H 0.4846 0.6149 0.5471   0.116592
 H 0.4889 0.3508 0.7454   0.130128
 H 0.2235 0.0145 0.7652   0.122378
 H 0.465 0.8398 0.7746   0.125181
 H 0.0585 0.8939 0.6678   0.093267
 H 0.2994 0.7181 0.6786   0.082051
 H 0.3945 0.0726 0.9138   0.046595
 H 0.4094 0.1256 0.8375   0.051937
 H 0.7504 0.2333 0.9083   0.060567
 H 0.6783 0.1419 0.8323   0.057146
 H 0.822 0.2653 0.7895   0.120715
 H 0.5009 0.2668 0.9642   0.068284
 H 0.5088 0.2038 0.0351   0.061198
 H 0.6675 0.0347 0.9479   0.108723
 H 0.6323 0.0806 0.0329   0.113694
 H 0.7598 0.1316 0.0087   0.123395
 C 0.2065 0.5259 0.3874   0.704372
 C 0.2555 0.5874 0.328   -0.219204
 C 0.1822 0.6422 0.2893   0.02547
 C 0.3775 0.5889 0.3126   0.027191
 C 0.2612 0.4801 0.6252   0.682565
 C 0.278 0.5357 0.7132   -0.224178
 C 0.1683 0.5444 0.7437   0.035155
 C 0.1835 0.6009 0.8266   -0.257524
 C 0.3121 0.65 0.877   0.296919
 C 0.4249 0.6386 0.8492   -0.293837
 C 0.4052 0.584 0.7651   0.036561
 C 0.4477 0.0506 0.5563   -0.132984
 C 0.5289 0.0384 0.4329   -0.113201
 C 0.4788 0.0865 0.4912   0.123966
 C 0.5436 0.2553 0.4667   -0.127358
 C 0.3463 0.2094 0.4844   0.138992
 C 0.4803 0.3248 0.4619   0.050867
 C 0.4262 0.6462 0.2618   -0.260603
 C 0.6389 0.0579 0.2236   0.295274
 C 0.7598 0.0448 0.2532   -0.281631
 C 0.6173 0.1491 0.2477   -0.261208
 C 0.9474 0.2902 0.395   0.719706
 C 0.8386 0.2088 0.3354   -0.21007
 C 0.8594 0.1175 0.3102   0.023741
 C 0.7169 0.2222 0.3042   0.021617
 C 0.5486 0.91 0.1237   0.068369
 C 0.4136 0.8478 0.0683   0.037643
 C 0.3356 0.8067 0.1264   0.072198
 C 0.352 0.6981 0.2223   0.309942
 C 0.229 0.6975 0.2366   -0.296672
 C 0.4447 0.7683 0.004   0.059854
 C 0.3304 0.9059 0.0145   -0.363062
 C 0.7935 0.4741 0.6126   0.704372
 C 0.7445 0.4126 0.672   -0.219204
 C 0.8178 0.3578 0.7107   0.02547
 C 0.6225 0.4111 0.6874   0.027191
 C 0.7388 0.5199 0.3748   0.682565
 C 0.722 0.4643 0.2868   -0.224178
 C 0.8317 0.4556 0.2563   0.035155
 C 0.8165 0.3991 0.1734   -0.257524
 C 0.6879 0.35 0.123   0.296918
 C 0.5751 0.3614 0.1508   -0.293837
 C 0.5948 0.416 0.2349   0.036561
 C 0.5523 0.9494 0.4437   -0.132984
 C 0.4711 0.9616 0.5671   -0.113201
 C 0.5212 0.9135 0.5088   0.123967
 C 0.4564 0.7447 0.5333   -0.127358
 C 0.6537 0.7906 0.5156   0.138992
 C 0.5197 0.6752 0.5381   0.050867
 C 0.5738 0.3538 0.7382   -0.260604
 C 0.3611 0.9421 0.7764   0.295274
 C 0.2402 0.9552 0.7468   -0.281631
 C 0.3827 0.8509 0.7523   -0.261209
 C 0.0526 0.7098 0.605   0.719706
 C 0.1614 0.7912 0.6646   -0.21007
 C 0.1406 0.8825 0.6898   0.023741
 C 0.2831 0.7778 0.6958   0.021616
 C 0.4514 0.09 0.8763   0.068368
 C 0.5864 0.1522 0.9317   0.037643
 C 0.6644 0.1933 0.8736   0.072198
 C 0.648 0.3019 0.7777   0.309942
 C 0.771 0.3025 0.7634   -0.296672
 C 0.5553 0.2317 0.996   0.059854
 C 0.6696 0.0941 0.9855   -0.363063
 N 0.3552 0.2938 0.4724   -0.346021
 N 0.4592 0.1815 0.4823   0.021795
 N 0.6448 0.7062 0.5276   -0.346021
 N 0.5408 0.8185 0.5177   0.021795
 O 0.2614 0.4591 0.3985   -0.592347
 O 0.3624 0.4716 0.5989   -0.583635
 O 0.1508 0.4429 0.5737   -0.631152
 O 0.919 0.3655 0.4189   -0.583983
 O 0.116 0.5444 0.4187   -0.614268
 O 0.3181 0.7059 0.9557   -0.265564
 O 0.4074 0.7517 0.1713   -0.292002
 O 0.5314 0.9905 0.1714   -0.262279
 O 0.0631 0.2746 0.4163   -0.646501
 O 0.7386 0.5409 0.6015   -0.592347
 O 0.6376 0.5284 0.4011   -0.583635
 O 0.8492 0.5571 0.4263   -0.631152
 O 0.081 0.6345 0.5811   -0.583983
 O 0.884 0.4556 0.5813   -0.614269
 O 0.6819 0.2941 0.0443   -0.265564
 O 0.5926 0.2483 0.8287   -0.292002
 O 0.4686 0.0095 0.8286   -0.262279
 O 0.9369 0.7254 0.5837   -0.646501
