{'_ref': 'TBD', '_srcid': 'CAKYAQ_clean', 'submitters': [{'name': 'Dalar Nazarian Jeff Camp and David Sholl', 'email': 'dalar@gatech.edu jcamp6@gatech.edu'}], '_method': 'VASP DFT with PBE;DDEC'}
data_CuH8C13NO4
_symmetry_space_group_name_H-M   'P 1'
_cell_length_a   7.92199978
_cell_length_b   8.99000040
_cell_length_c   10.80100000
_cell_angle_alpha   66.89000020
_cell_angle_beta   79.90000121
_cell_angle_gamma   78.52000316
_symmetry_Int_Tables_number   1
_chemical_formula_structural   CuH8C13NO4
_chemical_formula_sum   'Cu2 H16 C26 N2 O8'
_cell_volume   689.303740329
_cell_formula_units_Z   2
loop_
 _symmetry_equiv_pos_site_id
 _symmetry_equiv_pos_as_xyz
  1  'x, y, z'
loop_
 _atom_site_label
 _atom_site_fract_x
 _atom_site_fract_y
 _atom_site_fract_z
 _atom_site_charge
 Cu 0.61818 0.60203 0.95428   0.839889
 Cu 0.38182 0.39797 0.04572   0.839841
 H 0.714 0.952 0.0807   0.113294
 H 0.0672 0.2668 0.9231   0.111481
 H 0.3323 0.3485 0.4524   0.112163
 H 0.6896 0.6508 0.3321   0.10621
 H 0.6237 0.9626 0.7778   0.065018
 H 0.7491 0.1171 0.5742   0.116696
 H 0.1405 0.755 0.6226   0.116458
 H 0.9926 0.6129 0.82   0.070419
 H 0.286 0.048 0.9193   0.113292
 H 0.9328 0.7332 0.0769   0.111475
 H 0.6677 0.6515 0.5476   0.112163
 H 0.3104 0.3492 0.6679   0.106211
 H 0.3763 0.0374 0.2222   0.065021
 H 0.2509 0.8829 0.4258   0.116698
 H 0.8595 0.245 0.3774   0.116461
 H 0.0074 0.3871 0.18   0.070419
 C 0.7321 0.2654 0.0111   0.615987
 C 0.5331 0.4974 0.2297   0.630865
 C 0.8702 0.1279 0.006   -0.111643
 C 0.8278 0.9706 0.0494   -0.062875
 C 0.0412 0.1609 0.9542   -0.056503
 C 0.5198 0.4993 0.3693   -0.104524
 C 0.4001 0.4085 0.4716   -0.066678
 C 0.6137 0.5891 0.3998   -0.062888
 C 0.7284 0.9174 0.7437   0.191472
 C 0.8032 0.0124 0.6207   -0.206316
 C 0.9567 0.9524 0.5674   0.096549
 C 0.0308 0.8002 0.6489   -0.20393
 C 0.9412 0.7166 0.7687   0.195454
 C 0.2679 0.7346 0.9889   0.615992
 C 0.4669 0.5026 0.7703   0.630867
 C 0.1298 0.8721 0.994   -0.11166
 C 0.1722 0.0294 0.9506   -0.062822
 C 0.9588 0.8391 0.0458   -0.056448
 C 0.4802 0.5007 0.6307   -0.104528
 C 0.5999 0.5915 0.5284   -0.066668
 C 0.3863 0.4109 0.6002   -0.062879
 C 0.2716 0.0826 0.2563   0.191471
 C 0.1968 0.9876 0.3793   -0.206319
 C 0.0433 0.0476 0.4326   0.096594
 C 0.9692 0.1998 0.3511   -0.203932
 C 0.0588 0.2834 0.2313   0.195457
 N 0.7909 0.7704 0.8163   -0.349772
 N 0.2091 0.2296 0.1837   -0.349764
 O 0.5775 0.2354 0.0499   -0.527381
 O 0.7807 0.4109 0.9748   -0.545313
 O 0.4373 0.4097 0.2145   -0.562116
 O 0.6356 0.582 0.139   -0.522073
 O 0.4225 0.7646 0.9501   -0.527386
 O 0.2193 0.5891 0.0252   -0.545309
 O 0.5627 0.5903 0.7855   -0.56212
 O 0.3644 0.418 0.861   -0.522068
