{'_ref': 'TBD', '_srcid': 'CAKYAQ_clean', 'submitters': [{'name': 'Dalar Nazarian Jeff Camp and David Sholl', 'email': 'dalar@gatech.edu jcamp6@gatech.edu'}], '_method': 'VASP DFT with PBE;DDEC'}
data_CuH9C14NO4
_symmetry_space_group_name_H-M   'P 1'
_cell_length_a   10.80599962
_cell_length_b   10.83399966
_cell_length_c   16.27000000
_cell_angle_alpha   90.49200197
_cell_angle_beta   97.15399874
_cell_angle_gamma   90.85499909
_symmetry_Int_Tables_number   1
_chemical_formula_structural   CuH9C14NO4
_chemical_formula_sum   'Cu4 H36 C56 N4 O16'
_cell_volume   1889.62089237
_cell_formula_units_Z   4
loop_
 _symmetry_equiv_pos_site_id
 _symmetry_equiv_pos_as_xyz
  1  'x, y, z'
loop_
 _atom_site_label
 _atom_site_fract_x
 _atom_site_fract_y
 _atom_site_fract_z
 _atom_site_charge
 Cu 0.31628 0.84051 0.77723   0.816995
 Cu 0.28423 0.83782 0.61278   0.809142
 Cu 0.68372 0.15949 0.22277   0.816995
 Cu 0.71577 0.16218 0.38722   0.809142
 H 0.5033 0.8894 0.9352   0.071071
 H 0.5158 0.8859 0.0774   0.129871
 H 0.1661 0.7539 0.0545   0.131876
 H 0.1667 0.7519 0.9138   0.084225
 H 0.6677 0.8365 0.571   0.103362
 H 0.88 0.8332 0.5684   0.106623
 H 0.7184 0.8447 0.8201   0.106197
 H 0.9323 0.8434 0.8184   0.102955
 H 0.2734 0.2291 0.5731   0.105555
 H 0.1717 0.8077 0.1863   0.100164
 H 0.3166 0.4508 0.8198   0.110121
 H 0.3169 0.2366 0.8216   0.104518
 H 0.4454 0.844 0.3349   0.117444
 H 0.4233 0.8459 0.2035   0.104495
 H 0.2772 0.442 0.5721   0.113976
 H 0.0845 0.8302 0.4556   0.085639
 H 0.0717 0.8214 0.3137   0.12759
 H 0.4475 0.8513 0.4756   0.078096
 H 0.4967 0.1106 0.0648   0.071071
 H 0.4842 0.1141 0.9226   0.129872
 H 0.8339 0.2461 0.9455   0.131875
 H 0.8333 0.2481 0.0862   0.084225
 H 0.3323 0.1635 0.429   0.103362
 H 0.12 0.1668 0.4316   0.106622
 H 0.2816 0.1553 0.1799   0.106197
 H 0.0677 0.1566 0.1816   0.102956
 H 0.7266 0.7709 0.4269   0.105554
 H 0.8283 0.1923 0.8137   0.100165
 H 0.6834 0.5492 0.1802   0.110121
 H 0.6831 0.7634 0.1784   0.104519
 H 0.5546 0.156 0.6651   0.117443
 H 0.5767 0.1541 0.7965   0.104495
 H 0.7228 0.558 0.4279   0.113976
 H 0.9155 0.1698 0.5444   0.085639
 H 0.9283 0.1786 0.6863   0.12759
 H 0.5525 0.1487 0.5244   0.078097
 C 0.4326 0.8643 0.9595   0.179404
 C 0.4404 0.8634 0.0451   -0.222962
 C 0.3386 0.8299 0.083   0.143709
 C 0.2359 0.7848 0.0317   -0.225243
 C 0.2362 0.7854 0.9475   0.158287
 C 0.7217 0.8379 0.621   -0.058179
 C 0.6728 0.8414 0.696   -0.100964
 C 0.8478 0.8363 0.6194   -0.059984
 C 0.3008 0.6051 0.6945   0.656905
 C 0.2989 0.4677 0.695   -0.089674
 C 0.7514 0.843 0.7693   -0.068687
 C 0.9288 0.8392 0.693   -0.10886
 C 0.8787 0.8421 0.7682   -0.064323
 C 0.0661 0.837 0.6921   0.647515
 C 0.2836 0.2734 0.6235   -0.064381
 C 0.2964 0.2111 0.6968   -0.110857
 C 0.2508 0.8221 0.2162   -0.103587
 C 0.3093 0.4059 0.7697   -0.068449
 C 0.2993 0.0723 0.6977   0.644542
 C 0.5336 0.8423 0.6972   0.638137
 C 0.3088 0.2781 0.7708   -0.078588
 C 0.3699 0.8398 0.3579   -0.198309
 C 0.344 0.8337 0.1733   -0.109893
 C 0.2854 0.4007 0.623   -0.060576
 C 0.1584 0.8317 0.4307   0.169973
 C 0.1504 0.8266 0.3456   -0.210305
 C 0.2573 0.8293 0.3068   0.130238
 C 0.3703 0.844 0.4421   0.172256
 C 0.5674 0.1357 0.0405   0.179404
 C 0.5596 0.1366 0.9549   -0.222962
 C 0.6614 0.1701 0.917   0.143709
 C 0.7641 0.2152 0.9683   -0.225242
 C 0.7638 0.2146 0.0525   0.158287
 C 0.2783 0.1621 0.379   -0.058177
 C 0.3272 0.1586 0.304   -0.100963
 C 0.1522 0.1637 0.3806   -0.059982
 C 0.6992 0.3949 0.3055   0.656905
 C 0.7011 0.5323 0.305   -0.089674
 C 0.2486 0.157 0.2307   -0.068684
 C 0.0712 0.1608 0.307   -0.108859
 C 0.1213 0.1579 0.2318   -0.064323
 C 0.9339 0.163 0.3079   0.647515
 C 0.7164 0.7266 0.3765   -0.064381
 C 0.7036 0.7889 0.3032   -0.110857
 C 0.7492 0.1779 0.7838   -0.103585
 C 0.6907 0.5941 0.2303   -0.068448
 C 0.7007 0.9277 0.3023   0.644542
 C 0.4664 0.1577 0.3028   0.638138
 C 0.6912 0.7219 0.2292   -0.078588
 C 0.6301 0.1602 0.6421   -0.198306
 C 0.656 0.1663 0.8267   -0.109891
 C 0.7146 0.5993 0.377   -0.060574
 C 0.8416 0.1683 0.5693   0.169974
 C 0.8496 0.1734 0.6544   -0.210302
 C 0.7427 0.1707 0.6932   0.130238
 C 0.6297 0.156 0.5579   0.172256
 N 0.2674 0.8384 0.479   -0.333097
 N 0.3319 0.8319 0.9108   -0.32707
 N 0.7326 0.1616 0.521   -0.333097
 N 0.6681 0.1681 0.0892   -0.32707
 O 0.1055 0.8319 0.62239   -0.536958
 O 0.3117 0.6597 0.76327   -0.557248
 O 0.2898 0.6559 0.62514   -0.546589
 O 0.3166 0.0213 0.76738   -0.558483
 O 0.1336 0.8408 0.76099   -0.557034
 O 0.2836 0.0179 0.62917   -0.547162
 O 0.4947 0.8426 0.76682   -0.542768
 O 0.467 0.8434 0.62837   -0.540667
 O 0.8945 0.1681 0.37761   -0.536958
 O 0.6883 0.3403 0.23673   -0.557248
 O 0.7102 0.3441 0.37486   -0.546589
 O 0.6834 0.9787 0.23262   -0.558483
 O 0.8664 0.1592 0.23901   -0.557034
 O 0.7164 0.9821 0.37083   -0.547162
 O 0.5053 0.1574 0.23318   -0.542768
 O 0.533 0.1566 0.37163   -0.540667
