{'_ref': 'TBD', '_srcid': 'CAKYAQ_clean', 'submitters': [{'name': 'Dalar Nazarian Jeff Camp and David Sholl', 'email': 'dalar@gatech.edu jcamp6@gatech.edu'}], '_method': 'VASP DFT with PBE;DDEC'}
data_CuH4C8N3O4
_symmetry_space_group_name_H-M   'P 1'
_cell_length_a   4.70940000
_cell_length_b   11.28239968
_cell_length_c   20.24670000
_cell_angle_alpha   90.00000000
_cell_angle_beta   90.00000000
_cell_angle_gamma   98.82699857
_symmetry_Int_Tables_number   1
_chemical_formula_structural   CuH4C8N3O4
_chemical_formula_sum   'Cu4 H16 C32 N12 O16'
_cell_volume   1063.03337591
_cell_formula_units_Z   4
loop_
 _symmetry_equiv_pos_site_id
 _symmetry_equiv_pos_as_xyz
  1  'x, y, z'
loop_
 _atom_site_label
 _atom_site_fract_x
 _atom_site_fract_y
 _atom_site_fract_z
 _atom_site_charge
 Cu 0.3242 0.4449 0.6625   0.822742
 Cu 0.6758 0.0551 0.1625   0.822742
 Cu 0.6758 0.5551 0.3375   0.822742
 Cu 0.3242 0.9449 0.8375   0.822742
 H 0.28 0.417 0.9095   0.097601
 H 0.476 0.505 0.8113   0.117561
 H 0.539 0.32 0.5508   0.128916
 H 0.323 0.645 0.5599   0.093957
 H 0.72 0.083 0.4095   0.0976
 H 0.524 0.995 0.3113   0.117561
 H 0.461 0.18 0.0508   0.128915
 H 0.677 0.855 0.0599   0.093957
 H 0.72 0.583 0.0905   0.097593
 H 0.524 0.495 0.1887   0.117562
 H 0.461 0.68 0.4492   0.128916
 H 0.677 0.355 0.4401   0.093956
 H 0.28 0.917 0.5905   0.097592
 H 0.476 0.005 0.6887   0.117562
 H 0.539 0.82 0.9492   0.128915
 H 0.323 0.145 0.9401   0.093956
 C 0.088 0.2737 0.753   0.041503
 C 0.983 0.2205 0.8109   0.143659
 C 0.243 0.373 0.8679   0.124297
 C 0.354 0.429 0.8111   0.100808
 C 0.02 0.2217 0.6841   0.636481
 C 0.784 0.1052 0.8185   0.632821
 C 0.516 0.3964 0.531   0.091516
 C 0.392 0.582 0.5356   0.087487
 C 0.912 0.2263 0.253   0.041503
 C 0.017 0.2795 0.3109   0.143659
 C 0.757 0.127 0.3679   0.124297
 C 0.646 0.071 0.3111   0.100808
 C 0.98 0.2783 0.1841   0.636481
 C 0.216 0.3948 0.3185   0.632821
 C 0.484 0.1036 0.031   0.091516
 C 0.608 0.918 0.0356   0.087486
 C 0.912 0.7263 0.247   0.041503
 C 0.017 0.7795 0.1891   0.143659
 C 0.757 0.627 0.1321   0.124299
 C 0.646 0.571 0.1889   0.100807
 C 0.98 0.7783 0.3159   0.636481
 C 0.216 0.8948 0.1815   0.632821
 C 0.484 0.6036 0.469   0.091532
 C 0.608 0.418 0.4644   0.087504
 C 0.088 0.7737 0.747   0.041503
 C 0.983 0.7205 0.6891   0.143659
 C 0.243 0.873 0.6321   0.124299
 C 0.354 0.929 0.6889   0.100807
 C 0.02 0.7217 0.8159   0.636481
 C 0.784 0.6052 0.6815   0.632821
 C 0.516 0.8964 0.969   0.091532
 C 0.392 0.082 0.9644   0.087504
 N 0.268 0.3774 0.7531   -0.238408
 N 0.08 0.268 0.868   -0.359265
 N 0.426 0.4807 0.5659   -0.228943
 N 0.732 0.1226 0.2531   -0.238408
 N 0.92 0.232 0.368   -0.359265
 N 0.574 0.0193 0.0659   -0.228943
 N 0.732 0.6226 0.2469   -0.238408
 N 0.92 0.732 0.132   -0.359265
 N 0.574 0.5193 0.4341   -0.228947
 N 0.268 0.8774 0.7469   -0.238408
 N 0.08 0.768 0.632   -0.359266
 N 0.426 0.9807 0.9341   -0.228947
 O 0.149 0.2816 0.6392   -0.585275
 O 0.873 0.1236 0.6786   -0.54771
 O 0.525 0.108 0.8075   -0.538621
 O 0.884 0.0136 0.8314   -0.621136
 O 0.851 0.2184 0.1392   -0.585275
 O 0.127 0.3764 0.1786   -0.54771
 O 0.475 0.392 0.3075   -0.538621
 O 0.116 0.4864 0.3314   -0.621136
 O 0.851 0.7184 0.3608   -0.585275
 O 0.127 0.8764 0.3214   -0.54771
 O 0.475 0.892 0.1925   -0.538621
 O 0.116 0.9864 0.1686   -0.621136
 O 0.149 0.7816 0.8608   -0.585275
 O 0.873 0.6236 0.8214   -0.54771
 O 0.525 0.608 0.6925   -0.538621
 O 0.884 0.5136 0.6686   -0.621136
