{'_ref': 'TBD', '_srcid': 'CAKYAQ_clean', 'submitters': [{'name': 'Dalar Nazarian Jeff Camp and David Sholl', 'email': 'dalar@gatech.edu jcamp6@gatech.edu'}], '_method': 'VASP DFT with PBE;DDEC'}
data_Cu3P4H44C34(NO2)6
_symmetry_space_group_name_H-M   'P 1'
_cell_length_a   9.57000000
_cell_length_b   23.28799975
_cell_length_c   24.20700000
_cell_angle_alpha   105.70500119
_cell_angle_beta   90.00000000
_cell_angle_gamma   90.00000000
_symmetry_Int_Tables_number   1
_chemical_formula_structural   Cu3P4H44C34(NO2)6
_chemical_formula_sum   'Cu12 P16 H176 C136 N24 O48'
_cell_volume   5193.51854533
_cell_formula_units_Z   4
loop_
 _symmetry_equiv_pos_site_id
 _symmetry_equiv_pos_as_xyz
  1  'x, y, z'
loop_
 _atom_site_label
 _atom_site_fract_x
 _atom_site_fract_y
 _atom_site_fract_z
 _atom_site_charge
 Cu 0.95725 0.73774 0.51721   1.003882
 Cu 0.56352 0.73809 0.42458   0.888853
 Cu 0.35362 0.72604 0.6203   0.817547
 Cu 0.45725 0.26226 0.98279   1.003882
 Cu 0.06352 0.26191 0.07542   0.888853
 Cu 0.85362 0.27396 0.8797   0.817547
 Cu 0.04275 0.26226 0.48279   1.003882
 Cu 0.43648 0.26191 0.57542   0.888853
 Cu 0.64638 0.27396 0.3797   0.817547
 Cu 0.54275 0.73774 0.01721   1.003882
 Cu 0.93648 0.73809 0.92458   0.888853
 Cu 0.14638 0.72604 0.1203   0.817547
 P 0.8193 0.81077 0.43598   1.398258
 P 0.2941 0.78364 0.48521   1.334145
 P 0.0815 0.66162 0.59655   1.397205
 P 0.603 0.68956 0.54498   1.375445
 P 0.3193 0.18923 0.06402   1.398258
 P 0.7941 0.21636 0.01479   1.334145
 P 0.5815 0.33838 0.90345   1.397205
 P 0.103 0.31044 0.95502   1.375445
 P 0.1807 0.18923 0.56402   1.398258
 P 0.7059 0.21636 0.51479   1.334145
 P 0.9185 0.33838 0.40345   1.397205
 P 0.397 0.31044 0.45502   1.375445
 P 0.6807 0.81077 0.93598   1.398258
 P 0.2059 0.78364 0.98521   1.334145
 P 0.4185 0.66162 0.09655   1.397205
 P 0.897 0.68956 0.04498   1.375445
 H 0.7077 0.8266 0.5263   0.155166
 H 0.7019 0.8866 0.5058   0.144916
 H 0.4117 0.872 0.5319   0.148978
 H 0.4834 0.8162 0.5477   0.165083
 H 0.5854 0.8651 0.4022   0.092979
 H 0.4321 0.8378 0.4008   0.099128
 H 0.4194 0.94 0.4205   0.082073
 H 0.3585 0.9186 0.4727   0.077249
 H 0.626 0.9707 0.4765   0.074618
 H 0.5438 0.9577 0.5294   0.056561
 H 0.1897 0.5897 0.5209   0.14763
 H 0.1969 0.6539 0.5087   0.152053
 H 0.4059 0.662 0.4876   0.151113
 H 0.4848 0.6039 0.4949   0.148274
 H 0.3415 0.6034 0.6291   0.079657
 H 0.4924 0.5973 0.6001   0.093281
 H 0.3889 0.5042 0.5847   0.071627
 H 0.2561 0.5255 0.5561   0.077896
 H 0.3882 0.5246 0.474   0.063791
 H 0.3826 0.4603 0.4858   0.087969
 H 0.8955 0.6064 0.4796   0.101448
 H 0.9226 0.5246 0.4042   0.145733
 H 0.104 0.631 0.3174   0.140388
 H 0.0734 0.7101 0.3971   0.11023
 H 0.2555 0.3435 0.156   0.096482
 H 0.2542 0.4404 0.2165   0.118596
 H 0.8648 0.4638 0.1666   0.137587
 H 0.8737 0.3696 0.1074   0.075852
 H 0.95 0.4875 0.2981   0.112567
 H 0.1142 0.4892 0.3093   0.12117
 H 0.984 0.5471 0.2314   0.101471
 H 0.1498 0.5437 0.2407   0.101485
 H 0.8333 0.7682 0.6379   0.111702
 H 0.7924 0.8498 0.714   0.149819
 H 0.9442 0.9538 0.618   0.145545
 H 0.0115 0.8692 0.5486   0.115763
 H 0.688 0.1582 0.8618   0.083271
 H 0.7278 0.0582 0.8145   0.115003
 H 0.0687 0.1045 0.7437   0.126099
 H 0.0402 0.1999 0.7974   0.097578
 H 0.989 0.9864 0.7658   0.102482
 H 0.9993 0.0064 0.7076   0.096096
 H 0.7569 0.9588 0.7493   0.093996
 H 0.7427 0.9925 0.6999   0.102942
 H 0.2077 0.1734 0.9737   0.155166
 H 0.2019 0.1134 0.9942   0.144916
 H 0.9117 0.128 0.9681   0.148978
 H 0.9834 0.1838 0.9523   0.165083
 H 0.0854 0.1349 0.0978   0.092979
 H 0.9321 0.1622 0.0992   0.099128
 H 0.9194 0.06 0.0795   0.082073
 H 0.8585 0.0814 0.0273   0.077249
 H 0.126 0.0293 0.0235   0.074618
 H 0.0438 0.0423 0.9706   0.056561
 H 0.6897 0.4103 0.9791   0.14763
 H 0.6969 0.3461 0.9913   0.152054
 H 0.9059 0.338 0.0124   0.151113
 H 0.9848 0.3961 0.0051   0.148274
 H 0.8415 0.3966 0.8709   0.079657
 H 0.9924 0.4027 0.8999   0.093281
 H 0.8889 0.4958 0.9153   0.071627
 H 0.7561 0.4745 0.9439   0.077896
 H 0.8882 0.4754 0.026   0.063792
 H 0.8826 0.5397 0.0142   0.087969
 H 0.3955 0.3936 0.0204   0.101448
 H 0.4226 0.4754 0.0958   0.145733
 H 0.604 0.369 0.1826   0.140387
 H 0.5734 0.2899 0.1029   0.11023
 H 0.7555 0.6565 0.344   0.096481
 H 0.7542 0.5596 0.2835   0.118595
 H 0.3648 0.5362 0.3334   0.137589
 H 0.3737 0.6304 0.3926   0.075852
 H 0.45 0.5125 0.2019   0.112568
 H 0.6142 0.5108 0.1907   0.121171
 H 0.484 0.4529 0.2686   0.10147
 H 0.6498 0.4563 0.2593   0.101485
 H 0.3333 0.2318 0.8621   0.111701
 H 0.2924 0.1502 0.786   0.149819
 H 0.4442 0.0462 0.882   0.145545
 H 0.5115 0.1308 0.9514   0.115763
 H 0.188 0.8418 0.6382   0.083271
 H 0.2278 0.9418 0.6855   0.115004
 H 0.5687 0.8955 0.7563   0.1261
 H 0.5402 0.8001 0.7026   0.097576
 H 0.489 0.0136 0.7342   0.102484
 H 0.4993 0.9936 0.7924   0.096097
 H 0.2569 0.0412 0.7507   0.093997
 H 0.2427 0.0075 0.8001   0.102943
 H 0.2923 0.1734 0.4737   0.155166
 H 0.2981 0.1134 0.4942   0.144916
 H 0.5883 0.128 0.4681   0.148978
 H 0.5166 0.1838 0.4523   0.165083
 H 0.4146 0.1349 0.5978   0.092979
 H 0.5679 0.1622 0.5992   0.099127
 H 0.5806 0.06 0.5795   0.082074
 H 0.6415 0.0814 0.5273   0.077248
 H 0.374 0.0293 0.5235   0.074618
 H 0.4562 0.0423 0.4706   0.056563
 H 0.8103 0.4103 0.4791   0.14763
 H 0.8031 0.3461 0.4913   0.152053
 H 0.5941 0.338 0.5124   0.151113
 H 0.5152 0.3961 0.5051   0.148274
 H 0.6585 0.3966 0.3709   0.079657
 H 0.5076 0.4027 0.3999   0.093281
 H 0.6111 0.4958 0.4153   0.071629
 H 0.7439 0.4745 0.4439   0.077899
 H 0.6118 0.4754 0.526   0.063791
 H 0.6174 0.5397 0.5142   0.087969
 H 0.1045 0.3936 0.5204   0.101449
 H 0.0774 0.4754 0.5958   0.145736
 H 0.896 0.369 0.6826   0.140387
 H 0.9266 0.2899 0.6029   0.11023
 H 0.7445 0.6565 0.844   0.096481
 H 0.7458 0.5596 0.7835   0.118596
 H 0.1352 0.5362 0.8334   0.137587
 H 0.1263 0.6304 0.8926   0.075852
 H 0.05 0.5125 0.7019   0.112567
 H 0.8858 0.5108 0.6907   0.12117
 H 0.016 0.4529 0.7686   0.101471
 H 0.8502 0.4563 0.7593   0.101485
 H 0.1667 0.2318 0.3621   0.111702
 H 0.2076 0.1502 0.286   0.149818
 H 0.0558 0.0462 0.382   0.145544
 H 0.9885 0.1308 0.4514   0.115763
 H 0.312 0.8418 0.1382   0.083271
 H 0.2722 0.9418 0.1855   0.115003
 H 0.9313 0.8955 0.2563   0.126099
 H 0.9598 0.8001 0.2026   0.097576
 H 0.011 0.0136 0.2342   0.102483
 H 0.000700000000002 0.9936 0.2924   0.096096
 H 0.2431 0.0412 0.2507   0.093996
 H 0.2573 0.0075 0.3001   0.102942
 H 0.7923 0.8266 0.0263   0.155166
 H 0.7981 0.8866 0.0058   0.144916
 H 0.0883 0.872 0.0319   0.148978
 H 0.0166 0.8162 0.0477   0.165083
 H 0.9146 0.8651 0.9022   0.092979
 H 0.0679 0.8378 0.9008   0.099127
 H 0.0806 0.94 0.9205   0.082074
 H 0.1415 0.9186 0.9727   0.077248
 H 0.874 0.9707 0.9765   0.074618
 H 0.9562 0.9577 0.0294   0.056563
 H 0.3103 0.5897 0.0209   0.14763
 H 0.3031 0.6539 0.0087   0.152054
 H 0.0941 0.662 0.9876   0.151113
 H 0.0152 0.6039 0.9949   0.148274
 H 0.1585 0.6034 0.1291   0.079657
 H 0.0076 0.5973 0.1001   0.093281
 H 0.1111 0.5042 0.0847   0.071629
 H 0.2439 0.5255 0.0561   0.077899
 H 0.1118 0.5246 0.974   0.063792
 H 0.1174 0.4603 0.9858   0.08797
 H 0.6045 0.6064 0.9796   0.101449
 H 0.5774 0.5246 0.9042   0.145736
 H 0.396 0.631 0.8174   0.140387
 H 0.4266 0.7101 0.8971   0.11023
 H 0.2445 0.3435 0.656   0.09648
 H 0.2458 0.4404 0.7165   0.118595
 H 0.6352 0.4638 0.6666   0.137589
 H 0.6263 0.3696 0.6074   0.075852
 H 0.55 0.4875 0.7981   0.112568
 H 0.3858 0.4892 0.8093   0.121171
 H 0.516 0.5471 0.7314   0.101469
 H 0.3502 0.5437 0.7407   0.101486
 H 0.6667 0.7682 0.1379   0.111701
 H 0.7076 0.8498 0.214   0.149818
 H 0.5558 0.9538 0.118   0.145544
 H 0.4885 0.8692 0.0486   0.115763
 H 0.812 0.1582 0.3618   0.083271
 H 0.7722 0.0582 0.3145   0.115004
 H 0.4313 0.1045 0.2437   0.1261
 H 0.4598 0.1999 0.2974   0.097575
 H 0.511 0.9864 0.2658   0.102484
 H 0.5007 0.0064 0.2076   0.096097
 H 0.7431 0.9588 0.2493   0.093997
 H 0.7573 0.9925 0.1999   0.102943
 C 0.6918 0.8427 0.493   -0.494734
 C 0.4424 0.8302 0.5161   -0.472449
 C 0.5041 0.8616 0.4264   -0.07385
 C 0.446 0.9234 0.4525   -0.130621
 C 0.5321 0.9694 0.4933   -0.119088
 C 0.2079 0.6326 0.5386   -0.490365
 C 0.4532 0.6445 0.5156   -0.482863
 C 0.391 0.5939 0.5918   -0.076554
 C 0.359 0.5292 0.5596   -0.123685
 C 0.4198 0.5013 0.5004   -0.138809
 C 0.9388 0.6116 0.4459   0.200141
 C 0.9546 0.5622 0.401   -0.243325
 C 0.0163 0.5663 0.3509   0.157676
 C 0.0608 0.6247 0.3507   -0.249644
 C 0.0416 0.6717 0.3981   0.194
 C 0.1749 0.3678 0.1581   0.19101
 C 0.1736 0.426 0.1942   -0.235706
 C 0.0639 0.4619 0.1984   0.176746
 C 0.9462 0.4401 0.1651   -0.250237
 C 0.953 0.3838 0.1307   0.192995
 C 0.0346 0.5125 0.3007   -0.190638
 C 0.0601 0.5226 0.2411   -0.185964
 C 0.8593 0.8064 0.6343   0.211677
 C 0.8285 0.855 0.6791   -0.247627
 C 0.851 0.9123 0.6727   0.149924
 C 0.9219 0.9157 0.6229   -0.247524
 C 0.96 0.8653 0.5809   0.182618
 C 0.7689 0.1474 0.8385   0.190233
 C 0.7916 0.0875 0.8093   -0.244185
 C 0.9024 0.0702 0.7736   0.160792
 C 0.9912 0.1141 0.7691   -0.213879
 C 0.9719 0.1711 0.7999   0.165406
 C 0.9375 0.0058 0.7403   -0.171594
 C 0.8067 0.9691 0.7174   -0.171205
 C 0.1918 0.1573 0.007   -0.494734
 C 0.9424 0.1698 0.9839   -0.472449
 C 0.0041 0.1384 0.0736   -0.07385
 C 0.946 0.0766 0.0475   -0.130621
 C 0.0321 0.0306 0.0067   -0.119088
 C 0.7079 0.3674 0.9614   -0.490365
 C 0.9532 0.3555 0.9844   -0.482863
 C 0.891 0.4061 0.9082   -0.076554
 C 0.859 0.4708 0.9404   -0.123685
 C 0.9198 0.4987 0.9996   -0.138809
 C 0.4388 0.3884 0.0541   0.200141
 C 0.4546 0.4378 0.099   -0.243325
 C 0.5163 0.4337 0.1491   0.157676
 C 0.5608 0.3753 0.1493   -0.249644
 C 0.5416 0.3283 0.1019   0.193999
 C 0.6749 0.6322 0.3419   0.19101
 C 0.6736 0.574 0.3058   -0.235706
 C 0.5639 0.5381 0.3016   0.176746
 C 0.4462 0.5599 0.3349   -0.250238
 C 0.453 0.6162 0.3693   0.192995
 C 0.5346 0.4875 0.1993   -0.190639
 C 0.5601 0.4774 0.2589   -0.185964
 C 0.3593 0.1936 0.8657   0.211678
 C 0.3285 0.145 0.8209   -0.247626
 C 0.351 0.0877 0.8273   0.149925
 C 0.4219 0.0843 0.8771   -0.247525
 C 0.46 0.1347 0.9191   0.182618
 C 0.2689 0.8526 0.6615   0.190233
 C 0.2916 0.9125 0.6907   -0.244185
 C 0.4024 0.9298 0.7264   0.160792
 C 0.4912 0.8859 0.7309   -0.213878
 C 0.4719 0.8289 0.7001   0.165407
 C 0.4375 0.9942 0.7597   -0.171594
 C 0.3067 0.0309 0.7826   -0.171206
 C 0.3082 0.1573 0.507   -0.494734
 C 0.5576 0.1698 0.4839   -0.472449
 C 0.4959 0.1384 0.5736   -0.07385
 C 0.554 0.0766 0.5475   -0.130621
 C 0.4679 0.0306 0.5067   -0.119088
 C 0.7921 0.3674 0.4614   -0.490365
 C 0.5468 0.3555 0.4844   -0.482863
 C 0.609 0.4061 0.4082   -0.076554
 C 0.641 0.4708 0.4404   -0.123686
 C 0.5802 0.4987 0.4996   -0.138808
 C 0.0612 0.3884 0.5541   0.200141
 C 0.0454 0.4378 0.599   -0.243326
 C 0.9837 0.4337 0.6491   0.157677
 C 0.9392 0.3753 0.6493   -0.249644
 C 0.9584 0.3283 0.6019   0.194
 C 0.8251 0.6322 0.8419   0.19101
 C 0.8264 0.574 0.8058   -0.235706
 C 0.9361 0.5381 0.8016   0.176746
 C 0.0538 0.5599 0.8349   -0.250237
 C 0.047 0.6162 0.8693   0.192995
 C 0.9654 0.4875 0.6993   -0.190638
 C 0.9399 0.4774 0.7589   -0.185964
 C 0.1407 0.1936 0.3657   0.211677
 C 0.1715 0.145 0.3209   -0.247626
 C 0.149 0.0877 0.3273   0.149924
 C 0.0781 0.0843 0.3771   -0.247524
 C 0.04 0.1347 0.4191   0.182618
 C 0.2311 0.8526 0.1615   0.190233
 C 0.2084 0.9125 0.1907   -0.244185
 C 0.0976 0.9298 0.2264   0.160792
 C 0.0088 0.8859 0.2309   -0.213879
 C 0.0281 0.8289 0.2001   0.165406
 C 0.0625 0.9942 0.2597   -0.171594
 C 0.1933 0.0309 0.2826   -0.171205
 C 0.8082 0.8427 0.993   -0.494734
 C 0.0576 0.8302 0.0161   -0.472449
 C 0.9959 0.8616 0.9264   -0.07385
 C 0.054 0.9234 0.9525   -0.130621
 C 0.9679 0.9694 0.9933   -0.119088
 C 0.2921 0.6326 0.0386   -0.490365
 C 0.0468 0.6445 0.0156   -0.482863
 C 0.109 0.5939 0.0918   -0.076554
 C 0.141 0.5292 0.0596   -0.123686
 C 0.0802 0.5013 0.000399999999999   -0.138808
 C 0.5612 0.6116 0.9459   0.200141
 C 0.5454 0.5622 0.901   -0.243326
 C 0.4837 0.5663 0.8509   0.157677
 C 0.4392 0.6247 0.8507   -0.249644
 C 0.4584 0.6717 0.8981   0.193999
 C 0.3251 0.3678 0.6581   0.19101
 C 0.3264 0.426 0.6942   -0.235706
 C 0.4361 0.4619 0.6984   0.176746
 C 0.5538 0.4401 0.6651   -0.250238
 C 0.547 0.3838 0.6307   0.192995
 C 0.4654 0.5125 0.8007   -0.190639
 C 0.4399 0.5226 0.7411   -0.185964
 C 0.6407 0.8064 0.1343   0.211678
 C 0.6715 0.855 0.1791   -0.247626
 C 0.649 0.9123 0.1727   0.149924
 C 0.5781 0.9157 0.1229   -0.247524
 C 0.54 0.8653 0.0809   0.182618
 C 0.7311 0.1474 0.3385   0.190233
 C 0.7084 0.0875 0.3093   -0.244186
 C 0.5976 0.0702 0.2736   0.160792
 C 0.5088 0.1141 0.2691   -0.213879
 C 0.5281 0.1711 0.2999   0.165407
 C 0.5625 0.0058 0.2403   -0.171594
 C 0.6933 0.9691 0.2174   -0.171206
 N 0.5506 0.8266 0.4694   0.058692
 N 0.3518 0.6405 0.5612   0.064212
 N 0.9788 0.6659 0.4467   -0.323519
 N 0.0598 0.3465 0.1263   -0.301174
 N 0.9245 0.8091 0.5851   -0.330101
 N 0.8599 0.1893 0.8342   -0.266624
 N 0.0506 0.1734 0.0306   0.058692
 N 0.8518 0.3595 0.9388   0.064212
 N 0.4788 0.3341 0.0533   -0.323519
 N 0.5598 0.6535 0.3737   -0.301174
 N 0.4245 0.1909 0.9149   -0.330101
 N 0.3599 0.8107 0.6658   -0.266624
 N 0.4494 0.1734 0.5306   0.058692
 N 0.6482 0.3595 0.4388   0.064212
 N 0.0212 0.3341 0.5533   -0.323519
 N 0.9402 0.6535 0.8737   -0.301174
 N 0.0755 0.1909 0.4149   -0.330101
 N 0.1401 0.8107 0.1658   -0.266624
 N 0.9494 0.8266 0.9694   0.058692
 N 0.1482 0.6405 0.0612   0.064212
 N 0.5212 0.6659 0.9467   -0.323519
 N 0.4402 0.3465 0.6263   -0.301174
 N 0.5755 0.8091 0.0851   -0.330101
 N 0.6401 0.1893 0.3342   -0.266624
 O 0.7393 0.758 0.3963   -0.778553
 O 0.9435 0.7907 0.4664   -0.709459
 O 0.8698 0.8546 0.4056   -0.735773
 O 0.3646 0.733 0.4373   -0.770336
 O 0.213 0.7632 0.5288   -0.794976
 O 0.1988 0.8212 0.4543   -0.626928
 O 0.1623 0.7153 0.6367   -0.784644
 O 0.9559 0.6834 0.5665   -0.6936
 O 0.0388 0.6154 0.625   -0.749726
 O 0.5428 0.7366 0.5968   -0.791357
 O 0.7064 0.6466 0.566   -0.655839
 O 0.6704 0.7135 0.5002   -0.81765
 O 0.2393 0.242 0.1037   -0.778553
 O 0.4435 0.2093 0.0336   -0.709459
 O 0.3698 0.1454 0.0944   -0.735773
 O 0.8646 0.267 0.0627   -0.770336
 O 0.713 0.2368 0.9712   -0.794976
 O 0.6988 0.1788 0.0457   -0.626928
 O 0.6623 0.2847 0.8633   -0.784644
 O 0.4559 0.3166 0.9335   -0.6936
 O 0.5388 0.3846 0.875   -0.749726
 O 0.0428 0.2634 0.9032   -0.791357
 O 0.2064 0.3534 0.934   -0.655839
 O 0.1704 0.2865 0.9998   -0.81765
 O 0.2607 0.242 0.6037   -0.778553
 O 0.0565 0.2093 0.5336   -0.709459
 O 0.1302 0.1454 0.5944   -0.735773
 O 0.6354 0.267 0.5627   -0.770336
 O 0.787 0.2368 0.4712   -0.794976
 O 0.8012 0.1788 0.5457   -0.626928
 O 0.8377 0.2847 0.3633   -0.784644
 O 0.0441 0.3166 0.4335   -0.6936
 O 0.9612 0.3846 0.375   -0.749726
 O 0.4572 0.2634 0.4032   -0.791357
 O 0.2936 0.3534 0.434   -0.655839
 O 0.3296 0.2865 0.4998   -0.81765
 O 0.7607 0.758 0.8963   -0.778553
 O 0.5565 0.7907 0.9664   -0.709459
 O 0.6302 0.8546 0.9056   -0.735773
 O 0.1354 0.733 0.9373   -0.770336
 O 0.287 0.7632 0.0288   -0.794976
 O 0.3012 0.8212 0.9543   -0.626928
 O 0.3377 0.7153 0.1367   -0.784644
 O 0.5441 0.6834 0.0665   -0.6936
 O 0.4612 0.6154 0.125   -0.749726
 O 0.9572 0.7366 0.0968   -0.791357
 O 0.7936 0.6466 0.066   -0.655839
 O 0.8296 0.7135 0.0002   -0.81765
