{'_ref': 'TBD', '_srcid': 'CAKYAQ_clean', 'submitters': [{'name': 'Dalar Nazarian Jeff Camp and David Sholl', 'email': 'dalar@gatech.edu jcamp6@gatech.edu'}], '_method': 'VASP DFT with PBE;DDEC'}
data_Co2H18C24N4O9
_symmetry_space_group_name_H-M   'P 1'
_cell_length_a   10.50699962
_cell_length_b   11.82400015
_cell_length_c   14.08430000
_cell_angle_alpha   106.07700030
_cell_angle_beta   103.22100217
_cell_angle_gamma   111.10499793
_symmetry_Int_Tables_number   1
_chemical_formula_structural   Co2H18C24N4O9
_chemical_formula_sum   'Co4 H36 C48 N8 O18'
_cell_volume   1459.48751427
_cell_formula_units_Z   2
loop_
 _symmetry_equiv_pos_site_id
 _symmetry_equiv_pos_as_xyz
  1  'x, y, z'
loop_
 _atom_site_label
 _atom_site_fract_x
 _atom_site_fract_y
 _atom_site_fract_z
 _atom_site_charge
 Co 0.01889 0.72174 0.21212   0.947411
 Co 0.23909 0.45829 0.68902   0.951328
 Co 0.98111 0.27826 0.78788   0.94741
 Co 0.76091 0.54171 0.31098   0.951328
 H 0.4938 0.4356 0.6136   0.074975
 H 0.7354 0.4829 0.68   0.12489
 H 0.8652 0.5917 0.8621   0.103678
 H 0.492 0.5665 0.8981   0.059148
 H 0.4843 0.7422 0.748   0.073189
 H 0.5371 0.9047 0.6856   0.110766
 H 0.3708 0.8781 0.53   0.102259
 H 0.1208 0.5175 0.5045   0.074229
 H 0.1083 0.9453 0.1333   0.081493
 H 0.1815 0.1679 0.1873   0.122758
 H 0.2166 0.2898 0.3603   0.085742
 H 0.1088 0.96 0.4128   0.072233
 H 0.366 0.8356 0.2894   0.076734
 H 0.5404 0.8293 0.2201   0.138201
 H 0.472 0.7213 0.0374   0.099832
 H 0.0568 0.6161 0.0112   0.058717
 H 0.7928 0.6937 0.2117   0.427713
 H 0.8362 0.759 0.3101   0.426112
 H 0.5062 0.5644 0.3864   0.074973
 H 0.2646 0.5171 0.32   0.12489
 H 0.1348 0.4083 0.1379   0.103679
 H 0.508 0.4335 0.1019   0.059148
 H 0.5157 0.2578 0.252   0.073192
 H 0.4629 0.0953 0.3144   0.110766
 H 0.6292 0.1219 0.47   0.102258
 H 0.8792 0.4825 0.4955   0.074229
 H 0.8917 0.0547 0.8667   0.0815
 H 0.8185 0.8321 0.8127   0.122762
 H 0.7834 0.7102 0.6397   0.085741
 H 0.8912 0.04 0.5872   0.072233
 H 0.634 0.1644 0.7106   0.076733
 H 0.4596 0.1707 0.7799   0.1382
 H 0.528 0.2787 0.9626   0.099833
 H 0.9432 0.3839 0.9888   0.058716
 H 0.2072 0.3063 0.7883   0.427713
 H 0.1638 0.241 0.6899   0.426112
 C 0.543 0.4735 0.6868   0.162237
 C 0.6888 0.504 0.726   -0.187834
 C 0.7653 0.5663 0.8342   0.050043
 C 0.6908 0.59 0.8999   -0.23142
 C 0.5427 0.5519 0.8536   0.22219
 C 0.7622 0.6532 0.0195   0.66708
 C 0.4187 0.7286 0.6842   0.171933
 C 0.4498 0.8271 0.6482   -0.196999
 C 0.351 0.8115 0.5555   0.040307
 C 0.223 0.6953 0.5023   -0.218484
 C 0.2041 0.5981 0.5423   0.207273
 C 0.1051 0.6727 0.4057   0.696737
 C 0.1225 0.9937 0.2026   0.171967
 C 0.1665 0.1272 0.2343   -0.197402
 C 0.1877 0.1996 0.3371   0.044022
 C 0.1658 0.1364 0.4047   -0.207166
 C 0.1226 0.0026 0.3668   0.208984
 C 0.1843 0.2088 0.5176   0.675776
 C 0.3371 0.7898 0.2167   0.152676
 C 0.4423 0.7872 0.1757   -0.190701
 C 0.4015 0.7213 0.0671   0.064517
 C 0.2549 0.6559 0.0043   -0.228692
 C 0.1561 0.6619 0.0532   0.210448
 C 0.1953 0.5702 0.888   0.699098
 C 0.457 0.5265 0.3132   0.162237
 C 0.3112 0.496 0.274   -0.187835
 C 0.2347 0.4337 0.1658   0.050041
 C 0.3092 0.41 0.1001   -0.231421
 C 0.4573 0.4481 0.1464   0.222189
 C 0.2378 0.3468 0.9805   0.667079
 C 0.5813 0.2714 0.3158   0.171936
 C 0.5502 0.1729 0.3518   -0.196998
 C 0.649 0.1885 0.4445   0.040307
 C 0.777 0.3047 0.4977   -0.218484
 C 0.7959 0.4019 0.4577   0.207274
 C 0.8949 0.3273 0.5943   0.696737
 C 0.8775 0.0063 0.7974   0.171965
 C 0.8335 0.8728 0.7657   -0.1974
 C 0.8123 0.8004 0.6629   0.044024
 C 0.8342 0.8636 0.5953   -0.207167
 C 0.8774 0.9974 0.6332   0.208984
 C 0.8157 0.7912 0.4824   0.675775
 C 0.6629 0.2102 0.7833   0.152674
 C 0.5577 0.2128 0.8243   -0.190698
 C 0.5985 0.2787 0.9329   0.064521
 C 0.7451 0.3441 0.9957   -0.228691
 C 0.8439 0.3381 0.9468   0.210447
 C 0.8047 0.4298 0.112   0.6991
 N 0.4687 0.4959 0.7494   -0.372035
 N 0.2987 0.6136 0.632   -0.343331
 N 0.0996 0.931 0.2669   -0.36936
 N 0.1938 0.729 0.1566   -0.359407
 N 0.5313 0.5041 0.2506   -0.372035
 N 0.7013 0.3864 0.368   -0.343331
 N 0.9004 0.069 0.7331   -0.369359
 N 0.8062 0.271 0.8434   -0.359407
 O 0.8966 0.6953 0.0596   -0.611373
 O 0.6792 0.6568 0.0696   -0.570613
 O 0.1422 0.748 0.3589   -0.58909
 O 0.9801 0.5818 0.381   -0.581918
 O 0.2113 0.3281 0.5438   -0.606303
 O 0.1721 0.1458 0.576   -0.593635
 O 0.0649 0.4844 0.8499   -0.590801
 O 0.281 0.5904 0.8381   -0.581479
 O 0.8313 0.6996 0.2576   -0.82866
 O 0.1034 0.3047 0.9404   -0.611373
 O 0.3208 0.3432 0.9304   -0.570614
 O 0.8578 0.252 0.6411   -0.58909
 O 0.0199 0.4182 0.619   -0.581917
 O 0.7887 0.6719 0.4562   -0.606303
 O 0.8279 0.8542 0.424   -0.593635
 O 0.9351 0.5156 0.1501   -0.590801
 O 0.719 0.4096 0.1619   -0.581479
 O 0.1687 0.3004 0.7424   -0.82866
