{'_ref': 'TBD', '_srcid': 'CAKYAQ_clean', 'submitters': [{'name': 'Dalar Nazarian Jeff Camp and David Sholl', 'email': 'dalar@gatech.edu jcamp6@gatech.edu'}], '_method': 'VASP DFT with PBE;DDEC'}
data_Co2H18C24N4O9
_symmetry_space_group_name_H-M   'P 1'
_cell_length_a   10.66709990
_cell_length_b   12.00630020
_cell_length_c   14.06580000
_cell_angle_alpha   106.71799851
_cell_angle_beta   102.27899831
_cell_angle_gamma   111.18999891
_symmetry_Int_Tables_number   1
_chemical_formula_structural   Co2H18C24N4O9
_chemical_formula_sum   'Co4 H36 C48 N8 O18'
_cell_volume   1504.11145871
_cell_formula_units_Z   2
loop_
 _symmetry_equiv_pos_site_id
 _symmetry_equiv_pos_as_xyz
  1  'x, y, z'
loop_
 _atom_site_label
 _atom_site_fract_x
 _atom_site_fract_y
 _atom_site_fract_z
 _atom_site_charge
 Co 0.80651 0.50421 0.78597   0.715221
 Co 0.54787 0.76829 0.30975   0.916383
 Co 0.19349 0.49579 0.21403   0.715209
 Co 0.45213 0.23171 0.69025   0.916373
 H 0.523 0.446 0.686   0.406684
 H 0.575 0.476 0.793   0.413797
 H 0.9746 0.7993 0.859   0.084774
 H 0.8777 0.8332 0.3859   0.075272
 H 0.0544 0.8224 0.3213   0.125626
 H 0.0025 0.7366 0.1389   0.106807
 H 0.5937 0.6604 0.0996   0.063111
 H 0.7287 0.9888 0.2493   0.075248
 H 0.8401 0.2119 0.3089   0.111977
 H 0.8366 0.3382 0.4672   0.100102
 H 0.6195 0.01 0.4988   0.078033
 H 0.6977 0.5379 0.5807   0.081745
 H 0.0034 0.9638 0.8008   0.123362
 H 0.8703 0.9136 0.6277   0.086846
 H 0.0667 0.5333 0.706   0.080732
 H 0.3062 0.5865 0.7701   0.138924
 H 0.424 0.6623 0.953   0.102174
 H 0.0477 0.6049 0.9892   0.068482
 H 0.477 0.554 0.314   0.406683
 H 0.425 0.524 0.207   0.413796
 H 0.0254 0.2007 0.141   0.084841
 H 0.1223 0.1668 0.6141   0.075291
 H 0.9456 0.1776 0.6787   0.125641
 H 0.9975 0.2634 0.8611   0.106813
 H 0.4063 0.3396 0.9004   0.063111
 H 0.2713 0.0112 0.7507   0.075302
 H 0.1599 0.7881 0.6911   0.111984
 H 0.1634 0.6618 0.5328   0.100111
 H 0.3805 0.99 0.5012   0.078035
 H 0.3023 0.4621 0.4193   0.081745
 H 0.9966 0.0362 0.1992   0.123419
 H 0.1297 0.0864 0.3723   0.086859
 H 0.9333 0.4667 0.294   0.080738
 H 0.6938 0.4135 0.2299   0.138917
 H 0.576 0.3377 0.047   0.102182
 H 0.9523 0.3951 0.0108   0.068476
 C 0.9223 0.7784 0.7891   0.15323
 C 0.8543 0.7957 0.3129   0.159925
 C 0.9616 0.7907 0.2745   -0.188144
 C 0.9309 0.7387 0.1662   0.048457
 C 0.7901 0.6896 0.0995   -0.224652
 C 0.6883 0.6955 0.14471   0.218678
 C 0.7418 0.6278 0.97994   0.648672
 C 0.7287 0.0386 0.3136   0.163219
 C 0.7946 0.1727 0.3484   -0.196192
 C 0.7921 0.2477 0.4423   0.038056
 C 0.7224 0.1864 0.49888   -0.213822
 C 0.6631 0.0515 0.45969   0.203731
 C 0.6998 0.2613 0.5943   0.686075
 C 0.7584 0.6248 0.62559   0.186488
 C 0.9396 0.8779 0.7551   -0.190343
 C 0.8607 0.8479 0.6523   0.035902
 C 0.7674 0.7196 0.5858   -0.203129
 C 0.6692 0.682 0.4756   0.678533
 C 0.112 0.5602 0.7785   0.132908
 C 0.2561 0.5932 0.8165   -0.186915
 C 0.3261 0.637 0.9253   0.050671
 C 0.2469 0.6422 0.99119   -0.217047
 C 0.1016 0.6037 0.94528   0.18503
 C 0.307 0.6786 0.10914   0.684447
 C 0.0777 0.2216 0.2109   0.153212
 C 0.1457 0.2043 0.6871   0.159921
 C 0.0384 0.2093 0.7255   -0.188153
 C 0.0691 0.2613 0.8338   0.048458
 C 0.2099 0.3104 0.9005   -0.224658
 C 0.3117 0.3045 0.85529   0.218665
 C 0.2582 0.3722 0.02006   0.648643
 C 0.2713 0.9614 0.6864   0.163235
 C 0.2054 0.8273 0.6516   -0.196148
 C 0.2079 0.7523 0.5577   0.03806
 C 0.2776 0.8136 0.50112   -0.213813
 C 0.3369 0.9485 0.54031   0.203732
 C 0.3002 0.7387 0.4057   0.686075
 C 0.2416 0.3752 0.37441   0.186487
 C 0.0604 0.1221 0.2449   -0.19033
 C 0.1393 0.1521 0.3477   0.035926
 C 0.2326 0.2804 0.4142   -0.20312
 C 0.3308 0.318 0.5244   0.678534
 C 0.888 0.4398 0.2215   0.132893
 C 0.7439 0.4068 0.1835   -0.18688
 C 0.6739 0.363 0.0747   0.050692
 C 0.7531 0.3578 0.00881   -0.217055
 C 0.8984 0.3963 0.05472   0.185029
 C 0.693 0.3214 0.89086   0.684453
 N 0.7175 0.7486 0.24944   -0.370642
 N 0.6649 0.9772 0.36866   -0.341198
 N 0.8339 0.6533 0.72631   -0.290892
 N 0.0342 0.5651 0.84138   -0.280153
 N 0.2825 0.2514 0.75056   -0.370638
 N 0.3351 0.0228 0.63134   -0.341196
 N 0.1661 0.3467 0.27369   -0.290885
 N 0.9658 0.4349 0.15862   -0.280151
 O 0.83667 0.63066 0.9392   -0.572433
 O 0.60944 0.5754 0.93019   -0.562671
 O 0.78341 0.38149 0.64037   -0.547078
 O 0.59703 0.19768 0.61732   -0.579809
 O 0.6654 0.77491 0.45201   -0.606078
 O 0.5974 0.5636 0.41703   -0.587483
 O 0.2172 0.6379 0.15104   -0.549871
 O 0.44152 0.74653 0.15672   -0.572954
 O 0.57605 0.43856 0.74178   -0.747944
 O 0.16333 0.36934 0.0608   -0.572438
 O 0.39056 0.4246 0.06981   -0.562672
 O 0.21659 0.61851 0.35963   -0.547077
 O 0.40297 0.80232 0.38268   -0.579833
 O 0.3346 0.22509 0.54799   -0.606084
 O 0.4026 0.4364 0.58297   -0.587488
 O 0.7828 0.3621 0.84896   -0.549897
 O 0.55848 0.25347 0.84328   -0.572954
 O 0.42395 0.56144 0.25822   -0.747944
