{'_ref': 'TBD', '_srcid': 'CAKYAQ_clean', 'submitters': [{'name': 'Dalar Nazarian Jeff Camp and David Sholl', 'email': 'dalar@gatech.edu jcamp6@gatech.edu'}], '_method': 'VASP DFT with PBE;DDEC'}
data_Co2H18C24N4O9
_symmetry_space_group_name_H-M   'P 1'
_cell_length_a   10.74300000
_cell_length_b   13.97799983
_cell_length_c   19.37400000
_cell_angle_alpha   90.00000000
_cell_angle_beta   90.00000000
_cell_angle_gamma   104.42000025
_symmetry_Int_Tables_number   1
_chemical_formula_structural   Co2H18C24N4O9
_chemical_formula_sum   'Co8 H72 C96 N16 O36'
_cell_volume   2817.65531209
_cell_formula_units_Z   4
loop_
 _symmetry_equiv_pos_site_id
 _symmetry_equiv_pos_as_xyz
  1  'x, y, z'
loop_
 _atom_site_label
 _atom_site_fract_x
 _atom_site_fract_y
 _atom_site_fract_z
 _atom_site_charge
 Co 0.9092 0.64111 0.88237   0.958298
 Co 0.7455 0.7961 0.97595   0.945315
 Co 0.0908 0.85889 0.38237   0.958298
 Co 0.2545 0.7039 0.47595   0.945315
 Co 0.0908 0.35889 0.11763   0.958298
 Co 0.2545 0.2039 0.02405   0.945315
 Co 0.9092 0.14111 0.61763   0.958298
 Co 0.7455 0.2961 0.52405   0.945315
 H 0.4511 0.381 0.9631   0.061713
 H 0.9917 0.4714 0.9392   0.060273
 H 0.512 0.1466 0.0508   0.077468
 H 0.3422 0.458 0.8795   0.101741
 H 0.095 0.0106 0.9812   0.058991
 H 0.8125 0.4811 0.7761   0.070615
 H 0.8066 0.344 0.9655   0.097708
 H 0.7288 0.1986 0.0269   0.125826
 H 0.3578 0.6048 0.8194   0.133725
 H 0.2174 0.8968 0.8148   0.099169
 H 0.184 0.6725 0.8148   0.077123
 H 0.3831 0.0375 0.8083   0.128712
 H 0.3978 0.1629 0.8865   0.078917
 H 0.9375 0.7627 0.747   0.075014
 H 0.8159 0.5895 0.5857   0.094589
 H 0.9094 0.7447 0.6309   0.130184
 H 0.724 0.743 0.869   0.431399
 H 0.699 0.642 0.886   0.431273
 H 0.5489 0.119 0.4631   0.061713
 H 0.0083 0.0286 0.4392   0.060273
 H 0.488 0.3534 0.5508   0.077468
 H 0.6578 0.042 0.3795   0.101741
 H 0.905 0.4894 0.4812   0.058991
 H 0.1875 0.0189 0.2761   0.070615
 H 0.1934 0.156 0.4655   0.097708
 H 0.2712 0.3014 0.5269   0.125826
 H 0.6422 0.8952 0.3194   0.133725
 H 0.7826 0.6032 0.3148   0.099169
 H 0.816 0.8275 0.3148   0.077123
 H 0.6169 0.4625 0.3083   0.128712
 H 0.6022 0.3371 0.3865   0.078917
 H 0.0625 0.7373 0.247   0.075014
 H 0.1841 0.9105 0.0857   0.094589
 H 0.0906 0.7553 0.1309   0.130184
 H 0.276 0.757 0.369   0.431399
 H 0.301 0.858 0.386   0.431273
 H 0.5489 0.619 0.0369   0.061713
 H 0.0083 0.5286 0.0608   0.060273
 H 0.488 0.8534 0.9492   0.077469
 H 0.6578 0.542 0.1205   0.10174
 H 0.905 0.9894 0.0188   0.05899
 H 0.1875 0.5189 0.2239   0.070616
 H 0.1934 0.656 0.0345   0.097709
 H 0.2712 0.8014 0.9731   0.125828
 H 0.6422 0.3952 0.1806   0.133724
 H 0.7826 0.1032 0.1852   0.099168
 H 0.816 0.3275 0.1852   0.077123
 H 0.6169 0.9625 0.1917   0.128712
 H 0.6022 0.8371 0.1135   0.078916
 H 0.0625 0.2373 0.253   0.075015
 H 0.1841 0.4105 0.4143   0.09459
 H 0.0906 0.2553 0.3691   0.130186
 H 0.276 0.257 0.131   0.431399
 H 0.301 0.358 0.114   0.431273
 H 0.4511 0.881 0.5369   0.061713
 H 0.9917 0.9714 0.5608   0.060273
 H 0.512 0.6466 0.4492   0.077469
 H 0.3422 0.958 0.6205   0.10174
 H 0.095 0.5106 0.5188   0.05899
 H 0.8125 0.9811 0.7239   0.070616
 H 0.8066 0.844 0.5345   0.097709
 H 0.7288 0.6986 0.4731   0.125828
 H 0.3578 0.1048 0.6806   0.133724
 H 0.2174 0.3968 0.6852   0.099168
 H 0.184 0.1725 0.6852   0.077123
 H 0.3831 0.5375 0.6917   0.128712
 H 0.3978 0.6629 0.6135   0.078916
 H 0.9375 0.2627 0.753   0.075015
 H 0.8159 0.0895 0.9143   0.09459
 H 0.9094 0.2447 0.8691   0.130186
 H 0.724 0.243 0.631   0.431399
 H 0.699 0.142 0.614   0.431273
 C 0.1356 0.9398 0.89932   -0.227174
 C 0.6345 0.3773 0.95634   -0.223891
 C 0.5076 0.3429 0.97485   0.212091
 C 0.0655 0.4973 0.91349   0.212282
 C 0.8023 0.518 0.67732   -0.216601
 C 0.5428 0.2057 0.0272   0.165681
 C 0.1637 0.4495 0.91684   -0.229093
 C 0.2747 0.4887 0.8797   0.056794
 C 0.1529 0.0169 0.94474   0.211973
 C 0.8293 0.535 0.74633   0.200687
 C 0.7198 0.3227 0.9763   0.053259
 C 0.6733 0.2362 0.0125   -0.198384
 C 0.2827 0.5748 0.8429   -0.196165
 C 0.2241 0.9474 0.8468   0.044544
 C 0.1785 0.616 0.8412   0.16014
 C 0.3219 0.0312 0.843   -0.198182
 C 0.3307 0.1064 0.8902   0.169213
 C 0.9045 0.6997 0.7292   0.197489
 C 0.832 0.5979 0.6328   0.044085
 C 0.886 0.6899 0.6597   -0.192147
 C 0.1503 0.363 0.9646   0.68742
 C 0.0246 0.851 0.90797   0.696412
 C 0.7468 0.415 0.651   0.670676
 C 0.6761 0.4731 0.91852   0.673402
 C 0.8644 0.5602 0.39932   -0.227174
 C 0.3655 0.1227 0.45634   -0.223891
 C 0.4924 0.1571 0.47485   0.212091
 C 0.9345 0.0027 0.41349   0.212282
 C 0.1977 0.982 0.17732   -0.216601
 C 0.4572 0.2943 0.5272   0.165681
 C 0.8363 0.0505 0.41684   -0.229093
 C 0.7253 0.0113 0.3797   0.056794
 C 0.8471 0.4831 0.44474   0.211973
 C 0.1707 0.965 0.24633   0.200687
 C 0.2802 0.1773 0.4763   0.053259
 C 0.3267 0.2638 0.5125   -0.198384
 C 0.7173 0.9252 0.3429   -0.196165
 C 0.7759 0.5526 0.3468   0.044544
 C 0.8215 0.884 0.3412   0.16014
 C 0.6781 0.4688 0.343   -0.198182
 C 0.6693 0.3936 0.3902   0.169213
 C 0.0955 0.8003 0.2292   0.197489
 C 0.168 0.9021 0.1328   0.044085
 C 0.114 0.8101 0.1597   -0.192147
 C 0.8497 0.137 0.4646   0.68742
 C 0.9754 0.649 0.40797   0.696412
 C 0.2532 0.085 0.151   0.670676
 C 0.3239 0.0269 0.41852   0.673402
 C 0.8644 0.0602 0.10068   -0.227174
 C 0.3655 0.6227 0.04366   -0.223891
 C 0.4924 0.6571 0.02515   0.212091
 C 0.9345 0.5027 0.08651   0.212282
 C 0.1977 0.482 0.32268   -0.216601
 C 0.4572 0.7943 0.9728   0.165681
 C 0.8363 0.5505 0.08316   -0.229093
 C 0.7253 0.5113 0.1203   0.056794
 C 0.8471 0.9831 0.05526   0.211974
 C 0.1707 0.465 0.25367   0.200687
 C 0.2802 0.6773 0.0237   0.053259
 C 0.3267 0.7638 0.9875   -0.198384
 C 0.7173 0.4252 0.1571   -0.196165
 C 0.7759 0.0526 0.1532   0.044546
 C 0.8215 0.384 0.1588   0.160141
 C 0.6781 0.9688 0.157   -0.198182
 C 0.6693 0.8936 0.1098   0.169214
 C 0.0955 0.3003 0.2708   0.197489
 C 0.168 0.4021 0.3672   0.044086
 C 0.114 0.3101 0.3403   -0.192146
 C 0.8497 0.637 0.0354   0.68742
 C 0.9754 0.149 0.09203   0.696411
 C 0.2532 0.585 0.349   0.670676
 C 0.3239 0.5269 0.08148   0.673401
 C 0.1356 0.4398 0.60068   -0.227174
 C 0.6345 0.8773 0.54366   -0.223891
 C 0.5076 0.8429 0.52515   0.212091
 C 0.0655 0.9973 0.58651   0.212282
 C 0.8023 0.018 0.82268   -0.216601
 C 0.5428 0.7057 0.4728   0.165681
 C 0.1637 0.9495 0.58316   -0.229093
 C 0.2747 0.9887 0.6203   0.056794
 C 0.1529 0.5169 0.55526   0.211974
 C 0.8293 0.035 0.75367   0.200687
 C 0.7198 0.8227 0.5237   0.053259
 C 0.6733 0.7362 0.4875   -0.198384
 C 0.2827 0.0748 0.6571   -0.196165
 C 0.2241 0.4474 0.6532   0.044546
 C 0.1785 0.116 0.6588   0.160141
 C 0.3219 0.5312 0.657   -0.198182
 C 0.3307 0.6064 0.6098   0.169214
 C 0.9045 0.1997 0.7708   0.197489
 C 0.832 0.0979 0.8672   0.044086
 C 0.886 0.1899 0.8403   -0.192146
 C 0.1503 0.863 0.5354   0.68742
 C 0.0246 0.351 0.59203   0.696411
 C 0.7468 0.915 0.849   0.670676
 C 0.6761 0.9731 0.58148   0.673401
 N 0.4601 0.258 0.00861   -0.363643
 N 0.0697 0.5777 0.87598   -0.349486
 N 0.2452 0.1003 0.94132   -0.342772
 N 0.8781 0.6244 0.77273   -0.370368
 N 0.5399 0.242 0.50861   -0.363643
 N 0.9303 0.9223 0.37598   -0.349486
 N 0.7548 0.3997 0.44132   -0.342772
 N 0.1219 0.8756 0.27273   -0.370368
 N 0.5399 0.742 0.99139   -0.363643
 N 0.9303 0.4223 0.12402   -0.349487
 N 0.7548 0.8997 0.05868   -0.342772
 N 0.1219 0.3756 0.22727   -0.370368
 N 0.4601 0.758 0.49139   -0.363643
 N 0.0697 0.0777 0.62402   -0.349487
 N 0.2452 0.6003 0.55868   -0.342772
 N 0.8781 0.1244 0.72727   -0.370368
 O 0.7392 0.69797 0.88948   -0.847704
 O 0.229 0.31121 0.95777   -0.576673
 O 0.0621 0.35079 0.00907   -0.598527
 O 0.9436 0.85723 0.95245   -0.577555
 O 0.0242 0.77943 0.86899   -0.592536
 O 0.7167 0.40673 0.58834   -0.616017
 O 0.738 0.3453 0.69301   -0.596007
 O 0.7948 0.50129 0.90396   -0.606129
 O 0.5944 0.5194 0.9049   -0.575148
 O 0.2608 0.80203 0.38948   -0.847704
 O 0.771 0.18879 0.45777   -0.576673
 O 0.9379 0.14921 0.50907   -0.598527
 O 0.0564 0.64277 0.45245   -0.577555
 O 0.9758 0.72057 0.36899   -0.592536
 O 0.2833 0.09327 0.08834   -0.616017
 O 0.262 0.1547 0.19301   -0.596007
 O 0.2052 0.99871 0.40396   -0.606129
 O 0.4056 0.9806 0.4049   -0.575148
 O 0.2608 0.30203 0.11052   -0.847704
 O 0.771 0.68879 0.04223   -0.576673
 O 0.9379 0.64921 0.99093   -0.598528
 O 0.0564 0.14277 0.04755   -0.577556
 O 0.9758 0.22057 0.13101   -0.592536
 O 0.2833 0.59327 0.41166   -0.616017
 O 0.262 0.6547 0.30699   -0.596007
 O 0.2052 0.49871 0.09604   -0.60613
 O 0.4056 0.4806 0.0951   -0.575148
 O 0.7392 0.19797 0.61052   -0.847704
 O 0.229 0.81121 0.54223   -0.576673
 O 0.0621 0.85079 0.49093   -0.598528
 O 0.9436 0.35723 0.54755   -0.577556
 O 0.0242 0.27943 0.63101   -0.592536
 O 0.7167 0.90673 0.91166   -0.616017
 O 0.738 0.8453 0.80699   -0.596007
 O 0.7948 0.00129 0.59604   -0.60613
 O 0.5944 0.0194 0.5951   -0.575148
