{'_ref': 'TBD', '_srcid': 'CAKYAQ_clean', 'submitters': [{'name': 'Dalar Nazarian Jeff Camp and David Sholl', 'email': 'dalar@gatech.edu jcamp6@gatech.edu'}], '_method': 'VASP DFT with PBE;DDEC'}
data_Cd2H11C17(NO4)2
_symmetry_space_group_name_H-M   'P 1'
_cell_length_a   14.20830000
_cell_length_b   18.08610032
_cell_length_c   19.29800000
_cell_angle_alpha   97.83600107
_cell_angle_beta   90.00000000
_cell_angle_gamma   90.00000000
_symmetry_Int_Tables_number   1
_chemical_formula_structural   Cd2H11C17(NO4)2
_chemical_formula_sum   'Cd16 H88 C136 N16 O64'
_cell_volume   4912.75405201
_cell_formula_units_Z   8
loop_
 _symmetry_equiv_pos_site_id
 _symmetry_equiv_pos_as_xyz
  1  'x, y, z'
loop_
 _atom_site_label
 _atom_site_fract_x
 _atom_site_fract_y
 _atom_site_fract_z
 _atom_site_charge
 Cd 0.20498 0.8366 0.56284   1.013088
 Cd 0.20187 0.67088 0.37554   1.130487
 Cd 0.13352 0.48807 0.97796   1.097011
 Cd 0.27014 0.59974 0.16445   1.040021
 Cd 0.20498 0.1634 0.93716   1.013087
 Cd 0.20187 0.32912 0.12446   1.130487
 Cd 0.13352 0.51193 0.52204   1.097011
 Cd 0.27014 0.40026 0.33555   1.040021
 Cd 0.79502 0.1634 0.43716   1.013088
 Cd 0.79813 0.32912 0.62446   1.130487
 Cd 0.86648 0.51193 0.02204   1.097011
 Cd 0.72986 0.40026 0.83555   1.040021
 Cd 0.79502 0.8366 0.06284   1.013087
 Cd 0.79813 0.67088 0.87554   1.130487
 Cd 0.86648 0.48807 0.47796   1.097011
 Cd 0.72986 0.59974 0.66445   1.040021
 H 0.0333 0.9264 0.3931   0.103941
 H 0.9639 0.9435 0.2872   0.119355
 H 0.9587 0.719 0.232   0.112004
 H 0.9126 0.6384 0.3935   0.140704
 H 0.9614 0.7076 0.4405   0.155095
 H 0.9589 0.6213 0.2652   0.126854
 H 0.0148 0.5671 0.3097   0.136169
 H 0.346 0.6866 0.9284   0.115746
 H 0.4791 0.7616 0.9411   0.125723
 H 0.5629 0.6594 0.1034   0.126898
 H 0.4723 0.4577 0.0742   0.139186
 H 0.3976 0.4869 0.0223   0.122469
 H 0.5561 0.5675 0.1503   0.112538
 H 0.4847 0.5163 0.1867   0.146302
 H 0.1132 0.7014 0.096   0.081991
 H 0.0932 0.8137 0.0534   0.135439
 H 0.361 0.8663 0.1119   0.139653
 H 0.3695 0.7557 0.1585   0.088346
 H 0.1167 0.8939 0.9758   0.117162
 H 0.1189 0.0026 0.9253   0.083538
 H 0.3101 0.0878 0.0548   0.097202
 H 0.3121 0.9838 0.1102   0.13389
 H 0.0333 0.0736 0.1069   0.103941
 H 0.9639 0.0565 0.2128   0.119356
 H 0.9587 0.281 0.268   0.112004
 H 0.9126 0.3616 0.1065   0.140704
 H 0.9614 0.2924 0.0595   0.155095
 H 0.9589 0.3787 0.2348   0.126854
 H 0.0148 0.4329 0.1903   0.136169
 H 0.346 0.3134 0.5716   0.115746
 H 0.4791 0.2384 0.5589   0.125723
 H 0.5629 0.3406 0.3966   0.126898
 H 0.4723 0.5423 0.4258   0.139186
 H 0.3976 0.5131 0.4777   0.122469
 H 0.5561 0.4325 0.3497   0.112538
 H 0.4847 0.4837 0.3133   0.146302
 H 0.1132 0.2986 0.404   0.081991
 H 0.0932 0.1863 0.4466   0.135439
 H 0.361 0.1337 0.3881   0.139652
 H 0.3695 0.2443 0.3415   0.088346
 H 0.1167 0.1061 0.5242   0.117162
 H 0.1189 0.9974 0.5747   0.083538
 H 0.3101 0.9122 0.4452   0.097202
 H 0.3121 0.0162 0.3898   0.13389
 H 0.9667 0.0736 0.6069   0.103941
 H 0.0361 0.0565 0.7128   0.119355
 H 0.0413 0.281 0.768   0.112004
 H 0.0874 0.3616 0.6065   0.140704
 H 0.0386 0.2924 0.5595   0.155095
 H 0.0411 0.3787 0.7348   0.126854
 H 0.9852 0.4329 0.6903   0.136169
 H 0.654 0.3134 0.0716   0.115746
 H 0.5209 0.2384 0.0589   0.125723
 H 0.4371 0.3406 0.8966   0.126898
 H 0.5277 0.5423 0.9258   0.139185
 H 0.6024 0.5131 0.9777   0.122469
 H 0.4439 0.4325 0.8497   0.112538
 H 0.5153 0.4837 0.8133   0.146302
 H 0.8868 0.2986 0.904   0.081991
 H 0.9068 0.1863 0.9466   0.135439
 H 0.639 0.1337 0.8881   0.139653
 H 0.6305 0.2443 0.8415   0.088345
 H 0.8833 0.1061 0.0242   0.117162
 H 0.8811 0.9974 0.0747   0.083538
 H 0.6899 0.9122 0.9452   0.097202
 H 0.6879 0.0162 0.8898   0.13389
 H 0.9667 0.9264 0.8931   0.103941
 H 0.0361 0.9435 0.7872   0.119356
 H 0.0413 0.719 0.732   0.112004
 H 0.0874 0.6384 0.8935   0.140704
 H 0.0386 0.7076 0.9405   0.155095
 H 0.0411 0.6213 0.7652   0.126854
 H 0.9852 0.5671 0.8097   0.136169
 H 0.654 0.6866 0.4284   0.115746
 H 0.5209 0.7616 0.4411   0.125723
 H 0.4371 0.6594 0.6034   0.126898
 H 0.5277 0.4577 0.5742   0.139185
 H 0.6024 0.4869 0.5223   0.122469
 H 0.4439 0.5675 0.6503   0.112538
 H 0.5153 0.5163 0.6867   0.146302
 H 0.8868 0.7014 0.596   0.081991
 H 0.9068 0.8137 0.5534   0.135439
 H 0.639 0.8663 0.6119   0.139652
 H 0.6305 0.7557 0.6585   0.088345
 H 0.8833 0.8939 0.4758   0.117162
 H 0.8811 0.0026 0.4253   0.083538
 H 0.6899 0.0878 0.5548   0.097202
 H 0.6879 0.9838 0.6102   0.133889
 C 0.0809 0.8095 0.4472   0.649837
 C 0.035 0.8133 0.3773   -0.237669
 C 0.0172 0.8841 0.3605   -0.026515
 C 0.9769 0.8947 0.2976   -0.084807
 C 0.9558 0.8323 0.2498   -0.050773
 C 0.9055 0.8418 0.1815   0.648705
 C 0.9733 0.761 0.2655   -0.152238
 C 0.0115 0.7501 0.329   0.150221
 C 0.9739 0.6604 0.4095   -0.224874
 C 0.0253 0.6069 0.4507   0.689558
 C 0.0186 0.6148 0.2902   -0.2413
 C 0.0989 0.611 0.2388   0.691086
 C 0.2826 0.5855 0.9961   0.67405
 C 0.3736 0.6276 0.0087   -0.273827
 C 0.3901 0.6808 0.9643   -0.000539
 C 0.4692 0.7252 0.9715   -0.103632
 C 0.5336 0.7166 0.0225   -0.017973
 C 0.6231 0.7621 0.028   0.65104
 C 0.5185 0.664 0.0674   -0.172288
 C 0.4398 0.6176 0.0609   0.16246
 C 0.4126 0.4855 0.0722   -0.237375
 C 0.335 0.4441 0.1047   0.68152
 C 0.4906 0.5639 0.1671   -0.252443
 C 0.4728 0.6281 0.2251   0.684612
 C 0.1635 0.7363 0.1005   0.163857
 C 0.1516 0.8024 0.0736   -0.191448
 C 0.2267 0.8526 0.0764   0.104228
 C 0.3083 0.8337 0.1086   -0.207459
 C 0.3129 0.7673 0.1361   0.186354
 C 0.1606 0.932 0.9918   -0.184858
 C 0.1621 0.9977 0.962   0.188357
 C 0.2718 0.0466 0.0368   0.170109
 C 0.2743 0.9844 0.0696   -0.208582
 C 0.222 0.9223 0.0439   0.10939
 C 0.0809 0.1905 0.0528   0.649837
 C 0.035 0.1867 0.1227   -0.237669
 C 0.0172 0.1159 0.1395   -0.026514
 C 0.9769 0.1053 0.2024   -0.084807
 C 0.9558 0.1677 0.2502   -0.050773
 C 0.9055 0.1582 0.3185   0.648705
 C 0.9733 0.239 0.2345   -0.152238
 C 0.0115 0.2499 0.171   0.150221
 C 0.9739 0.3396 0.0905   -0.224874
 C 0.0253 0.3931 0.0493   0.689558
 C 0.0186 0.3852 0.2098   -0.2413
 C 0.0989 0.389 0.2612   0.691086
 C 0.2826 0.4145 0.5039   0.67405
 C 0.3736 0.3724 0.4913   -0.273827
 C 0.3901 0.3192 0.5357   -0.000539
 C 0.4692 0.2748 0.5285   -0.103632
 C 0.5336 0.2834 0.4775   -0.017973
 C 0.6231 0.2379 0.472   0.65104
 C 0.5185 0.336 0.4326   -0.172288
 C 0.4398 0.3824 0.4391   0.16246
 C 0.4126 0.5145 0.4278   -0.237375
 C 0.335 0.5559 0.3953   0.68152
 C 0.4906 0.4361 0.3329   -0.252443
 C 0.4728 0.3719 0.2749   0.684612
 C 0.1635 0.2637 0.3995   0.163857
 C 0.1516 0.1976 0.4264   -0.191448
 C 0.2267 0.1474 0.4236   0.104228
 C 0.3083 0.1663 0.3914   -0.207459
 C 0.3129 0.2327 0.3639   0.186354
 C 0.1606 0.068 0.5082   -0.184858
 C 0.1621 0.0023 0.538   0.188357
 C 0.2718 0.9534 0.4632   0.170109
 C 0.2743 0.0156 0.4304   -0.208581
 C 0.222 0.0777 0.4561   0.109389
 C 0.9191 0.1905 0.5528   0.649837
 C 0.965 0.1867 0.6227   -0.237669
 C 0.9828 0.1159 0.6395   -0.026515
 C 0.0231 0.1053 0.7024   -0.084808
 C 0.0442 0.1677 0.7502   -0.050773
 C 0.0945 0.1582 0.8185   0.648705
 C 0.0267 0.239 0.7345   -0.152238
 C 0.9885 0.2499 0.671   0.150221
 C 0.0261 0.3396 0.5905   -0.224874
 C 0.9747 0.3931 0.5493   0.689558
 C 0.9814 0.3852 0.7098   -0.2413
 C 0.9011 0.389 0.7612   0.691086
 C 0.7174 0.4145 0.0039   0.67405
 C 0.6264 0.3724 0.9913   -0.273827
 C 0.6099 0.3192 0.0357   -0.00054
 C 0.5308 0.2748 0.0285   -0.103632
 C 0.4664 0.2834 0.9775   -0.017973
 C 0.3769 0.2379 0.972   0.65104
 C 0.4815 0.336 0.9326   -0.172288
 C 0.5602 0.3824 0.9391   0.16246
 C 0.5874 0.5145 0.9278   -0.237374
 C 0.665 0.5559 0.8953   0.68152
 C 0.5094 0.4361 0.8329   -0.252443
 C 0.5272 0.3719 0.7749   0.684612
 C 0.8365 0.2637 0.8995   0.163857
 C 0.8484 0.1976 0.9264   -0.191448
 C 0.7733 0.1474 0.9236   0.104228
 C 0.6917 0.1663 0.8914   -0.207459
 C 0.6871 0.2327 0.8639   0.186354
 C 0.8394 0.068 0.0082   -0.184858
 C 0.8379 0.0023 0.038   0.188356
 C 0.7282 0.9534 0.9632   0.170109
 C 0.7257 0.0156 0.9304   -0.208582
 C 0.778 0.0777 0.9561   0.10939
 C 0.9191 0.8095 0.9472   0.649837
 C 0.965 0.8133 0.8773   -0.237669
 C 0.9828 0.8841 0.8605   -0.026514
 C 0.0231 0.8947 0.7976   -0.084808
 C 0.0442 0.8323 0.7498   -0.050773
 C 0.0945 0.8418 0.6815   0.648705
 C 0.0267 0.761 0.7655   -0.152238
 C 0.9885 0.7501 0.829   0.150221
 C 0.0261 0.6604 0.9095   -0.224874
 C 0.9747 0.6069 0.9507   0.689558
 C 0.9814 0.6148 0.7902   -0.2413
 C 0.9011 0.611 0.7388   0.691086
 C 0.7174 0.5855 0.4961   0.67405
 C 0.6264 0.6276 0.5087   -0.273827
 C 0.6099 0.6808 0.4643   -0.00054
 C 0.5308 0.7252 0.4715   -0.103632
 C 0.4664 0.7166 0.5225   -0.017973
 C 0.3769 0.7621 0.528   0.65104
 C 0.4815 0.664 0.5674   -0.172288
 C 0.5602 0.6176 0.5609   0.16246
 C 0.5874 0.4855 0.5722   -0.237374
 C 0.665 0.4441 0.6047   0.68152
 C 0.5094 0.5639 0.6671   -0.252443
 C 0.5272 0.6281 0.7251   0.684611
 C 0.8365 0.7363 0.6005   0.163857
 C 0.8484 0.8024 0.5736   -0.191448
 C 0.7733 0.8526 0.5764   0.104228
 C 0.6917 0.8337 0.6086   -0.207459
 C 0.6871 0.7673 0.6361   0.186354
 C 0.8394 0.932 0.4918   -0.184858
 C 0.8379 0.9977 0.462   0.188356
 C 0.7282 0.0466 0.5368   0.170109
 C 0.7257 0.9844 0.5696   -0.208581
 C 0.778 0.9223 0.5439   0.109389
 N 0.0291 0.6766 0.348   -0.17229
 N 0.426 0.5624 0.1071   -0.129208
 N 0.2422 0.7185 0.1327   -0.358104
 N 0.2191 0.0531 0.9812   -0.342776
 N 0.0291 0.3234 0.152   -0.17229
 N 0.426 0.4376 0.3929   -0.129208
 N 0.2422 0.2815 0.3673   -0.358104
 N 0.2191 0.9469 0.5188   -0.342776
 N 0.9709 0.3234 0.652   -0.17229
 N 0.574 0.4376 0.8929   -0.129208
 N 0.7578 0.2815 0.8673   -0.358104
 N 0.7809 0.9469 0.0188   -0.342776
 N 0.9709 0.6766 0.848   -0.17229
 N 0.574 0.5624 0.6071   -0.129208
 N 0.7578 0.7185 0.6327   -0.358104
 N 0.7809 0.0531 0.4812   -0.342776
 O 0.1516 0.7667 0.45149   -0.641171
 O 0.0515 0.8515 0.49846   -0.539358
 O 0.892 0.9046 0.1663   -0.607066
 O 0.8782 0.7844 0.1441   -0.612394
 O 0.1092 0.5902 0.4368   -0.574464
 O 0.9813 0.5821 0.49923   -0.619916
 O 0.1786 0.6348 0.26088   -0.625121
 O 0.0886 0.5815 0.17746   -0.589053
 O 0.2474 0.5765 0.9366   -0.564905
 O 0.2415 0.5598 0.04669   -0.632917
 O 0.6346 0.8077 0.9865   -0.637112
 O 0.683 0.749 0.0706   -0.600642
 O 0.2923 0.4723 0.1576   -0.590979
 O 0.3193 0.3792 0.0739   -0.585229
 O 0.3896 0.6543 0.2322   -0.668823
 O 0.5376 0.6491 0.2643   -0.586062
 O 0.1516 0.2333 0.04851   -0.641171
 O 0.0515 0.1485 0.00154   -0.539358
 O 0.892 0.0954 0.3337   -0.607066
 O 0.8782 0.2156 0.3559   -0.612394
 O 0.1092 0.4098 0.0632   -0.574464
 O 0.9813 0.4179 0.000770000000003   -0.619916
 O 0.1786 0.3652 0.23912   -0.625121
 O 0.0886 0.4185 0.32254   -0.589053
 O 0.2474 0.4235 0.5634   -0.564905
 O 0.2415 0.4402 0.45331   -0.632917
 O 0.6346 0.1923 0.5135   -0.637112
 O 0.683 0.251 0.4294   -0.600642
 O 0.2923 0.5277 0.3424   -0.590979
 O 0.3193 0.6208 0.4261   -0.585229
 O 0.3896 0.3457 0.2678   -0.668823
 O 0.5376 0.3509 0.2357   -0.586062
 O 0.8484 0.2333 0.54851   -0.641171
 O 0.9485 0.1485 0.50154   -0.539358
 O 0.108 0.0954 0.8337   -0.607066
 O 0.1218 0.2156 0.8559   -0.612394
 O 0.8908 0.4098 0.5632   -0.574464
 O 0.0187 0.4179 0.50077   -0.619916
 O 0.8214 0.3652 0.73912   -0.625121
 O 0.9114 0.4185 0.82254   -0.589053
 O 0.7526 0.4235 0.0634   -0.564905
 O 0.7585 0.4402 0.95331   -0.632917
 O 0.3654 0.1923 0.0135   -0.637112
 O 0.317 0.251 0.9294   -0.600642
 O 0.7077 0.5277 0.8424   -0.590979
 O 0.6807 0.6208 0.9261   -0.585229
 O 0.6104 0.3457 0.7678   -0.668823
 O 0.4624 0.3509 0.7357   -0.586062
 O 0.8484 0.7667 0.95149   -0.641171
 O 0.9485 0.8515 0.99846   -0.539358
 O 0.108 0.9046 0.6663   -0.607066
 O 0.1218 0.7844 0.6441   -0.612394
 O 0.8908 0.5902 0.9368   -0.574464
 O 0.0187 0.5821 0.99923   -0.619916
 O 0.8214 0.6348 0.76088   -0.625121
 O 0.9114 0.5815 0.67746   -0.589053
 O 0.7526 0.5765 0.4366   -0.564905
 O 0.7585 0.5598 0.54669   -0.632917
 O 0.3654 0.8077 0.4865   -0.637112
 O 0.317 0.749 0.5706   -0.600642
 O 0.7077 0.4723 0.6576   -0.590979
 O 0.6807 0.3792 0.5739   -0.585229
 O 0.6104 0.6543 0.7322   -0.668823
 O 0.4624 0.6491 0.7643   -0.586062
