{'_ref': 'TBD', '_srcid': 'CAKYAQ_clean', 'submitters': [{'name': 'Dalar Nazarian Jeff Camp and David Sholl', 'email': 'dalar@gatech.edu jcamp6@gatech.edu'}], '_method': 'VASP DFT with PBE;DDEC'}
data_CdCu3H20C16N24(Cl3O)2
_symmetry_space_group_name_H-M   'P 1'
_cell_length_a   13.25600000
_cell_length_b   18.19300000
_cell_length_c   18.19300000
_cell_angle_alpha   90.00000000
_cell_angle_beta   90.00000000
_cell_angle_gamma   90.00000000
_symmetry_Int_Tables_number   1
_chemical_formula_structural   CdCu3H20C16N24(Cl3O)2
_chemical_formula_sum   'Cd4 Cu12 H80 C64 N96 Cl24 O8'
_cell_volume   4387.54046074
_cell_formula_units_Z   4
loop_
 _symmetry_equiv_pos_site_id
 _symmetry_equiv_pos_as_xyz
  1  'x, y, z'
loop_
 _atom_site_label
 _atom_site_fract_x
 _atom_site_fract_y
 _atom_site_fract_z
 _atom_site_charge
 Cd 0.25 0.25 0.75   0.769534
 Cd 0.75 0.75 0.25   0.769534
 Cd 0.75 0.25 0.75   0.769534
 Cd 0.25 0.75 0.25   0.769534
 Cu 0.23272 0.01167 0.48833   0.458897
 Cu 0.73272 0.01167 0.01167   0.458897
 Cu 0.73272 0.48833 0.48833   0.458897
 Cu 0.76728 0.98833 0.51167   0.458897
 Cu 0.23272 0.48833 0.01167   0.458897
 Cu 0.26728 0.98833 0.98833   0.458897
 Cu 0.26728 0.51167 0.51167   0.458897
 Cu 0.76728 0.51167 0.98833   0.458897
 Cu 0.5 0.0 0.5   0.492037
 Cu 0.0 0.0 0.0   0.492037
 Cu 0.0 0.5 0.5   0.492037
 Cu 0.5 0.5 0.0   0.492037
 H 0.5121 0.0197 0.6749   0.129869
 H 0.0121 0.8251 0.0197   0.129869
 H 0.0121 0.6749 0.4803   0.129869
 H 0.4879 0.1749 0.5197   0.129869
 H 0.5121 0.4803 0.8251   0.129869
 H 0.9879 0.9803 0.1749   0.129869
 H 0.9879 0.5197 0.3251   0.129869
 H 0.4879 0.3251 0.9803   0.129869
 H 0.4879 0.9803 0.3251   0.129869
 H 0.9879 0.1749 0.9803   0.129869
 H 0.9879 0.3251 0.5197   0.129869
 H 0.5121 0.8251 0.4803   0.129869
 H 0.4879 0.5197 0.1749   0.129869
 H 0.0121 0.0197 0.8251   0.129869
 H 0.0121 0.4803 0.6749   0.129869
 H 0.5121 0.6749 0.0197   0.129869
 H 0.2096 0.0343 0.6698   0.113167
 H 0.7096 0.8302 0.0343   0.113167
 H 0.7096 0.6698 0.4657   0.113167
 H 0.7904 0.1698 0.5343   0.113167
 H 0.2096 0.4657 0.8302   0.113167
 H 0.2904 0.9657 0.1698   0.113167
 H 0.2904 0.5343 0.3302   0.113167
 H 0.7904 0.3302 0.9657   0.113167
 H 0.7904 0.9657 0.3302   0.113167
 H 0.2904 0.1698 0.9657   0.113167
 H 0.2904 0.3302 0.5343   0.113167
 H 0.2096 0.8302 0.4657   0.113167
 H 0.7904 0.5343 0.1698   0.113167
 H 0.7096 0.0343 0.8302   0.113167
 H 0.7096 0.4657 0.6698   0.113167
 H 0.2096 0.6698 0.0343   0.113167
 H 0.4402 0.1293 0.795   0.117749
 H 0.9402 0.705 0.1293   0.117749
 H 0.9402 0.795 0.3707   0.117749
 H 0.5598 0.295 0.6293   0.117749
 H 0.4402 0.3707 0.705   0.117749
 H 0.0598 0.8707 0.295   0.117749
 H 0.0598 0.6293 0.205   0.117749
 H 0.5598 0.205 0.8707   0.117749
 H 0.5598 0.8707 0.205   0.117749
 H 0.0598 0.295 0.8707   0.117749
 H 0.0598 0.205 0.6293   0.117749
 H 0.4402 0.705 0.3707   0.117749
 H 0.5598 0.6293 0.295   0.117749
 H 0.9402 0.1293 0.705   0.117749
 H 0.9402 0.3707 0.795   0.117749
 H 0.4402 0.795 0.1293   0.117749
 H 0.2788 0.9433 0.8119   0.127652
 H 0.7788 0.6881 0.9433   0.127652
 H 0.7788 0.8119 0.5567   0.127652
 H 0.7212 0.3119 0.4433   0.127652
 H 0.2788 0.5567 0.6881   0.127652
 H 0.2212 0.0567 0.3119   0.127652
 H 0.2212 0.4433 0.1881   0.127652
 H 0.7212 0.1881 0.0567   0.127652
 H 0.7212 0.0567 0.1881   0.12765
 H 0.2212 0.3119 0.0567   0.12765
 H 0.2212 0.1881 0.4433   0.12765
 H 0.2788 0.6881 0.5567   0.12765
 H 0.7212 0.4433 0.3119   0.12765
 H 0.7788 0.9433 0.6881   0.12765
 H 0.7788 0.5567 0.8119   0.12765
 H 0.2788 0.8119 0.9433   0.12765
 H 0.0892 0.9611 0.5899   0.387869
 H 0.5892 0.9101 0.9611   0.387869
 H 0.5892 0.5899 0.5389   0.387869
 H 0.9108 0.0899 0.4611   0.387869
 H 0.0892 0.5389 0.9101   0.387869
 H 0.4108 0.0389 0.0899   0.387869
 H 0.4108 0.4611 0.4101   0.387869
 H 0.9108 0.4101 0.0389   0.387869
 H 0.9108 0.0389 0.4101   0.387871
 H 0.4108 0.0899 0.0389   0.387871
 H 0.4108 0.4101 0.4611   0.387871
 H 0.0892 0.9101 0.5389   0.387871
 H 0.9108 0.4611 0.0899   0.387871
 H 0.5892 0.9611 0.9101   0.387871
 H 0.5892 0.5389 0.5899   0.387871
 H 0.0892 0.5899 0.9611   0.387871
 C 0.4437 0.0214 0.6577   0.11786
 C 0.9437 0.8423 0.0214   0.11786
 C 0.9437 0.6577 0.4786   0.11786
 C 0.5563 0.1577 0.5214   0.11786
 C 0.4437 0.4786 0.8423   0.11786
 C 0.0563 0.9786 0.1577   0.11786
 C 0.0563 0.5214 0.3423   0.11786
 C 0.5563 0.3423 0.9786   0.11786
 C 0.5563 0.9786 0.3423   0.11786
 C 0.0563 0.1577 0.9786   0.11786
 C 0.0563 0.3423 0.5214   0.11786
 C 0.4437 0.8423 0.4786   0.11786
 C 0.5563 0.5214 0.1577   0.11786
 C 0.9437 0.0214 0.8423   0.11786
 C 0.9437 0.4786 0.6577   0.11786
 C 0.4437 0.6577 0.0214   0.11786
 C 0.2787 0.0295 0.6548   0.097383
 C 0.7787 0.8452 0.0295   0.097383
 C 0.7787 0.6548 0.4705   0.097383
 C 0.7213 0.1548 0.5295   0.097383
 C 0.2787 0.4705 0.8452   0.097383
 C 0.2213 0.9705 0.1548   0.097383
 C 0.2213 0.5295 0.3452   0.097383
 C 0.7213 0.3452 0.9705   0.097383
 C 0.7213 0.9705 0.3452   0.097383
 C 0.2213 0.1548 0.9705   0.097383
 C 0.2213 0.3452 0.5295   0.097383
 C 0.2787 0.8452 0.4705   0.097383
 C 0.7213 0.5295 0.1548   0.097383
 C 0.7787 0.0295 0.8452   0.097383
 C 0.7787 0.4705 0.6548   0.097383
 C 0.2787 0.6548 0.0295   0.097383
 C 0.4037 0.0885 0.8154   0.126635
 C 0.9037 0.6846 0.0885   0.126635
 C 0.9037 0.8154 0.4115   0.126635
 C 0.5963 0.3154 0.5885   0.126635
 C 0.4037 0.4115 0.6846   0.126635
 C 0.0963 0.9115 0.3154   0.126635
 C 0.0963 0.5885 0.1846   0.126635
 C 0.5963 0.1846 0.9115   0.126635
 C 0.5963 0.9115 0.1846   0.126635
 C 0.0963 0.3154 0.9115   0.126635
 C 0.0963 0.1846 0.5885   0.126635
 C 0.4037 0.6846 0.4115   0.126635
 C 0.5963 0.5885 0.3154   0.126635
 C 0.9037 0.0885 0.6846   0.126635
 C 0.9037 0.4115 0.8154   0.126635
 C 0.4037 0.8154 0.0885   0.126635
 C 0.3159 0.9869 0.8242   0.077047
 C 0.8159 0.6758 0.9869   0.077047
 C 0.8159 0.8242 0.5131   0.077047
 C 0.6841 0.3242 0.4869   0.077047
 C 0.3159 0.5131 0.6758   0.077047
 C 0.1841 0.0131 0.3242   0.077047
 C 0.1841 0.4869 0.1758   0.077047
 C 0.6841 0.1758 0.0131   0.077047
 C 0.6841 0.0131 0.1758   0.077047
 C 0.1841 0.3242 0.0131   0.077047
 C 0.1841 0.1758 0.4869   0.077047
 C 0.3159 0.6758 0.5131   0.077047
 C 0.6841 0.4869 0.3242   0.077047
 C 0.8159 0.9869 0.6758   0.077047
 C 0.8159 0.5131 0.8242   0.077047
 C 0.3159 0.8242 0.9869   0.077047
 N 0.4147 0.01855 0.58955   -0.138238
 N 0.9147 0.91045 0.01855   -0.138238
 N 0.9147 0.58955 0.48145   -0.138238
 N 0.5853 0.08955 0.51855   -0.138238
 N 0.4147 0.48145 0.91045   -0.138238
 N 0.0853 0.98145 0.08955   -0.138238
 N 0.0853 0.51855 0.41045   -0.138238
 N 0.5853 0.41045 0.98145   -0.138238
 N 0.5853 0.98145 0.41045   -0.138238
 N 0.0853 0.08955 0.98145   -0.138238
 N 0.0853 0.41045 0.51855   -0.138238
 N 0.4147 0.91045 0.48145   -0.138238
 N 0.5853 0.51855 0.08955   -0.138238
 N 0.9147 0.01855 0.91045   -0.138238
 N 0.9147 0.48145 0.58955   -0.138238
 N 0.4147 0.58955 0.01855   -0.138238
 N 0.3105 0.02294 0.58768   -0.162409
 N 0.8105 0.91232 0.02294   -0.162409
 N 0.8105 0.58768 0.47706   -0.162409
 N 0.6895 0.08768 0.52294   -0.162409
 N 0.3105 0.47706 0.91232   -0.162409
 N 0.1895 0.97706 0.08768   -0.162409
 N 0.1895 0.52294 0.41232   -0.162409
 N 0.6895 0.41232 0.97706   -0.162409
 N 0.6895 0.97706 0.41232   -0.162409
 N 0.1895 0.08768 0.97706   -0.162409
 N 0.1895 0.41232 0.52294   -0.162409
 N 0.3105 0.91232 0.47706   -0.162409
 N 0.6895 0.52294 0.08768   -0.162409
 N 0.8105 0.02294 0.91232   -0.162409
 N 0.8105 0.47706 0.58768   -0.162409
 N 0.3105 0.58768 0.02294   -0.162409
 N 0.3607 0.0278 0.70033   0.057323
 N 0.8607 0.79967 0.0278   0.057323
 N 0.8607 0.70033 0.4722   0.057323
 N 0.6393 0.20033 0.5278   0.057323
 N 0.3607 0.4722 0.79967   0.057323
 N 0.1393 0.9722 0.20033   0.057323
 N 0.1393 0.5278 0.29967   0.057323
 N 0.6393 0.29967 0.9722   0.057323
 N 0.6393 0.9722 0.29967   0.057323
 N 0.1393 0.20033 0.9722   0.057323
 N 0.1393 0.29967 0.5278   0.057323
 N 0.3607 0.79967 0.4722   0.057323
 N 0.6393 0.5278 0.20033   0.057323
 N 0.8607 0.0278 0.79967   0.057323
 N 0.8607 0.4722 0.70033   0.057323
 N 0.3607 0.70033 0.0278   0.057323
 N 0.3891 0.0767 0.885   -0.245315
 N 0.8891 0.615 0.0767   -0.245315
 N 0.8891 0.885 0.4233   -0.245315
 N 0.6109 0.385 0.5767   -0.245315
 N 0.3891 0.4233 0.615   -0.245315
 N 0.1109 0.9233 0.385   -0.245315
 N 0.1109 0.5767 0.115   -0.245315
 N 0.6109 0.115 0.9233   -0.245315
 N 0.6109 0.9233 0.115   -0.245315
 N 0.1109 0.385 0.9233   -0.245315
 N 0.1109 0.115 0.5767   -0.245315
 N 0.3891 0.615 0.4233   -0.245315
 N 0.6109 0.5767 0.385   -0.245315
 N 0.8891 0.0767 0.615   -0.245315
 N 0.8891 0.4233 0.885   -0.245315
 N 0.3891 0.885 0.0767   -0.245315
 N 0.3333 0.0117 0.8902   -0.129707
 N 0.8333 0.6098 0.0117   -0.129707
 N 0.8333 0.8902 0.4883   -0.129707
 N 0.6667 0.3902 0.5117   -0.129707
 N 0.3333 0.4883 0.6098   -0.129707
 N 0.1667 0.9883 0.3902   -0.129707
 N 0.1667 0.5117 0.1098   -0.129707
 N 0.6667 0.1098 0.9883   -0.129707
 N 0.6667 0.9883 0.1098   -0.129707
 N 0.1667 0.3902 0.9883   -0.129707
 N 0.1667 0.1098 0.5117   -0.129707
 N 0.3333 0.6098 0.4883   -0.129707
 N 0.6667 0.5117 0.3902   -0.129707
 N 0.8333 0.0117 0.6098   -0.129707
 N 0.8333 0.4883 0.8902   -0.129707
 N 0.3333 0.8902 0.0117   -0.129707
 N 0.3601 0.0338 0.77596   0.052491
 N 0.8601 0.72404 0.0338   0.052491
 N 0.8601 0.77596 0.4662   0.052491
 N 0.6399 0.27596 0.5338   0.052491
 N 0.3601 0.4662 0.72404   0.052491
 N 0.1399 0.9662 0.27596   0.052491
 N 0.1399 0.5338 0.22404   0.052491
 N 0.6399 0.22404 0.9662   0.052491
 N 0.6399 0.9662 0.22404   0.052491
 N 0.1399 0.27596 0.9662   0.052491
 N 0.1399 0.22404 0.5338   0.052491
 N 0.3601 0.72404 0.4662   0.052491
 N 0.6399 0.5338 0.27596   0.052491
 N 0.8601 0.0338 0.72404   0.052491
 N 0.8601 0.4662 0.77596   0.052491
 N 0.3601 0.77596 0.0338   0.052491
 Cl 0.37694 0.07996 0.42004   -0.703163
 Cl 0.87694 0.07996 0.07996   -0.703163
 Cl 0.87694 0.42004 0.42004   -0.703163
 Cl 0.62306 0.92004 0.57996   -0.703163
 Cl 0.37694 0.42004 0.07996   -0.703163
 Cl 0.12306 0.92004 0.92004   -0.703163
 Cl 0.12306 0.57996 0.57996   -0.703163
 Cl 0.62306 0.57996 0.92004   -0.703163
 Cl 0.14165 0.14455 0.78633   -0.561904
 Cl 0.64165 0.71367 0.14455   -0.561904
 Cl 0.64165 0.78633 0.35545   -0.561904
 Cl 0.85835 0.28633 0.64455   -0.561904
 Cl 0.14165 0.35545 0.71367   -0.561904
 Cl 0.35835 0.85545 0.28633   -0.561904
 Cl 0.35835 0.64455 0.21367   -0.561904
 Cl 0.85835 0.21367 0.85545   -0.561904
 Cl 0.85835 0.85545 0.21367   -0.561904
 Cl 0.35835 0.28633 0.85545   -0.561904
 Cl 0.35835 0.21367 0.64455   -0.561904
 Cl 0.14165 0.71367 0.35545   -0.561904
 Cl 0.85835 0.64455 0.28633   -0.561904
 Cl 0.64165 0.14455 0.71367   -0.561904
 Cl 0.64165 0.35545 0.78633   -0.561904
 Cl 0.14165 0.78633 0.14455   -0.561904
 O 0.0872 0.957 0.543   -0.721463
 O 0.5872 0.957 0.957   -0.721463
 O 0.5872 0.543 0.543   -0.721463
 O 0.9128 0.043 0.457   -0.721463
 O 0.0872 0.543 0.957   -0.721463
 O 0.4128 0.043 0.043   -0.721463
 O 0.4128 0.457 0.457   -0.721463
 O 0.9128 0.457 0.043   -0.721463
