{'_ref': 'TBD', '_srcid': 'CAKYAQ_clean', 'submitters': [{'name': 'Dalar Nazarian Jeff Camp and David Sholl', 'email': 'dalar@gatech.edu jcamp6@gatech.edu'}], '_method': 'VASP DFT with PBE;DDEC'}
data_Cu3HgH20C16N24(Cl3O)2
_symmetry_space_group_name_H-M   'P 1'
_cell_length_a   13.23420000
_cell_length_b   18.08080000
_cell_length_c   18.08080000
_cell_angle_alpha   90.00000000
_cell_angle_beta   90.00000000
_cell_angle_gamma   90.00000000
_symmetry_Int_Tables_number   1
_chemical_formula_structural   Cu3HgH20C16N24(Cl3O)2
_chemical_formula_sum   'Cu12 Hg4 H80 C64 N96 Cl24 O8'
_cell_volume   4326.46284229
_cell_formula_units_Z   4
loop_
 _symmetry_equiv_pos_site_id
 _symmetry_equiv_pos_as_xyz
  1  'x, y, z'
loop_
 _atom_site_label
 _atom_site_fract_x
 _atom_site_fract_y
 _atom_site_fract_z
 _atom_site_charge
 Cu 0.23499 0.01156 0.48844   0.461554
 Cu 0.73499 0.01156 0.01156   0.461554
 Cu 0.73499 0.48844 0.48844   0.461554
 Cu 0.76501 0.98844 0.51156   0.461554
 Cu 0.23499 0.48844 0.01156   0.461554
 Cu 0.26501 0.98844 0.98844   0.461554
 Cu 0.26501 0.51156 0.51156   0.461554
 Cu 0.76501 0.51156 0.98844   0.461554
 Cu 0.5 0.0 0.5   0.481134
 Cu 0.0 0.0 0.0   0.481134
 Cu 0.0 0.5 0.5   0.481134
 Cu 0.5 0.5 0.0   0.481134
 Hg 0.25 0.25 0.75   0.596847
 Hg 0.75 0.75 0.25   0.596847
 Hg 0.75 0.25 0.75   0.596847
 Hg 0.25 0.75 0.25   0.596847
 H 0.5116 0.0199 0.6749   0.127246
 H 0.0116 0.8251 0.0199   0.127246
 H 0.0116 0.6749 0.4801   0.127246
 H 0.4884 0.1749 0.5199   0.127246
 H 0.5116 0.4801 0.8251   0.127246
 H 0.9884 0.9801 0.1749   0.127246
 H 0.9884 0.5199 0.3251   0.127246
 H 0.4884 0.3251 0.9801   0.127246
 H 0.4884 0.9801 0.3251   0.127246
 H 0.9884 0.1749 0.9801   0.127246
 H 0.9884 0.3251 0.5199   0.127246
 H 0.5116 0.8251 0.4801   0.127246
 H 0.4884 0.5199 0.1749   0.127246
 H 0.0116 0.0199 0.8251   0.127246
 H 0.0116 0.4801 0.6749   0.127246
 H 0.5116 0.6749 0.0199   0.127246
 H 0.2091 0.0338 0.6701   0.110726
 H 0.7091 0.8299 0.0338   0.110726
 H 0.7091 0.6701 0.4662   0.110726
 H 0.7909 0.1701 0.5338   0.110726
 H 0.2091 0.4662 0.8299   0.110726
 H 0.2909 0.9662 0.1701   0.110726
 H 0.2909 0.5338 0.3299   0.110726
 H 0.7909 0.3299 0.9662   0.110726
 H 0.7909 0.9662 0.3299   0.110726
 H 0.2909 0.1701 0.9662   0.110726
 H 0.2909 0.3299 0.5338   0.110726
 H 0.2091 0.8299 0.4662   0.110726
 H 0.7909 0.5338 0.1701   0.110726
 H 0.7091 0.0338 0.8299   0.110726
 H 0.7091 0.4662 0.6701   0.110726
 H 0.2091 0.6701 0.0338   0.110726
 H 0.4391 0.1293 0.7961   0.112768
 H 0.9391 0.7039 0.1293   0.112768
 H 0.9391 0.7961 0.3707   0.112768
 H 0.5609 0.2961 0.6293   0.112768
 H 0.4391 0.3707 0.7039   0.112767
 H 0.0609 0.8707 0.2961   0.112767
 H 0.0609 0.6293 0.2039   0.112767
 H 0.5609 0.2039 0.8707   0.112767
 H 0.5609 0.8707 0.2039   0.112768
 H 0.0609 0.2961 0.8707   0.112768
 H 0.0609 0.2039 0.6293   0.112768
 H 0.4391 0.7039 0.3707   0.112768
 H 0.5609 0.6293 0.2961   0.112767
 H 0.9391 0.1293 0.7039   0.112767
 H 0.9391 0.3707 0.7961   0.112767
 H 0.4391 0.7961 0.1293   0.112767
 H 0.2787 0.9434 0.8127   0.124887
 H 0.7787 0.6873 0.9434   0.124887
 H 0.7787 0.8127 0.5566   0.124887
 H 0.7213 0.3127 0.4434   0.124887
 H 0.2787 0.5566 0.6873   0.124887
 H 0.2213 0.0566 0.3127   0.124887
 H 0.2213 0.4434 0.1873   0.124887
 H 0.7213 0.1873 0.0566   0.124887
 H 0.7213 0.0566 0.1873   0.124884
 H 0.2213 0.3127 0.0566   0.124884
 H 0.2213 0.1873 0.4434   0.124884
 H 0.2787 0.6873 0.5566   0.124884
 H 0.7213 0.4434 0.3127   0.124884
 H 0.7787 0.9434 0.6873   0.124884
 H 0.7787 0.5566 0.8127   0.124884
 H 0.2787 0.8127 0.9434   0.124884
 H 0.0891 0.9612 0.5906   0.374668
 H 0.5891 0.9094 0.9612   0.374668
 H 0.5891 0.5906 0.5388   0.374668
 H 0.9109 0.0906 0.4612   0.374668
 H 0.0891 0.5388 0.9094   0.374668
 H 0.4109 0.0388 0.0906   0.374668
 H 0.4109 0.4612 0.4094   0.374668
 H 0.9109 0.4094 0.0388   0.374668
 H 0.9109 0.0388 0.4094   0.37467
 H 0.4109 0.0906 0.0388   0.37467
 H 0.4109 0.4094 0.4612   0.37467
 H 0.0891 0.9094 0.5388   0.37467
 H 0.9109 0.4612 0.0906   0.37467
 H 0.5891 0.9612 0.9094   0.37467
 H 0.5891 0.5388 0.5906   0.37467
 H 0.0891 0.5906 0.9612   0.37467
 C 0.4431 0.0216 0.6577   0.117169
 C 0.9431 0.8423 0.0216   0.117169
 C 0.9431 0.6577 0.4784   0.117169
 C 0.5569 0.1577 0.5216   0.117169
 C 0.4431 0.4784 0.8423   0.117169
 C 0.0569 0.9784 0.1577   0.117169
 C 0.0569 0.5216 0.3423   0.117169
 C 0.5569 0.3423 0.9784   0.117169
 C 0.5569 0.9784 0.3423   0.117169
 C 0.0569 0.1577 0.9784   0.117169
 C 0.0569 0.3423 0.5216   0.117169
 C 0.4431 0.8423 0.4784   0.117169
 C 0.5569 0.5216 0.1577   0.117169
 C 0.9431 0.0216 0.8423   0.117169
 C 0.9431 0.4784 0.6577   0.117169
 C 0.4431 0.6577 0.0216   0.117169
 C 0.2782 0.029 0.655   0.094538
 C 0.7782 0.845 0.029   0.094538
 C 0.7782 0.655 0.471   0.094538
 C 0.7218 0.155 0.529   0.094538
 C 0.2782 0.471 0.845   0.094538
 C 0.2218 0.971 0.155   0.094538
 C 0.2218 0.529 0.345   0.094538
 C 0.7218 0.345 0.971   0.094538
 C 0.7218 0.971 0.345   0.094539
 C 0.2218 0.155 0.971   0.094539
 C 0.2218 0.345 0.529   0.094539
 C 0.2782 0.845 0.471   0.094539
 C 0.7218 0.529 0.155   0.094539
 C 0.7782 0.029 0.845   0.094539
 C 0.7782 0.471 0.655   0.094539
 C 0.2782 0.655 0.029   0.094539
 C 0.4026 0.0885 0.8165   0.130778
 C 0.9026 0.6835 0.0885   0.130778
 C 0.9026 0.8165 0.4115   0.130778
 C 0.5974 0.3165 0.5885   0.130778
 C 0.4026 0.4115 0.6835   0.130778
 C 0.0974 0.9115 0.3165   0.130778
 C 0.0974 0.5885 0.1835   0.130778
 C 0.5974 0.1835 0.9115   0.130778
 C 0.5974 0.9115 0.1835   0.130778
 C 0.0974 0.3165 0.9115   0.130778
 C 0.0974 0.1835 0.5885   0.130778
 C 0.4026 0.6835 0.4115   0.130778
 C 0.5974 0.5885 0.3165   0.130778
 C 0.9026 0.0885 0.6835   0.130778
 C 0.9026 0.4115 0.8165   0.130778
 C 0.4026 0.8165 0.0885   0.130778
 C 0.3158 0.987 0.8249   0.074103
 C 0.8158 0.6751 0.987   0.074103
 C 0.8158 0.8249 0.513   0.074103
 C 0.6842 0.3249 0.487   0.074103
 C 0.3158 0.513 0.6751   0.074103
 C 0.1842 0.013 0.3249   0.074103
 C 0.1842 0.487 0.1751   0.074103
 C 0.6842 0.1751 0.013   0.074103
 C 0.6842 0.013 0.1751   0.074103
 C 0.1842 0.3249 0.013   0.074103
 C 0.1842 0.1751 0.487   0.074103
 C 0.3158 0.6751 0.513   0.074103
 C 0.6842 0.487 0.3249   0.074103
 C 0.8158 0.987 0.6751   0.074103
 C 0.8158 0.513 0.8249   0.074103
 C 0.3158 0.8249 0.987   0.074103
 N 0.4145 0.0194 0.5896   -0.137635
 N 0.9145 0.9104 0.0194   -0.137635
 N 0.9145 0.5896 0.4806   -0.137635
 N 0.5855 0.0896 0.5194   -0.137635
 N 0.4145 0.4806 0.9104   -0.137635
 N 0.0855 0.9806 0.0896   -0.137635
 N 0.0855 0.5194 0.4104   -0.137635
 N 0.5855 0.4104 0.9806   -0.137635
 N 0.5855 0.9806 0.4104   -0.137635
 N 0.0855 0.0896 0.9806   -0.137635
 N 0.0855 0.4104 0.5194   -0.137635
 N 0.4145 0.9104 0.4806   -0.137635
 N 0.5855 0.5194 0.0896   -0.137635
 N 0.9145 0.0194 0.9104   -0.137635
 N 0.9145 0.4806 0.5896   -0.137635
 N 0.4145 0.5896 0.0194   -0.137635
 N 0.3101 0.0227 0.5872   -0.159713
 N 0.8101 0.9128 0.0227   -0.159713
 N 0.8101 0.5872 0.4773   -0.159713
 N 0.6899 0.0872 0.5227   -0.159713
 N 0.3101 0.4773 0.9128   -0.159713
 N 0.1899 0.9773 0.0872   -0.159713
 N 0.1899 0.5227 0.4128   -0.159713
 N 0.6899 0.4128 0.9773   -0.159713
 N 0.6899 0.9773 0.4128   -0.159713
 N 0.1899 0.0872 0.9773   -0.159713
 N 0.1899 0.4128 0.5227   -0.159713
 N 0.3101 0.9128 0.4773   -0.159713
 N 0.6899 0.5227 0.0872   -0.159713
 N 0.8101 0.0227 0.9128   -0.159713
 N 0.8101 0.4773 0.5872   -0.159713
 N 0.3101 0.5872 0.0227   -0.159713
 N 0.3605 0.0283 0.7008   0.059123
 N 0.8605 0.7992 0.0283   0.059123
 N 0.8605 0.7008 0.4717   0.059123
 N 0.6395 0.2008 0.5283   0.059123
 N 0.3605 0.4717 0.7992   0.059123
 N 0.1395 0.9717 0.2008   0.059123
 N 0.1395 0.5283 0.2992   0.059123
 N 0.6395 0.2992 0.9717   0.059123
 N 0.6395 0.9717 0.2992   0.059123
 N 0.1395 0.2008 0.9717   0.059123
 N 0.1395 0.2992 0.5283   0.059123
 N 0.3605 0.7992 0.4717   0.059123
 N 0.6395 0.5283 0.2008   0.059123
 N 0.8605 0.0283 0.7992   0.059123
 N 0.8605 0.4717 0.7008   0.059123
 N 0.3605 0.7008 0.0283   0.059123
 N 0.3871 0.0775 0.8863   -0.246698
 N 0.8871 0.6137 0.0775   -0.246698
 N 0.8871 0.8863 0.4225   -0.246698
 N 0.6129 0.3863 0.5775   -0.246698
 N 0.3871 0.4225 0.6137   -0.246698
 N 0.1129 0.9225 0.3863   -0.246698
 N 0.1129 0.5775 0.1137   -0.246698
 N 0.6129 0.1137 0.9225   -0.246698
 N 0.6129 0.9225 0.1137   -0.246698
 N 0.1129 0.3863 0.9225   -0.246698
 N 0.1129 0.1137 0.5775   -0.246698
 N 0.3871 0.6137 0.4225   -0.246698
 N 0.6129 0.5775 0.3863   -0.246698
 N 0.8871 0.0775 0.6137   -0.246698
 N 0.8871 0.4225 0.8863   -0.246698
 N 0.3871 0.8863 0.0775   -0.246698
 N 0.3318 0.012 0.8909   -0.125284
 N 0.8318 0.6091 0.012   -0.125284
 N 0.8318 0.8909 0.488   -0.125284
 N 0.6682 0.3909 0.512   -0.125284
 N 0.3318 0.488 0.6091   -0.125284
 N 0.1682 0.988 0.3909   -0.125284
 N 0.1682 0.512 0.1091   -0.125284
 N 0.6682 0.1091 0.988   -0.125284
 N 0.6682 0.988 0.1091   -0.125284
 N 0.1682 0.3909 0.988   -0.125284
 N 0.1682 0.1091 0.512   -0.125284
 N 0.3318 0.6091 0.488   -0.125284
 N 0.6682 0.512 0.3909   -0.125284
 N 0.8318 0.012 0.6091   -0.125284
 N 0.8318 0.488 0.8909   -0.125284
 N 0.3318 0.8909 0.012   -0.125284
 N 0.3601 0.0342 0.7767   0.057283
 N 0.8601 0.7233 0.0342   0.057283
 N 0.8601 0.7767 0.4658   0.057283
 N 0.6399 0.2767 0.5342   0.057283
 N 0.3601 0.4658 0.7233   0.057283
 N 0.1399 0.9658 0.2767   0.057283
 N 0.1399 0.5342 0.2233   0.057283
 N 0.6399 0.2233 0.9658   0.057283
 N 0.6399 0.9658 0.2233   0.057283
 N 0.1399 0.2767 0.9658   0.057283
 N 0.1399 0.2233 0.5342   0.057283
 N 0.3601 0.7233 0.4658   0.057283
 N 0.6399 0.5342 0.2767   0.057283
 N 0.8601 0.0342 0.7233   0.057283
 N 0.8601 0.4658 0.7767   0.057283
 N 0.3601 0.7767 0.0342   0.057283
 Cl 0.3768 0.08 0.42   -0.70034
 Cl 0.8768 0.08 0.08   -0.70034
 Cl 0.8768 0.42 0.42   -0.70034
 Cl 0.6232 0.92 0.58   -0.70034
 Cl 0.3768 0.42 0.08   -0.70034
 Cl 0.1232 0.92 0.92   -0.70034
 Cl 0.1232 0.58 0.58   -0.70034
 Cl 0.6232 0.58 0.92   -0.70034
 Cl 0.14119 0.1436 0.78656   -0.514848
 Cl 0.64119 0.71344 0.1436   -0.514848
 Cl 0.64119 0.78656 0.3564   -0.514848
 Cl 0.85881 0.28656 0.6436   -0.514848
 Cl 0.14119 0.3564 0.71344   -0.514848
 Cl 0.35881 0.8564 0.28656   -0.514848
 Cl 0.35881 0.6436 0.21344   -0.514848
 Cl 0.85881 0.21344 0.8564   -0.514848
 Cl 0.85881 0.8564 0.21344   -0.514848
 Cl 0.35881 0.28656 0.8564   -0.514848
 Cl 0.35881 0.21344 0.6436   -0.514848
 Cl 0.14119 0.71344 0.3564   -0.514848
 Cl 0.85881 0.6436 0.28656   -0.514848
 Cl 0.64119 0.1436 0.71344   -0.514848
 Cl 0.64119 0.3564 0.78656   -0.514848
 Cl 0.14119 0.78656 0.1436   -0.514848
 O 0.0874 0.9581 0.5419   -0.698422
 O 0.5874 0.9581 0.9581   -0.698422
 O 0.5874 0.5419 0.5419   -0.698422
 O 0.9126 0.0419 0.4581   -0.698421
 O 0.0874 0.5419 0.9581   -0.698422
 O 0.4126 0.0419 0.0419   -0.698421
 O 0.4126 0.4581 0.4581   -0.698421
 O 0.9126 0.4581 0.0419   -0.698421
