{'_ref': 'TBD', '_srcid': 'CAKYAQ_clean', 'submitters': [{'name': 'Dalar Nazarian Jeff Camp and David Sholl', 'email': 'dalar@gatech.edu jcamp6@gatech.edu'}], '_method': 'VASP DFT with PBE;DDEC'}
data_Co3H8C14(NO5)2
_symmetry_space_group_name_H-M   'P 1'
_cell_length_a   10.77379990
_cell_length_b   11.14820000
_cell_length_c   11.14820007
_cell_angle_alpha   80.01339952
_cell_angle_beta   77.51249910
_cell_angle_gamma   77.51200037
_symmetry_Int_Tables_number   1
_chemical_formula_structural   Co3H8C14(NO5)2
_chemical_formula_sum   'Co6 H16 C28 N4 O20'
_cell_volume   1265.06969356
_cell_formula_units_Z   2
loop_
 _symmetry_equiv_pos_site_id
 _symmetry_equiv_pos_as_xyz
  1  'x, y, z'
loop_
 _atom_site_label
 _atom_site_fract_x
 _atom_site_fract_y
 _atom_site_fract_z
 _atom_site_charge
 Co 0.05241 0.87893 0.93389   1.059228
 Co 0.44759 0.06611 0.12107   1.059249
 Co 0.94759 0.12107 0.06611   1.059229
 Co 0.55241 0.93389 0.87893   1.05925
 Co 0.25 0.90852 0.09148   1.164539
 Co 0.75 0.09148 0.90852   1.164539
 H 0.019 0.902 0.166   0.466779
 H 0.361 0.9598 0.5478   0.127371
 H 0.061 0.863 0.473   0.12516
 H 0.979 0.826 0.686   0.087355
 H 0.481 0.834 0.098   0.466765
 H 0.139 0.4522 0.0402   0.127371
 H 0.439 0.527 0.137   0.125167
 H 0.521 0.314 0.174   0.087349
 H 0.981 0.098 0.834   0.466779
 H 0.639 0.0402 0.4522   0.127371
 H 0.939 0.137 0.527   0.12516
 H 0.021 0.174 0.314   0.087355
 H 0.519 0.166 0.902   0.466765
 H 0.861 0.5478 0.9598   0.127372
 H 0.561 0.473 0.863   0.125167
 H 0.479 0.686 0.826   0.087349
 C 0.2367 0.91193 0.69671   0.076924
 C 0.2894 0.93414 0.57178   -0.070686
 C 0.2212 0.91724 0.48568   -0.044338
 C 0.1052 0.87537 0.52817   -0.129789
 C 0.0583 0.85741 0.65461   0.15221
 C 0.303 0.92883 0.79661   0.634785
 C 0.2698 0.94237 0.34709   0.653592
 C 0.2633 0.30329 0.08807   0.076891
 C 0.2106 0.42822 0.06586   -0.070684
 C 0.2788 0.51432 0.08276   -0.044318
 C 0.3948 0.47183 0.12463   -0.129798
 C 0.4417 0.34539 0.14259   0.152224
 C 0.197 0.20339 0.07117   0.634776
 C 0.2302 0.65291 0.05763   0.653492
 C 0.7633 0.08807 0.30329   0.076924
 C 0.7106 0.06586 0.42822   -0.070686
 C 0.7788 0.08276 0.51432   -0.044338
 C 0.8948 0.12463 0.47183   -0.129789
 C 0.9417 0.14259 0.34539   0.15221
 C 0.697 0.07117 0.20339   0.634785
 C 0.7302 0.05763 0.65291   0.653592
 C 0.7367 0.69671 0.91193   0.076891
 C 0.7894 0.57178 0.93414   -0.070684
 C 0.7212 0.48568 0.91724   -0.044318
 C 0.6052 0.52817 0.87537   -0.129798
 C 0.5583 0.65461 0.85741   0.152224
 C 0.803 0.79661 0.92883   0.634776
 C 0.7698 0.34709 0.94237   0.653492
 N 0.1215 0.87663 0.73805   -0.345533
 N 0.3785 0.26195 0.12337   -0.345511
 N 0.8785 0.12337 0.26195   -0.345533
 N 0.6215 0.73805 0.87663   -0.345511
 O 0.23473 0.92775 0.90379   -0.629281
 O 0.41813 0.9402 0.76902   -0.55047
 O 0.34556 0.01823 0.30997   -0.594354
 O 0.2277 0.8859 0.28154   -0.607407
 O 0.05017 0.94015 0.10137   -0.993836
 O 0.26527 0.09621 0.07225   -0.629263
 O 0.08187 0.23098 0.0598   -0.550472
 O 0.15444 0.69003 0.98177   -0.594285
 O 0.2723 0.71846 0.1141   -0.607374
 O 0.44983 0.89863 0.05985   -0.993827
 O 0.76527 0.07225 0.09621   -0.629281
 O 0.58187 0.0598 0.23098   -0.55047
 O 0.65444 0.98177 0.69003   -0.594354
 O 0.7723 0.1141 0.71846   -0.607407
 O 0.94983 0.05985 0.89863   -0.993836
 O 0.73473 0.90379 0.92775   -0.629263
 O 0.91813 0.76902 0.9402   -0.550472
 O 0.84556 0.30997 0.01823   -0.594286
 O 0.7277 0.28154 0.8859   -0.607374
 O 0.55017 0.10137 0.94015   -0.993827
