{'_ref': 'TBD', '_srcid': 'CAKYAQ_clean', 'submitters': [{'name': 'Dalar Nazarian Jeff Camp and David Sholl', 'email': 'dalar@gatech.edu jcamp6@gatech.edu'}], '_method': 'VASP DFT with PBE;DDEC'}
data_NiHC4O3
_symmetry_space_group_name_H-M   'P 1'
_cell_length_a   6.77010000
_cell_length_b   15.05739290
_cell_length_c   15.05739322
_cell_angle_alpha   117.79484483
_cell_angle_beta   98.61957952
_cell_angle_gamma   98.61957970
_symmetry_Int_Tables_number   1
_chemical_formula_structural   NiHC4O3
_chemical_formula_sum   'Ni6 H6 C24 O18'
_cell_volume   1299.44810581
_cell_formula_units_Z   6
loop_
 _symmetry_equiv_pos_site_id
 _symmetry_equiv_pos_as_xyz
  1  'x, y, z'
loop_
 _atom_site_label
 _atom_site_fract_x
 _atom_site_fract_y
 _atom_site_fract_z
 _atom_site_charge
 Ni 0.7937 0.2683 0.67719   1.02342
 Ni 0.5254 0.40889 0.7317   1.023896
 Ni 0.11651 0.32281 0.59111   1.02392
 Ni 0.2063 0.7317 0.32281   1.02342
 Ni 0.4746 0.59111 0.2683   1.023896
 Ni 0.88349 0.67719 0.40889   1.02392
 H 0.636 0.025 0.46299   0.155262
 H 0.611 0.43799 0.975   0.155602
 H 0.17301 0.53701 0.56201   0.155194
 H 0.364 0.975 0.53701   0.155262
 H 0.389 0.56201 0.025   0.155602
 H 0.82699 0.46299 0.43799   0.155194
 C 0.65459 0.8252 0.39459   0.744608
 C 0.82939 0.56939 0.1748   0.747985
 C 0.26 0.60541 0.43061   0.745258
 C 0.34541 0.1748 0.60541   0.744608
 C 0.17061 0.43061 0.8252   0.747985
 C 0.74 0.39459 0.56939   0.745258
 C 0.8271 0.9124 0.44989   -0.24251
 C 0.9147 0.53749 0.0876   -0.243723
 C 0.37721 0.55011 0.46251   -0.241621
 C 0.1729 0.0876 0.55011   -0.24251
 C 0.0853 0.46251 0.9124   -0.243723
 C 0.62279 0.44989 0.53749   -0.241621
 C 0.9664 0.1012 0.52899   0.361283
 C 0.8652 0.42779 0.8988   0.363025
 C 0.43741 0.47101 0.57221   0.36267
 C 0.0336 0.8988 0.47101   0.361283
 C 0.1348 0.57221 0.1012   0.363025
 C 0.56259 0.52899 0.42779   0.36267
 C 0.79649 0.0151 0.48039   -0.169072
 C 0.78139 0.46529 0.9849   -0.169891
 C 0.3161 0.51961 0.53471   -0.170594
 C 0.20351 0.9849 0.51961   -0.169072
 C 0.21861 0.53471 0.0151   -0.169891
 C 0.6839 0.48039 0.46529   -0.170594
 O 0.47179 0.838 0.37339   -0.611479
 O 0.63379 0.53539 0.162   -0.610598
 O 0.0984 0.62661 0.46461   -0.610574
 O 0.52821 0.162 0.62661   -0.611479
 O 0.36621 0.46461 0.838   -0.610598
 O 0.9016 0.37339 0.53539   -0.610574
 O 0.6794 0.7355 0.36369   -0.616353
 O 0.9439 0.62819 0.2645   -0.619444
 O 0.31571 0.63631 0.37181   -0.618867
 O 0.3206 0.2645 0.63631   -0.616353
 O 0.0561 0.37181 0.7355   -0.619444
 O 0.68429 0.36369 0.62819   -0.618867
 O 0.9378 0.196 0.55539   -0.645064
 O 0.7418 0.35939 0.804   -0.646383
 O 0.38241 0.44461 0.64061   -0.645952
 O 0.0622 0.804 0.44461   -0.645064
 O 0.2582 0.64061 0.196   -0.646383
 O 0.61759 0.55539 0.35939   -0.645952
