{'_ref': 'TBD', '_srcid': 'CAKYAQ_clean', 'submitters': [{'name': 'Dalar Nazarian Jeff Camp and David Sholl', 'email': 'dalar@gatech.edu jcamp6@gatech.edu'}], '_method': 'VASP DFT with PBE;DDEC'}
data_BaCuH12(C5O4)2
_symmetry_space_group_name_H-M   'P 1'
_cell_length_a   14.31980036
_cell_length_b   14.31980006
_cell_length_c   14.31980000
_cell_angle_alpha   109.42099931
_cell_angle_beta   109.42099889
_cell_angle_gamma   109.42099998
_symmetry_Int_Tables_number   1
_chemical_formula_structural   BaCuH12(C5O4)2
_chemical_formula_sum   'Ba6 Cu6 H72 C60 O48'
_cell_volume   2264.612411
_cell_formula_units_Z   6
loop_
 _symmetry_equiv_pos_site_id
 _symmetry_equiv_pos_as_xyz
  1  'x, y, z'
loop_
 _atom_site_label
 _atom_site_fract_x
 _atom_site_fract_y
 _atom_site_fract_z
 _atom_site_charge
 Ba 0.99442 0.31118 0.65402   1.635748
 Ba 0.65402 0.99442 0.31118   1.635747
 Ba 0.31118 0.65402 0.99442   1.635747
 Ba 0.00558 0.68882 0.34598   1.635748
 Ba 0.34598 0.00558 0.68882   1.635747
 Ba 0.68882 0.34598 0.00558   1.635747
 Cu 0.1782 0.1922 0.6059   1.015471
 Cu 0.6059 0.1782 0.1922   1.015471
 Cu 0.1922 0.6059 0.1782   1.015471
 Cu 0.8218 0.8078 0.3941   1.015471
 Cu 0.3941 0.8218 0.8078   1.015471
 Cu 0.8078 0.3941 0.8218   1.015471
 H 0.9084 0.9029 0.1693   0.108392
 H 0.8327 0.9026 0.227   0.106724
 H 0.8616 0.9882 0.1821   0.107395
 H 0.1555 0.1682 0.3883   0.087329
 H 0.1062 0.0656 0.2675   0.111129
 H 0.0593 0.151 0.2803   0.113473
 H 0.5547 0.4923 0.9529   0.121818
 H 0.6061 0.4635 0.8733   0.10303
 H 0.5652 0.5533 0.8811   0.115443
 H 0.3486 0.3136 0.6081   0.052816
 H 0.4382 0.4436 0.6693   0.108584
 H 0.4792 0.3538 0.6614   0.113992
 H 0.1693 0.9084 0.9029   0.108391
 H 0.227 0.8327 0.9026   0.106723
 H 0.1821 0.8616 0.9882   0.107395
 H 0.3883 0.1555 0.1682   0.087326
 H 0.2675 0.1062 0.0656   0.111127
 H 0.2803 0.0593 0.151   0.113471
 H 0.9529 0.5547 0.4923   0.121818
 H 0.8733 0.6061 0.4635   0.10303
 H 0.8811 0.5652 0.5533   0.115443
 H 0.6081 0.3486 0.3136   0.052816
 H 0.6693 0.4382 0.4436   0.108585
 H 0.6614 0.4792 0.3538   0.113992
 H 0.9029 0.1693 0.9084   0.108391
 H 0.9026 0.227 0.8327   0.106723
 H 0.9882 0.1821 0.8616   0.107395
 H 0.1682 0.3883 0.1555   0.087326
 H 0.0656 0.2675 0.1062   0.111126
 H 0.151 0.2803 0.0593   0.113471
 H 0.4923 0.9529 0.5547   0.121818
 H 0.4635 0.8733 0.6061   0.10303
 H 0.5533 0.8811 0.5652   0.115443
 H 0.3136 0.6081 0.3486   0.052816
 H 0.4436 0.6693 0.4382   0.108585
 H 0.3538 0.6614 0.4792   0.113992
 H 0.0916 0.0971 0.8307   0.10839
 H 0.1673 0.0974 0.773   0.106724
 H 0.1384 0.0118 0.8179   0.107395
 H 0.8445 0.8318 0.6117   0.08733
 H 0.8938 0.9344 0.7325   0.111127
 H 0.9407 0.849 0.7197   0.113471
 H 0.4453 0.5077 0.0471   0.121817
 H 0.3939 0.5365 0.1267   0.10303
 H 0.4348 0.4467 0.1189   0.115441
 H 0.6514 0.6864 0.3919   0.052816
 H 0.5618 0.5564 0.3307   0.108592
 H 0.5208 0.6462 0.3386   0.113992
 H 0.8307 0.0916 0.0971   0.10839
 H 0.773 0.1673 0.0974   0.106723
 H 0.8179 0.1384 0.0118   0.107394
 H 0.6117 0.8445 0.8318   0.087327
 H 0.7325 0.8938 0.9344   0.111125
 H 0.7197 0.9407 0.849   0.113469
 H 0.0471 0.4453 0.5077   0.121817
 H 0.1267 0.3939 0.5365   0.10303
 H 0.1189 0.4348 0.4467   0.115441
 H 0.3919 0.6514 0.6864   0.052817
 H 0.3307 0.5618 0.5564   0.108592
 H 0.3386 0.5208 0.6462   0.113992
 H 0.0971 0.8307 0.0916   0.10839
 H 0.0974 0.773 0.1673   0.106723
 H 0.0118 0.8179 0.1384   0.107394
 H 0.8318 0.6117 0.8445   0.087327
 H 0.9344 0.7325 0.8938   0.111124
 H 0.849 0.7197 0.9407   0.113469
 H 0.5077 0.0471 0.4453   0.121818
 H 0.5365 0.1267 0.3939   0.10303
 H 0.4467 0.1189 0.4348   0.115441
 H 0.6864 0.3919 0.6514   0.052817
 H 0.5564 0.3307 0.5618   0.108593
 H 0.6462 0.3386 0.5208   0.113992
 C 0.996 0.0369 0.3323   -0.156367
 C 0.9705 0.1143 0.4124   0.705111
 C 0.89 0.9497 0.2171   -0.3036
 C 0.088 0.1126 0.3155   -0.271858
 C 0.3394 0.4173 0.7956   0.705768
 C 0.4304 0.3877 0.7828   -0.168447
 C 0.5503 0.4832 0.8818   -0.313155
 C 0.4235 0.3733 0.67   -0.266678
 C 0.0443 0.9771 0.3909   0.696224
 C 0.4024 0.2745 0.7833   0.727763
 C 0.3323 0.996 0.0369   -0.156367
 C 0.4124 0.9705 0.1143   0.705109
 C 0.2171 0.89 0.9497   -0.303598
 C 0.3155 0.088 0.1126   -0.27185
 C 0.7956 0.3394 0.4173   0.705768
 C 0.7828 0.4304 0.3877   -0.168447
 C 0.8818 0.5503 0.4832   -0.313155
 C 0.67 0.4235 0.3733   -0.266678
 C 0.3909 0.0443 0.9771   0.696222
 C 0.7833 0.4024 0.2745   0.727765
 C 0.0369 0.3323 0.996   -0.156367
 C 0.1143 0.4124 0.9705   0.705109
 C 0.9497 0.2171 0.89   -0.303598
 C 0.1126 0.3155 0.088   -0.271849
 C 0.4173 0.7956 0.3394   0.705768
 C 0.3877 0.7828 0.4304   -0.168447
 C 0.4832 0.8818 0.5503   -0.313155
 C 0.3733 0.67 0.4235   -0.266679
 C 0.9771 0.3909 0.0443   0.696222
 C 0.2745 0.7833 0.4024   0.727765
 C 0.004 0.9631 0.6677   -0.156367
 C 0.0295 0.8857 0.5876   0.705111
 C 0.11 0.0503 0.7829   -0.303599
 C 0.912 0.8874 0.6845   -0.271857
 C 0.6606 0.5827 0.2044   0.705767
 C 0.5696 0.6123 0.2172   -0.168446
 C 0.4497 0.5168 0.1182   -0.313154
 C 0.5765 0.6267 0.33   -0.266681
 C 0.9557 0.0229 0.6091   0.696224
 C 0.5976 0.7255 0.2167   0.727763
 C 0.6677 0.004 0.9631   -0.156367
 C 0.5876 0.0295 0.8857   0.705109
 C 0.7829 0.11 0.0503   -0.303597
 C 0.6845 0.912 0.8874   -0.271849
 C 0.2044 0.6606 0.5827   0.705768
 C 0.2172 0.5696 0.6123   -0.168447
 C 0.1182 0.4497 0.5168   -0.313154
 C 0.33 0.5765 0.6267   -0.266681
 C 0.6091 0.9557 0.0229   0.696222
 C 0.2167 0.5976 0.7255   0.727765
 C 0.9631 0.6677 0.004   -0.156367
 C 0.8857 0.5876 0.0295   0.705109
 C 0.0503 0.7829 0.11   -0.303597
 C 0.8874 0.6845 0.912   -0.271848
 C 0.5827 0.2044 0.6606   0.705768
 C 0.6123 0.2172 0.5696   -0.168447
 C 0.5168 0.1182 0.4497   -0.313154
 C 0.6267 0.33 0.5765   -0.266681
 C 0.0229 0.6091 0.9557   0.696222
 C 0.7255 0.2167 0.5976   0.727765
 O 0.0566 0.203 0.507   -0.704504
 O 0.235 0.3492 0.7176   -0.661385
 O 0.8749 0.1055 0.3755   -0.618198
 O 0.3691 0.5026 0.8843   -0.616156
 O 0.1292 0.0396 0.4931   -0.653523
 O 0.3038 0.1869 0.7082   -0.690261
 O 0.9979 0.8722 0.3394   -0.648764
 O 0.4743 0.2691 0.8554   -0.663312
 O 0.507 0.0566 0.203   -0.704504
 O 0.7176 0.235 0.3492   -0.661384
 O 0.3755 0.8749 0.1055   -0.618198
 O 0.8843 0.3691 0.5026   -0.616157
 O 0.4931 0.1292 0.0396   -0.653521
 O 0.7082 0.3038 0.1869   -0.690262
 O 0.3394 0.9979 0.8722   -0.648764
 O 0.8554 0.4743 0.2691   -0.663312
 O 0.203 0.507 0.0566   -0.704504
 O 0.3492 0.7176 0.235   -0.661384
 O 0.1055 0.3755 0.8749   -0.618198
 O 0.5026 0.8843 0.3691   -0.616157
 O 0.0396 0.4931 0.1292   -0.653521
 O 0.1869 0.7082 0.3038   -0.690262
 O 0.8722 0.3394 0.9979   -0.648764
 O 0.2691 0.8554 0.4743   -0.663312
 O 0.9434 0.797 0.493   -0.704504
 O 0.765 0.6508 0.2824   -0.661384
 O 0.1251 0.8945 0.6245   -0.618198
 O 0.6309 0.4974 0.1157   -0.616156
 O 0.8708 0.9604 0.5069   -0.653524
 O 0.6962 0.8131 0.2918   -0.690261
 O 0.0021 0.1278 0.6606   -0.648764
 O 0.5257 0.7309 0.1446   -0.663312
 O 0.493 0.9434 0.797   -0.704504
 O 0.2824 0.765 0.6508   -0.661384
 O 0.6245 0.1251 0.8945   -0.618198
 O 0.1157 0.6309 0.4974   -0.616157
 O 0.5069 0.8708 0.9604   -0.653521
 O 0.2918 0.6962 0.8131   -0.690262
 O 0.6606 0.0021 0.1278   -0.648764
 O 0.1446 0.5257 0.7309   -0.663312
 O 0.797 0.493 0.9434   -0.704504
 O 0.6508 0.2824 0.765   -0.661384
 O 0.8945 0.6245 0.1251   -0.618198
 O 0.4974 0.1157 0.6309   -0.616157
 O 0.9604 0.5069 0.8708   -0.653521
 O 0.8131 0.2918 0.6962   -0.690262
 O 0.1278 0.6606 0.0021   -0.648764
 O 0.7309 0.1446 0.5257   -0.663312
