{'_ref': 'TBD', '_srcid': 'CAKYAQ_clean', 'submitters': [{'name': 'Dalar Nazarian Jeff Camp and David Sholl', 'email': 'dalar@gatech.edu jcamp6@gatech.edu'}], '_method': 'VASP DFT with PBE;DDEC'}
data_BaCuH4(CO)10
_symmetry_space_group_name_H-M   'P 1'
_cell_length_a   12.56400034
_cell_length_b   16.58100008
_cell_length_c   16.58100000
_cell_angle_alpha   113.84769841
_cell_angle_beta   104.63009832
_cell_angle_gamma   104.63000218
_symmetry_Int_Tables_number   1
_chemical_formula_structural   BaCuH4(CO)10
_chemical_formula_sum   'Ba6 Cu6 H24 C60 O60'
_cell_volume   2800.60010587
_cell_formula_units_Z   6
loop_
 _symmetry_equiv_pos_site_id
 _symmetry_equiv_pos_as_xyz
  1  'x, y, z'
loop_
 _atom_site_label
 _atom_site_fract_x
 _atom_site_fract_y
 _atom_site_fract_z
 _atom_site_charge
 Ba 0.70493 0.40986 0.70493   1.646468
 Ba 0.0 0.29507 0.70493   1.646427
 Ba 0.29507 0.29507 0.59014   1.646468
 Ba 0.29507 0.59014 0.29507   1.646468
 Ba 0.0 0.70493 0.29507   1.646427
 Ba 0.70493 0.70493 0.40986   1.646468
 Cu 0.89257 0.62747 0.62747   0.882301
 Cu 0.2651 0.37253 0.0   0.882584
 Cu 0.2651 0.0 0.37253   0.882595
 Cu 0.7349 0.0 0.62747   0.882595
 Cu 0.7349 0.62747 0.0   0.882584
 Cu 0.10743 0.37253 0.37253   0.882301
 H 0.533 0.4569 0.8091   0.436712
 H 0.4999 0.3684 0.7893   0.440869
 H 0.7239 0.1909 0.6478   0.436589
 H 0.7106 0.2107 0.5791   0.440263
 H 0.0761 0.3522 0.5431   0.437446
 H 0.1315 0.4209 0.6316   0.440743
 H 0.2761 0.3522 0.8091   0.436599
 H 0.2894 0.4209 0.7893   0.44026
 H 0.9239 0.4569 0.6478   0.437446
 H 0.8685 0.3684 0.5791   0.440746
 H 0.467 0.1909 0.5431   0.436713
 H 0.5001 0.2107 0.6316   0.44087
 H 0.467 0.5431 0.1909   0.436712
 H 0.5001 0.6316 0.2107   0.440869
 H 0.2761 0.8091 0.3522   0.436589
 H 0.2894 0.7893 0.4209   0.440263
 H 0.9239 0.6478 0.4569   0.437446
 H 0.8685 0.5791 0.3684   0.440743
 H 0.7239 0.6478 0.1909   0.436599
 H 0.7106 0.5791 0.2107   0.44026
 H 0.0761 0.5431 0.3522   0.437446
 H 0.1315 0.6316 0.4209   0.440746
 H 0.533 0.8091 0.4569   0.436713
 H 0.4999 0.7893 0.3684   0.44087
 C 0.11855 0.7025 0.61255   0.702378
 C 0.69318 0.59579 0.68455   0.730068
 C 0.506 0.38745 0.08995   0.702527
 C 0.00863 0.31545 0.91124   0.729504
 C 0.41605 0.91005 0.2975   0.702517
 C 0.09739 0.08876 0.40421   0.732356
 C 0.494 0.91005 0.61255   0.702566
 C 0.99137 0.08876 0.68455   0.729505
 C 0.58395 0.7025 0.08995   0.702529
 C 0.90261 0.59579 0.91124   0.732352
 C 0.88145 0.38745 0.2975   0.702381
 C 0.30682 0.31545 0.40421   0.730063
 C 0.88145 0.2975 0.38745   0.702378
 C 0.30682 0.40421 0.31545   0.730068
 C 0.494 0.61255 0.91005   0.702526
 C 0.99137 0.68455 0.08876   0.729504
 C 0.58395 0.08995 0.7025   0.702517
 C 0.90261 0.91124 0.59579   0.732355
 C 0.506 0.08995 0.38745   0.702566
 C 0.00863 0.91124 0.31545   0.729505
 C 0.41605 0.2975 0.91005   0.702528
 C 0.09739 0.40421 0.08876   0.732352
 C 0.11855 0.61255 0.7025   0.702381
 C 0.69318 0.68455 0.59579   0.730063
 C 0.31502 0.73068 0.73068   0.02787
 C 0.18196 0.70899 0.70899   -0.267644
 C 0.1697 0.7902 0.7902   0.012176
 C 0.68742 0.68883 0.68883   -0.236773
 C 0.57374 0.69891 0.69891   -0.006602
 C 0.79714 0.77571 0.77571   -0.029328
 C 0.58434 0.26932 0.0   0.027219
 C 0.47297 0.29101 0.0   -0.267954
 C 0.3795 0.2098 0.0   0.012804
 C 0.99859 0.31117 0.0   -0.239612
 C 0.87483 0.30109 0.0   -0.005796
 C 0.02143 0.22429 0.0   -0.028442
 C 0.58434 0.0 0.26932   0.027221
 C 0.47297 0.0 0.29101   -0.26797
 C 0.3795 0.0 0.2098   0.012808
 C 0.99859 0.0 0.31117   -0.239608
 C 0.87483 0.0 0.30109   -0.005794
 C 0.02143 0.0 0.22429   -0.028442
 C 0.41566 0.0 0.73068   0.027223
 C 0.52703 0.0 0.70899   -0.26797
 C 0.6205 0.0 0.7902   0.012808
 C 0.00141 0.0 0.68883   -0.239608
 C 0.12517 0.0 0.69891   -0.005794
 C 0.97857 0.0 0.77571   -0.02844
 C 0.41566 0.73068 0.0   0.027221
 C 0.52703 0.70899 0.0   -0.267954
 C 0.6205 0.7902 0.0   0.012806
 C 0.00141 0.68883 0.0   -0.239612
 C 0.12517 0.69891 0.0   -0.005795
 C 0.97857 0.77571 0.0   -0.028439
 C 0.68498 0.26932 0.26932   0.027872
 C 0.81804 0.29101 0.29101   -0.267644
 C 0.8303 0.2098 0.2098   0.012181
 C 0.31258 0.31117 0.31117   -0.236773
 C 0.42626 0.30109 0.30109   -0.006601
 C 0.20286 0.22429 0.22429   -0.029325
 O 0.00545 0.68454 0.58509   -0.610444
 O 0.78827 0.58148 0.68359   -0.676503
 O 0.17649 0.71704 0.56645   -0.509112
 O 0.51077 0.40032 0.76365   -0.929426
 O 0.60732 0.53724 0.68298   -0.59901
 O 0.42036 0.41491 0.09945   -0.611144
 O 0.10468 0.31641 0.89789   -0.675843
 O 0.61004 0.43355 0.15059   -0.508565
 O 0.74712 0.23635 0.63667   -0.928624
 O 0.92434 0.31702 0.85426   -0.598786
 O 0.32091 0.90055 0.31546   -0.610791
 O 0.20679 0.10211 0.41852   -0.676475
 O 0.45945 0.84941 0.28296   -0.509138
 O 0.11045 0.36333 0.59968   -0.9299
 O 0.07008 0.14574 0.46276   -0.599701
 O 0.57964 0.90055 0.58509   -0.611167
 O 0.89532 0.10211 0.68359   -0.675847
 O 0.38996 0.84941 0.56645   -0.50858
 O 0.25288 0.36333 0.76365   -0.928628
 O 0.07566 0.14574 0.68298   -0.598788
 O 0.67909 0.68454 0.09945   -0.610793
 O 0.79321 0.58148 0.89789   -0.676473
 O 0.54055 0.71704 0.15059   -0.509149
 O 0.88955 0.40032 0.63667   -0.929901
 O 0.92992 0.53724 0.85426   -0.599698
 O 0.99455 0.41491 0.31546   -0.61044
 O 0.21173 0.31641 0.41852   -0.67651
 O 0.82351 0.43355 0.28296   -0.509113
 O 0.48923 0.23635 0.59968   -0.929432
 O 0.39268 0.31702 0.46276   -0.599008
 O 0.99455 0.31546 0.41491   -0.610444
 O 0.21173 0.41852 0.31641   -0.676503
 O 0.82351 0.28296 0.43355   -0.509112
 O 0.48923 0.59968 0.23635   -0.929426
 O 0.39268 0.46276 0.31702   -0.59901
 O 0.57964 0.58509 0.90055   -0.611144
 O 0.89532 0.68359 0.10211   -0.675842
 O 0.38996 0.56645 0.84941   -0.508565
 O 0.25288 0.76365 0.36333   -0.928624
 O 0.07566 0.68298 0.14574   -0.598786
 O 0.67909 0.09945 0.68454   -0.61079
 O 0.79321 0.89789 0.58148   -0.676475
 O 0.54055 0.15059 0.71704   -0.509138
 O 0.88955 0.63667 0.40032   -0.9299
 O 0.92992 0.85426 0.53724   -0.599701
 O 0.42036 0.09945 0.41491   -0.611166
 O 0.10468 0.89789 0.31641   -0.675847
 O 0.61004 0.15059 0.43355   -0.50858
 O 0.74712 0.63667 0.23635   -0.928628
 O 0.92434 0.85426 0.31702   -0.598788
 O 0.32091 0.31546 0.90055   -0.610793
 O 0.20679 0.41852 0.10211   -0.676473
 O 0.45945 0.28296 0.84941   -0.509149
 O 0.11045 0.59968 0.36333   -0.929901
 O 0.07008 0.46276 0.14574   -0.599698
 O 0.00545 0.58509 0.68454   -0.61044
 O 0.78827 0.68359 0.58148   -0.676509
 O 0.17649 0.56645 0.71704   -0.509113
 O 0.51077 0.76365 0.40032   -0.929432
 O 0.60732 0.68298 0.53724   -0.599008
