{'_ref': 'TBD', '_srcid': 'CAKYAQ_clean', 'submitters': [{'name': 'Dalar Nazarian Jeff Camp and David Sholl', 'email': 'dalar@gatech.edu jcamp6@gatech.edu'}], '_method': 'VASP DFT with PBE;DDEC'}
data_BaCuH14C10O9
_symmetry_space_group_name_H-M   'P 1'
_cell_length_a   12.88800017
_cell_length_b   15.02793282
_cell_length_c   15.02799973
_cell_angle_alpha   112.17378757
_cell_angle_beta   106.61099790
_cell_angle_gamma   106.61040684
_symmetry_Int_Tables_number   1
_chemical_formula_structural   BaCuH14C10O9
_chemical_formula_sum   'Ba6 Cu6 H84 C60 O54'
_cell_volume   2314.68801206
_cell_formula_units_Z   6
loop_
 _symmetry_equiv_pos_site_id
 _symmetry_equiv_pos_as_xyz
  1  'x, y, z'
loop_
 _atom_site_label
 _atom_site_fract_x
 _atom_site_fract_y
 _atom_site_fract_z
 _atom_site_charge
 Ba 0.69805 0.32927 0.70297   1.607457
 Ba 0.99508 0.29703 0.6263   1.60788
 Ba 0.36878 0.3737 0.67073   1.607784
 Ba 0.30195 0.67073 0.29703   1.607457
 Ba 0.00492 0.70297 0.3737   1.60788
 Ba 0.63122 0.6263 0.32927   1.607784
 Cu 0.70154 0.49359 0.5106   1.050684
 Cu 0.19094 0.4894 0.98299   1.049813
 Cu 0.20795 0.01701 0.50641   1.050298
 Cu 0.29846 0.50641 0.4894   1.050684
 Cu 0.80906 0.5106 0.01701   1.049812
 Cu 0.79205 0.98299 0.49359   1.050297
 H 0.6246 0.2927 0.3316   0.099811
 H 0.6291 0.2537 0.2185   0.110097
 H 0.6875 0.2162 0.2983   0.113649
 H 0.8274 0.3315 0.2127   0.113224
 H 0.9485 0.4084 0.323   0.104804
 H 0.8779 0.2843 0.2854   0.114118
 H 0.8512 0.7187 0.8113   0.108678
 H 0.8295 0.6753 0.6894   0.080344
 H 0.8162 0.7814 0.751   0.107184
 H 0.5412 0.6497 0.7603   0.109007
 H 0.6743 0.7028 0.8545   0.108754
 H 0.638 0.7652 0.7945   0.110517
 H 0.9732 0.4904 0.7672   0.439903
 H 0.908 0.4631 0.6679   0.424229
 H 0.293 0.6684 0.9611   0.09995
 H 0.4106 0.7815 0.0352   0.110035
 H 0.3892 0.7017 0.9179   0.112989
 H 0.6147 0.7873 0.1188   0.113111
 H 0.6255 0.677 0.0854   0.105038
 H 0.5925 0.7146 0.9989   0.113961
 H 0.0399 0.1887 0.9074   0.108653
 H 0.1401 0.3106 0.9859   0.080864
 H 0.0652 0.249 0.0304   0.106954
 H 0.7809 0.2397 0.8894   0.109664
 H 0.8198 0.1455 0.8483   0.109122
 H 0.8435 0.2055 0.9707   0.111003
 H 0.206 0.2328 0.7232   0.438477
 H 0.2401 0.3321 0.7952   0.424164
 H 0.3319 0.0389 0.7073   0.099862
 H 0.3754 0.9648 0.7463   0.110013
 H 0.4713 0.0821 0.7838   0.113458
 H 0.4959 0.8812 0.6685   0.113187
 H 0.5401 0.9146 0.5916   0.104977
 H 0.5936 0.0011 0.7157   0.113485
 H 0.1325 0.0926 0.2813   0.109025
 H 0.1542 0.0141 0.3247   0.081686
 H 0.0348 0.9696 0.2186   0.107114
 H 0.8915 0.1106 0.3503   0.109491
 H 0.9715 0.1517 0.2972   0.109128
 H 0.8728 0.0293 0.2348   0.110599
 H 0.4828 0.2768 0.5096   0.43957
 H 0.4449 0.2048 0.5369   0.423748
 H 0.3754 0.7073 0.6684   0.099812
 H 0.3709 0.7463 0.7815   0.110101
 H 0.3125 0.7838 0.7017   0.113648
 H 0.1726 0.6685 0.7873   0.113224
 H 0.0515 0.5916 0.677   0.104804
 H 0.1221 0.7157 0.7146   0.114119
 H 0.1488 0.2813 0.1887   0.108678
 H 0.1705 0.3247 0.3106   0.080346
 H 0.1838 0.2186 0.249   0.107186
 H 0.4588 0.3503 0.2397   0.109007
 H 0.3257 0.2972 0.1455   0.108756
 H 0.362 0.2348 0.2055   0.110519
 H 0.0268 0.5096 0.2328   0.439903
 H 0.092 0.5369 0.3321   0.424229
 H 0.707 0.3316 0.0389   0.099951
 H 0.5894 0.2185 0.9648   0.110039
 H 0.6108 0.2983 0.0821   0.112988
 H 0.3853 0.2127 0.8812   0.113111
 H 0.3745 0.323 0.9146   0.105038
 H 0.4075 0.2854 0.0011   0.113962
 H 0.9601 0.8113 0.0926   0.108653
 H 0.8599 0.6894 0.0141   0.080866
 H 0.9348 0.751 0.9696   0.106956
 H 0.2191 0.7603 0.1106   0.109664
 H 0.1802 0.8545 0.1517   0.109124
 H 0.1565 0.7945 0.0293   0.111005
 H 0.794 0.7672 0.2768   0.438477
 H 0.7599 0.6679 0.2048   0.424164
 H 0.6681 0.9611 0.2927   0.099863
 H 0.6246 0.0352 0.2537   0.110017
 H 0.5287 0.9179 0.2162   0.113457
 H 0.5041 0.1188 0.3315   0.113188
 H 0.4599 0.0854 0.4084   0.104977
 H 0.4064 0.9989 0.2843   0.113485
 H 0.8675 0.9074 0.7187   0.109025
 H 0.8458 0.9859 0.6753   0.081688
 H 0.9652 0.0304 0.7814   0.107116
 H 0.1085 0.8894 0.6497   0.109491
 H 0.0285 0.8483 0.7028   0.10913
 H 0.1272 0.9707 0.7652   0.110601
 H 0.5172 0.7232 0.4904   0.439571
 H 0.5551 0.7952 0.4631   0.423747
 C 0.7702 0.4658 0.3424   0.733134
 C 0.6542 0.5323 0.6911   0.697818
 C 0.6729 0.2752 0.2939   -0.294748
 C 0.7942 0.374 0.346   -0.166829
 C 0.8578 0.3974 0.4615   0.712226
 C 0.8686 0.3471 0.2865   -0.313024
 C 0.6688 0.6419 0.7039   -0.160664
 C 0.5989 0.631 0.5972   0.68951
 C 0.8037 0.7105 0.7424   -0.271356
 C 0.6268 0.6946 0.7856   -0.312313
 C 0.4278 0.6576 0.1234   0.733205
 C 0.9631 0.3089 0.8412   0.697395
 C 0.379 0.7061 0.9813   -0.293971
 C 0.4482 0.654 0.028   -0.167483
 C 0.3963 0.5385 0.9359   0.712046
 C 0.5821 0.7135 0.0606   -0.312676
 C 0.9649 0.2961 0.938   -0.16038
 C 0.0017 0.4028 0.0338   0.688183
 C 0.0613 0.2576 0.9681   -0.272065
 C 0.8412 0.2144 0.909   -0.313634
 C 0.3044 0.8766 0.5342   0.733097
 C 0.1219 0.1588 0.4677   0.697706
 C 0.3977 0.0187 0.7248   -0.294555
 C 0.4202 0.972 0.626   -0.168819
 C 0.4604 0.0641 0.6026   0.712304
 C 0.5215 0.9394 0.6529   -0.311412
 C 0.0269 0.062 0.3581   -0.160168
 C 0.9679 0.9662 0.369   0.687087
 C 0.0932 0.0319 0.2895   -0.273729
 C 0.9322 0.091 0.3054   -0.312917
 C 0.2298 0.5342 0.6576   0.733134
 C 0.3458 0.4677 0.3089   0.697818
 C 0.3271 0.7248 0.7061   -0.29475
 C 0.2058 0.626 0.654   -0.166829
 C 0.1422 0.6026 0.5385   0.712226
 C 0.1314 0.6529 0.7135   -0.313025
 C 0.3312 0.3581 0.2961   -0.160663
 C 0.4011 0.369 0.4028   0.68951
 C 0.1963 0.2895 0.2576   -0.271357
 C 0.3732 0.3054 0.2144   -0.312315
 C 0.5722 0.3424 0.8766   0.733205
 C 0.0369 0.6911 0.1588   0.697395
 C 0.621 0.2939 0.0187   -0.293972
 C 0.5518 0.346 0.972   -0.167483
 C 0.6037 0.4615 0.0641   0.712045
 C 0.4179 0.2865 0.9394   -0.312677
 C 0.0351 0.7039 0.062   -0.16038
 C 0.9983 0.5972 0.9662   0.688183
 C 0.9387 0.7424 0.0319   -0.272067
 C 0.1588 0.7856 0.091   -0.313636
 C 0.6956 0.1234 0.4658   0.733096
 C 0.8781 0.8412 0.5323   0.697706
 C 0.6023 0.9813 0.2752   -0.294556
 C 0.5798 0.028 0.374   -0.168819
 C 0.5396 0.9359 0.3974   0.712303
 C 0.4785 0.0606 0.3471   -0.311413
 C 0.9731 0.938 0.6419   -0.160167
 C 0.0321 0.0338 0.631   0.687087
 C 0.9068 0.9681 0.7105   -0.273731
 C 0.0678 0.909 0.6946   -0.312918
 O 0.9131 0.4411 0.7115   -0.919977
 O 0.6188 0.5833 0.5168   -0.683653
 O 0.5282 0.6714 0.5913   -0.573224
 O 0.7009 0.4919 0.3832   -0.73794
 O 0.8248 0.4475 0.5299   -0.64944
 O 0.6907 0.4794 0.6285   -0.673134
 O 0.934 0.3673 0.4853   -0.600775
 O 0.811 0.51182 0.29938   -0.628018
 O 0.6136 0.4993 0.7436   -0.650334
 O 0.2016 0.2885 0.7296   -0.918472
 O 0.102 0.4832 0.0665   -0.683219
 O 0.9369 0.4087 0.0801   -0.572311
 O 0.3177 0.6168 0.1087   -0.73909
 O 0.2949 0.4701 0.9176   -0.648858
 O 0.0622 0.3715 0.8509   -0.672275
 O 0.4487 0.5147 0.882   -0.600708
 O 0.51162 0.70062 0.21244   -0.626712
 O 0.87 0.2564 0.7557   -0.650283
 O 0.472 0.2704 0.5589   -0.919198
 O 0.0355 0.9335 0.4167   -0.682841
 O 0.8568 0.9199 0.3286   -0.571396
 O 0.209 0.8913 0.5081   -0.738815
 O 0.3773 0.0824 0.5525   -0.648844
 O 0.2113 0.1491 0.5206   -0.672285
 O 0.5667 0.118 0.6327   -0.60072
 O 0.29918 0.78756 0.48818   -0.627065
 O 0.1143 0.2443 0.5007   -0.650956
 O 0.0869 0.5589 0.2885   -0.919977
 O 0.3812 0.4167 0.4832   -0.683653
 O 0.4718 0.3286 0.4087   -0.573224
 O 0.2991 0.5081 0.6168   -0.73794
 O 0.1752 0.5525 0.4701   -0.649439
 O 0.3093 0.5206 0.3715   -0.673134
 O 0.066 0.6327 0.5147   -0.600775
 O 0.189 0.48818 0.70062   -0.628017
 O 0.3864 0.5007 0.2564   -0.650334
 O 0.7984 0.7115 0.2704   -0.918472
 O 0.898 0.5168 0.9335   -0.683219
 O 0.0631 0.5913 0.9199   -0.572311
 O 0.6823 0.3832 0.8913   -0.73909
 O 0.7051 0.5299 0.0824   -0.648858
 O 0.9378 0.6285 0.1491   -0.672276
 O 0.5513 0.4853 0.118   -0.600707
 O 0.48838 0.29938 0.78756   -0.626712
 O 0.13 0.7436 0.2443   -0.650283
 O 0.528 0.7296 0.4411   -0.919198
 O 0.9645 0.0665 0.5833   -0.682841
 O 0.1432 0.0801 0.6714   -0.571396
 O 0.791 0.1087 0.4919   -0.738815
 O 0.6227 0.9176 0.4475   -0.648843
 O 0.7887 0.8509 0.4794   -0.672285
 O 0.4333 0.882 0.3673   -0.60072
 O 0.70082 0.21244 0.51182   -0.627064
 O 0.8857 0.7557 0.4993   -0.650956
