{'_ref': 'TBD', '_srcid': 'CAKYAQ_clean', 'submitters': [{'name': 'Dalar Nazarian Jeff Camp and David Sholl', 'email': 'dalar@gatech.edu jcamp6@gatech.edu'}], '_method': 'VASP DFT with PBE;DDEC'}
data_FeH2(CO2)2
_symmetry_space_group_name_H-M   'P 1'
_cell_length_a   10.07050000
_cell_length_b   11.46669984
_cell_length_c   15.21240000
_cell_angle_alpha   90.89079947
_cell_angle_beta   90.00000000
_cell_angle_gamma   90.00000000
_symmetry_Int_Tables_number   1
_chemical_formula_structural   FeH2(CO2)2
_chemical_formula_sum   'Fe12 H24 C24 O48'
_cell_volume   1756.4456804
_cell_formula_units_Z   12
loop_
 _symmetry_equiv_pos_site_id
 _symmetry_equiv_pos_as_xyz
  1  'x, y, z'
loop_
 _atom_site_label
 _atom_site_fract_x
 _atom_site_fract_y
 _atom_site_fract_z
 _atom_site_charge
 Fe 0.92826 0.75421 0.13433   1.046182
 Fe 0.87582 0.25948 0.69763   1.050095
 Fe 0.42826 0.74579 0.36567   1.046183
 Fe 0.37582 0.24052 0.80237   1.050095
 Fe 0.07174 0.24579 0.86567   1.046182
 Fe 0.12418 0.74052 0.30237   1.050095
 Fe 0.57174 0.25421 0.63433   1.046182
 Fe 0.62418 0.75948 0.19763   1.050095
 Fe 0.0 0.5 0.0   1.091482
 Fe 0.5 0.0 0.5   1.091482
 Fe 0.0 0.0 0.0   1.105171
 Fe 0.5 0.5 0.5   1.105171
 H 0.774 0.8502 0.3682   0.01215
 H 0.059 0.476 0.254   0.013051
 H 0.623 0.5346 0.0776   0.0206
 H 0.228 0.9636 0.2066   0.003715
 H 0.129 0.6964 0.9154   0.014198
 H 0.717 0.9941 0.0311   -0.001099
 H 0.274 0.6498 0.1318   0.01215
 H 0.559 0.024 0.246   0.013049
 H 0.123 0.9654 0.4224   0.020599
 H 0.728 0.5364 0.2934   0.003714
 H 0.629 0.8036 0.5846   0.014198
 H 0.217 0.5059 0.4689   -0.0011
 H 0.226 0.1498 0.6318   0.01215
 H 0.941 0.524 0.746   0.013048
 H 0.377 0.4654 0.9224   0.020598
 H 0.772 0.0364 0.7934   0.003714
 H 0.871 0.3036 0.0846   0.014192
 H 0.283 0.0059 0.9689   -0.001099
 H 0.726 0.3502 0.8682   0.01215
 H 0.441 0.976 0.754   0.013047
 H 0.877 0.0346 0.5776   0.020597
 H 0.272 0.4636 0.7066   0.003713
 H 0.371 0.1964 0.4154   0.014192
 H 0.783 0.4941 0.5311   -0.0011
 C 0.8461 0.82473 0.32913   0.650803
 C 0.0391 0.51935 0.20335   0.660329
 C 0.7199 0.56253 0.07083   0.632722
 C 0.1564 0.94033 0.16923   0.665173
 C 0.0819 0.74168 0.96128   0.660036
 C 0.7318 0.93435 0.06695   0.699448
 C 0.3461 0.67527 0.17087   0.650804
 C 0.5391 0.98065 0.29665   0.660329
 C 0.2199 0.93747 0.42917   0.632722
 C 0.6564 0.55967 0.33077   0.665175
 C 0.5819 0.75832 0.53872   0.660036
 C 0.2318 0.56565 0.43305   0.699448
 C 0.1539 0.17527 0.67087   0.650803
 C 0.9609 0.48065 0.79665   0.66033
 C 0.2801 0.43747 0.92917   0.632722
 C 0.8436 0.05967 0.83077   0.665173
 C 0.9181 0.25832 0.03872   0.660037
 C 0.2682 0.06565 0.93305   0.699448
 C 0.6539 0.32473 0.82913   0.650803
 C 0.4609 0.01935 0.70335   0.660329
 C 0.7801 0.06253 0.57083   0.632722
 C 0.3436 0.44033 0.66923   0.665175
 C 0.4181 0.24168 0.46128   0.660037
 C 0.7682 0.43435 0.56695   0.699448
 O 0.81432 0.80622 0.24937   -0.628448
 O 0.95715 0.81056 0.36208   -0.561077
 O 0.01838 0.62782 0.21357   -0.636139
 O 0.0303 0.46315 0.1341   -0.575916
 O 0.75231 0.65013 0.11919   -0.633075
 O 0.79511 0.50789 0.02062   -0.568314
 O 0.09532 0.84694 0.18904   -0.649153
 O 0.13179 0.00462 0.10767   -0.568973
 O 0.01881 0.68628 0.0206   -0.627796
 O 0.09013 0.84838 0.95423   -0.574803
 O 0.85255 0.89993 0.0698   -0.632592
 O 0.63634 0.89364 0.10705   -0.569437
 O 0.31432 0.69378 0.25063   -0.628448
 O 0.45715 0.68944 0.13792   -0.561077
 O 0.51838 0.87218 0.28643   -0.636139
 O 0.5303 0.03685 0.3659   -0.575916
 O 0.25231 0.84987 0.38081   -0.633075
 O 0.29511 0.99211 0.47938   -0.568314
 O 0.59532 0.65306 0.31096   -0.649154
 O 0.63179 0.49538 0.39233   -0.568974
 O 0.51881 0.81372 0.4794   -0.627796
 O 0.59013 0.65162 0.54577   -0.574803
 O 0.35255 0.60007 0.4302   -0.632592
 O 0.13634 0.60636 0.39295   -0.569437
 O 0.18568 0.19378 0.75063   -0.628448
 O 0.04285 0.18944 0.63792   -0.561077
 O 0.98162 0.37218 0.78643   -0.636139
 O 0.9697 0.53685 0.8659   -0.575916
 O 0.24769 0.34987 0.88081   -0.633075
 O 0.20489 0.49211 0.97938   -0.568314
 O 0.90468 0.15306 0.81096   -0.649153
 O 0.86821 0.99538 0.89233   -0.568973
 O 0.98119 0.31372 0.9794   -0.627796
 O 0.90987 0.15162 0.04577   -0.574803
 O 0.14745 0.10007 0.9302   -0.632592
 O 0.36366 0.10636 0.89295   -0.569437
 O 0.68568 0.30622 0.74937   -0.628448
 O 0.54285 0.31056 0.86208   -0.561077
 O 0.48162 0.12782 0.71357   -0.63614
 O 0.4697 0.96315 0.6341   -0.575916
 O 0.74769 0.15013 0.61919   -0.633075
 O 0.70489 0.00789 0.52062   -0.568314
 O 0.40468 0.34694 0.68904   -0.649154
 O 0.36821 0.50462 0.60767   -0.568973
 O 0.48119 0.18628 0.5206   -0.627796
 O 0.40987 0.34838 0.45423   -0.574803
 O 0.64745 0.39993 0.5698   -0.632592
 O 0.86366 0.39364 0.60705   -0.569437
