{'_ref': 'TBD', '_srcid': 'CAKYAQ_clean', 'submitters': [{'name': 'Dalar Nazarian Jeff Camp and David Sholl', 'email': 'dalar@gatech.edu jcamp6@gatech.edu'}], '_method': 'VASP DFT with PBE;DDEC'}
data_FeH2(CO2)2
_symmetry_space_group_name_H-M   'P 1'
_cell_length_a   10.15680000
_cell_length_b   11.50079989
_cell_length_c   15.28300000
_cell_angle_alpha   90.94639886
_cell_angle_beta   90.00000000
_cell_angle_gamma   90.00000000
_symmetry_Int_Tables_number   1
_chemical_formula_structural   FeH2(CO2)2
_chemical_formula_sum   'Fe12 H24 C24 O48'
_cell_volume   1784.98393652
_cell_formula_units_Z   12
loop_
 _symmetry_equiv_pos_site_id
 _symmetry_equiv_pos_as_xyz
  1  'x, y, z'
loop_
 _atom_site_label
 _atom_site_fract_x
 _atom_site_fract_y
 _atom_site_fract_z
 _atom_site_charge
 Fe 0.93155 0.75415 0.13429   1.042242
 Fe 0.87095 0.25945 0.699   1.053187
 Fe 0.43155 0.74585 0.36571   1.042242
 Fe 0.37095 0.24055 0.801   1.053187
 Fe 0.06845 0.24585 0.86571   1.042241
 Fe 0.12905 0.74055 0.301   1.053186
 Fe 0.56845 0.25415 0.63429   1.042242
 Fe 0.62905 0.75945 0.199   1.053186
 Fe 0.0 0.5 0.0   1.089437
 Fe 0.5 0.0 0.5   1.089437
 Fe 0.0 0.0 0.0   1.102633
 Fe 0.5 0.5 0.5   1.102633
 H 0.784 0.8452 0.3702   0.010974
 H 0.066 0.48 0.251   0.00414
 H 0.632 0.543 0.069   0.012596
 H 0.234 0.962 0.206   0.007632
 H 0.123 0.698 0.913   0.015056
 H 0.722 0.9988 0.0308   0.011511
 H 0.284 0.6548 0.1298   0.010974
 H 0.566 0.02 0.249   0.004139
 H 0.132 0.957 0.431   0.012596
 H 0.734 0.538 0.294   0.007632
 H 0.623 0.802 0.587   0.015056
 H 0.222 0.5012 0.4692   0.01151
 H 0.216 0.1548 0.6298   0.010974
 H 0.934 0.52 0.749   0.004139
 H 0.368 0.457 0.931   0.012595
 H 0.766 0.038 0.794   0.007632
 H 0.877 0.302 0.087   0.015054
 H 0.278 0.0012 0.9692   0.01151
 H 0.716 0.3452 0.8702   0.010974
 H 0.434 0.98 0.751   0.004138
 H 0.868 0.043 0.569   0.012595
 H 0.266 0.462 0.706   0.007631
 H 0.377 0.198 0.413   0.015054
 H 0.778 0.4988 0.5308   0.01151
 C 0.8518 0.82285 0.32875   0.657183
 C 0.0427 0.5206 0.2016   0.678561
 C 0.7241 0.565 0.0711   0.658512
 C 0.1571 0.9396 0.168   0.648098
 C 0.0802 0.7417 0.9608   0.659623
 C 0.7364 0.93504 0.06944   0.671557
 C 0.3518 0.67715 0.17125   0.657183
 C 0.5427 0.9794 0.2984   0.678561
 C 0.2241 0.935 0.4289   0.658512
 C 0.6571 0.5604 0.332   0.648099
 C 0.5802 0.7583 0.5392   0.659623
 C 0.2364 0.56496 0.43056   0.671558
 C 0.1482 0.17715 0.67125   0.657183
 C 0.9573 0.4794 0.7984   0.678561
 C 0.2759 0.435 0.9289   0.658512
 C 0.8429 0.0604 0.832   0.648098
 C 0.9198 0.2583 0.0392   0.659623
 C 0.2636 0.06496 0.93056   0.671557
 C 0.6482 0.32285 0.82875   0.657183
 C 0.4573 0.0206 0.7016   0.678561
 C 0.7759 0.065 0.5711   0.658512
 C 0.3429 0.4396 0.668   0.648099
 C 0.4198 0.2417 0.4608   0.659623
 C 0.7636 0.43504 0.56944   0.671558
 O 0.81878 0.80429 0.25004   -0.627322
 O 0.9625 0.80941 0.36021   -0.565599
 O 0.02428 0.62821 0.21221   -0.639823
 O 0.0308 0.46359 0.13359   -0.581188
 O 0.75596 0.65142 0.11962   -0.639416
 O 0.79726 0.50944 0.02124   -0.576713
 O 0.09741 0.84725 0.18825   -0.639129
 O 0.132 0.00356 0.10666   -0.567103
 O 0.01951 0.68639 0.02039   -0.625459
 O 0.088 0.8483 0.954   -0.578231
 O 0.85505 0.90006 0.07106   -0.619773
 O 0.64209 0.89404 0.10994   -0.567148
 O 0.31878 0.69571 0.24996   -0.627322
 O 0.4625 0.69059 0.13979   -0.565599
 O 0.52428 0.87179 0.28779   -0.639823
 O 0.5308 0.03641 0.36641   -0.581188
 O 0.25596 0.84858 0.38038   -0.639416
 O 0.29726 0.99056 0.47876   -0.576713
 O 0.59741 0.65275 0.31175   -0.639129
 O 0.632 0.49644 0.39334   -0.567103
 O 0.51951 0.81361 0.47961   -0.625459
 O 0.588 0.6517 0.546   -0.578231
 O 0.35505 0.59994 0.42894   -0.619773
 O 0.14209 0.60596 0.39006   -0.567148
 O 0.18122 0.19571 0.74996   -0.627322
 O 0.0375 0.19059 0.63979   -0.565599
 O 0.97572 0.37179 0.78779   -0.639823
 O 0.9692 0.53641 0.86641   -0.581188
 O 0.24404 0.34858 0.88038   -0.639416
 O 0.20274 0.49056 0.97876   -0.576713
 O 0.90259 0.15275 0.81175   -0.639129
 O 0.868 0.99644 0.89334   -0.567103
 O 0.98049 0.31361 0.97961   -0.625459
 O 0.912 0.1517 0.046   -0.578231
 O 0.14495 0.09994 0.92894   -0.619773
 O 0.35791 0.10596 0.89006   -0.567148
 O 0.68122 0.30429 0.75004   -0.627322
 O 0.5375 0.30941 0.86021   -0.565599
 O 0.47572 0.12821 0.71221   -0.639823
 O 0.4692 0.96359 0.63359   -0.581188
 O 0.74404 0.15142 0.61962   -0.639416
 O 0.70274 0.00944 0.52124   -0.576713
 O 0.40259 0.34725 0.68825   -0.639129
 O 0.368 0.50356 0.60666   -0.567103
 O 0.48049 0.18639 0.52039   -0.625459
 O 0.412 0.3483 0.454   -0.578231
 O 0.64495 0.40006 0.57106   -0.619773
 O 0.85791 0.39404 0.60994   -0.567148
