{'_ref': 'TBD', '_srcid': 'CAKYAQ_clean', 'submitters': [{'name': 'Dalar Nazarian Jeff Camp and David Sholl', 'email': 'dalar@gatech.edu jcamp6@gatech.edu'}], '_method': 'VASP DFT with PBE;DDEC'}
data_FeH2(CO2)2
_symmetry_space_group_name_H-M   'P 1'
_cell_length_a   9.84590000
_cell_length_b   11.29110002
_cell_length_c   14.82500000
_cell_angle_alpha   90.82660089
_cell_angle_beta   90.00000000
_cell_angle_gamma   90.00000000
_symmetry_Int_Tables_number   1
_chemical_formula_structural   FeH2(CO2)2
_chemical_formula_sum   'Fe12 H24 C24 O48'
_cell_volume   1647.93918066
_cell_formula_units_Z   12
loop_
 _symmetry_equiv_pos_site_id
 _symmetry_equiv_pos_as_xyz
  1  'x, y, z'
loop_
 _atom_site_label
 _atom_site_fract_x
 _atom_site_fract_y
 _atom_site_fract_z
 _atom_site_charge
 Fe 0.91876 0.75508 0.1335   1.038724
 Fe 0.89216 0.26222 0.69005   1.046869
 Fe 0.41876 0.74492 0.3665   1.038724
 Fe 0.39216 0.23778 0.80995   1.046869
 Fe 0.08124 0.24492 0.8665   1.038723
 Fe 0.10784 0.73778 0.30995   1.046869
 Fe 0.58124 0.25508 0.6335   1.038723
 Fe 0.60784 0.76222 0.19005   1.046869
 Fe 0.0 0.5 0.0   1.082788
 Fe 0.5 0.0 0.5   1.082788
 Fe 0.0 0.0 0.0   1.090061
 Fe 0.5 0.5 0.5   1.090061
 H 0.754 0.8691 0.3641   0.006828
 H 0.03 0.4694 0.2644   0.020227
 H 0.613 0.5519 0.0459   0.013059
 H 0.207 0.9797 0.2257   0.012021
 H 0.154 0.6897 0.9317   0.0035
 H 0.703 0.988 0.007   0.012575
 H 0.254 0.6309 0.1359   0.006828
 H 0.53 0.0306 0.2356   0.020226
 H 0.113 0.9481 0.4541   0.013059
 H 0.707 0.5203 0.2743   0.01202
 H 0.654 0.8103 0.5683   0.0035
 H 0.203 0.512 0.493   0.012575
 H 0.246 0.1309 0.6359   0.006828
 H 0.97 0.5306 0.7356   0.020226
 H 0.387 0.4481 0.9541   0.013054
 H 0.793 0.0203 0.7743   0.01202
 H 0.846 0.3103 0.0683   0.003497
 H 0.297 0.012 0.993   0.012575
 H 0.746 0.3691 0.8641   0.006829
 H 0.47 0.9694 0.7644   0.020225
 H 0.887 0.0519 0.5459   0.013054
 H 0.293 0.4797 0.7257   0.012019
 H 0.346 0.1897 0.4317   0.003497
 H 0.797 0.488 0.507   0.012575
 C 0.8263 0.83307 0.32987   0.662708
 C 0.0169 0.51315 0.21015   0.648124
 C 0.7084 0.57151 0.05321   0.652558
 C 0.1342 0.95267 0.18387   0.643602
 C 0.105 0.74305 0.96895   0.681924
 C 0.7174 0.92994 0.05144   0.672734
 C 0.3263 0.66693 0.17013   0.662707
 C 0.5169 0.98685 0.28985   0.648123
 C 0.2084 0.92849 0.44679   0.652558
 C 0.6342 0.54733 0.31613   0.643601
 C 0.605 0.75695 0.53105   0.681924
 C 0.2174 0.57006 0.44856   0.672734
 C 0.1737 0.16693 0.67013   0.662707
 C 0.9831 0.48685 0.78985   0.648124
 C 0.2916 0.42849 0.94679   0.652558
 C 0.8658 0.04733 0.81613   0.643602
 C 0.895 0.25695 0.03105   0.681924
 C 0.2826 0.07006 0.94856   0.672734
 C 0.6737 0.33307 0.82987   0.662706
 C 0.4831 0.01315 0.71015   0.648123
 C 0.7916 0.07151 0.55321   0.652558
 C 0.3658 0.45267 0.68387   0.643601
 C 0.395 0.24305 0.46895   0.681924
 C 0.7826 0.42994 0.55144   0.672734
 O 0.79913 0.81143 0.24685   -0.628407
 O 0.93677 0.81371 0.36791   -0.56225
 O 0.00235 0.62436 0.21803   -0.630009
 O 0.00693 0.45486 0.13886   -0.5723
 O 0.74017 0.65029 0.11175   -0.637799
 O 0.78894 0.51567 0.00427   -0.567882
 O 0.08484 0.84963 0.19439   -0.63615
 O 0.10744 0.02101 0.12191   -0.565278
 O 0.02643 0.68683 0.02317   -0.642429
 O 0.11499 0.85095 0.96285   -0.569161
 O 0.84097 0.89685 0.06115   -0.627215
 O 0.61818 0.89462 0.09492   -0.562991
 O 0.29913 0.68857 0.25315   -0.628407
 O 0.43677 0.68629 0.13209   -0.56225
 O 0.50235 0.87564 0.28197   -0.630009
 O 0.50693 0.04514 0.36114   -0.572299
 O 0.24017 0.84971 0.38825   -0.637799
 O 0.28894 0.98433 0.49573   -0.567882
 O 0.58484 0.65037 0.30561   -0.63615
 O 0.60744 0.47899 0.37809   -0.565278
 O 0.52643 0.81317 0.47683   -0.642429
 O 0.61499 0.64905 0.53715   -0.569161
 O 0.34097 0.60315 0.43885   -0.627215
 O 0.11818 0.60538 0.40508   -0.562991
 O 0.20087 0.18857 0.75315   -0.628407
 O 0.06323 0.18629 0.63209   -0.56225
 O 0.99765 0.37564 0.78197   -0.630009
 O 0.99307 0.54514 0.86114   -0.5723
 O 0.25983 0.34971 0.88825   -0.637799
 O 0.21106 0.48433 0.99573   -0.567882
 O 0.91516 0.15037 0.80561   -0.63615
 O 0.89256 0.97899 0.87809   -0.565278
 O 0.97357 0.31317 0.97683   -0.642429
 O 0.88501 0.14905 0.03715   -0.569161
 O 0.15903 0.10315 0.93885   -0.627215
 O 0.38182 0.10538 0.90508   -0.562991
 O 0.70087 0.31143 0.74685   -0.628407
 O 0.56323 0.31371 0.86791   -0.562249
 O 0.49765 0.12436 0.71803   -0.630009
 O 0.49307 0.95486 0.63886   -0.572299
 O 0.75983 0.15029 0.61175   -0.637799
 O 0.71106 0.01567 0.50427   -0.567882
 O 0.41516 0.34963 0.69439   -0.63615
 O 0.39256 0.52101 0.62191   -0.565278
 O 0.47357 0.18683 0.52317   -0.642429
 O 0.38501 0.35095 0.46285   -0.569161
 O 0.65903 0.39685 0.56115   -0.627215
 O 0.88182 0.39462 0.59492   -0.562991
