{'_ref': 'TBD', '_srcid': 'CAKYAQ_clean', 'submitters': [{'name': 'Dalar Nazarian Jeff Camp and David Sholl', 'email': 'dalar@gatech.edu jcamp6@gatech.edu'}], '_method': 'VASP DFT with PBE;DDEC'}
data_FeH2(CO2)2
_symmetry_space_group_name_H-M   'P 1'
_cell_length_a   9.96270000
_cell_length_b   11.42069953
_cell_length_c   14.59070000
_cell_angle_alpha   91.42489827
_cell_angle_beta   90.00000000
_cell_angle_gamma   90.00000000
_symmetry_Int_Tables_number   1
_chemical_formula_structural   FeH2(CO2)2
_chemical_formula_sum   'Fe12 H24 C24 O48'
_cell_volume   1659.63113053
_cell_formula_units_Z   12
loop_
 _symmetry_equiv_pos_site_id
 _symmetry_equiv_pos_as_xyz
  1  'x, y, z'
loop_
 _atom_site_label
 _atom_site_fract_x
 _atom_site_fract_y
 _atom_site_fract_z
 _atom_site_charge
 Fe 0.92033 0.75546 0.13273   1.036859
 Fe 0.89094 0.25999 0.68775   1.046354
 Fe 0.42033 0.74454 0.36727   1.036859
 Fe 0.39094 0.24001 0.81225   1.046354
 Fe 0.07967 0.24454 0.86727   1.036859
 Fe 0.10906 0.74001 0.31225   1.046354
 Fe 0.57967 0.25546 0.63273   1.036859
 Fe 0.60906 0.75999 0.18775   1.046354
 Fe 0.0 0.5 0.0   1.078692
 Fe 0.5 0.0 0.5   1.078692
 Fe 0.0 0.0 0.0   1.09848
 Fe 0.5 0.5 0.5   1.098479
 H 0.7567 0.8562 0.3682   -0.003035
 H 0.0336 0.478 0.2651   0.0085
 H 0.6215 0.5555 0.0424   0.002609
 H 0.1812 0.9834 0.2346   -0.00575
 H 0.1591 0.6997 0.9287   0.004458
 H 0.7031 0.9847 0.0062   0.009147
 H 0.2567 0.6438 0.1318   -0.003035
 H 0.5336 0.022 0.2349   0.0085
 H 0.1215 0.9445 0.4576   0.002609
 H 0.6812 0.5166 0.2654   -0.005751
 H 0.6591 0.8003 0.5713   0.004458
 H 0.2031 0.5153 0.4938   0.009147
 H 0.2433 0.1438 0.6318   -0.003035
 H 0.9664 0.522 0.7349   0.008499
 H 0.3785 0.4445 0.9576   0.002608
 H 0.8188 0.0166 0.7654   -0.005751
 H 0.8409 0.3003 0.0713   0.004457
 H 0.2969 0.0153 0.9938   0.009147
 H 0.7433 0.3562 0.8682   -0.003035
 H 0.4664 0.978 0.7651   0.008499
 H 0.8785 0.0555 0.5424   0.002608
 H 0.3188 0.4834 0.7346   -0.005751
 H 0.3409 0.1997 0.4287   0.004457
 H 0.7969 0.4847 0.5062   0.009146
 C 0.8262 0.82703 0.33173   0.682231
 C 0.0145 0.51761 0.21171   0.675825
 C 0.7121 0.5735 0.0488   0.673674
 C 0.1249 0.95463 0.18843   0.682653
 C 0.1045 0.74367 0.96817   0.692492
 C 0.7198 0.92765 0.04915   0.681168
 C 0.3262 0.67297 0.16827   0.68223
 C 0.5145 0.98239 0.28829   0.675825
 C 0.2121 0.9265 0.4512   0.673674
 C 0.6249 0.54537 0.31157   0.682653
 C 0.6045 0.75633 0.53183   0.692492
 C 0.2198 0.57235 0.45085   0.681168
 C 0.1738 0.17297 0.66827   0.68223
 C 0.9855 0.48239 0.78829   0.675826
 C 0.2879 0.4265 0.9512   0.673674
 C 0.8751 0.04537 0.81157   0.682653
 C 0.8955 0.25633 0.03183   0.692492
 C 0.2802 0.07235 0.95085   0.681168
 C 0.6738 0.32703 0.83173   0.68223
 C 0.4855 0.01761 0.71171   0.675825
 C 0.7879 0.0735 0.5488   0.673674
 C 0.3751 0.45463 0.68843   0.682653
 C 0.3955 0.24367 0.46817   0.692492
 C 0.7802 0.42765 0.54915   0.681168
 O 0.79947 0.80715 0.24755   -0.629385
 O 0.93547 0.81137 0.36987   -0.567845
 O 0.00567 0.62759 0.21859   -0.63875
 O 0.0002 0.45784 0.14134   -0.578705
 O 0.74206 0.65181 0.10731   -0.638283
 O 0.7915 0.51789 0.99869   -0.577735
 O 0.08166 0.85219 0.19719   -0.645313
 O 0.1009 0.02082 0.12562   -0.577923
 O 0.02757 0.68698 0.02178   -0.64397
 O 0.1128 0.84991 0.96411   -0.577019
 O 0.84235 0.89673 0.0597   -0.634034
 O 0.62191 0.88904 0.09044   -0.566806
 O 0.29947 0.69285 0.25245   -0.629385
 O 0.43547 0.68863 0.13013   -0.567845
 O 0.50567 0.87241 0.28141   -0.63875
 O 0.5002 0.04216 0.35866   -0.578705
 O 0.24206 0.84819 0.39269   -0.638283
 O 0.2915 0.98211 0.50131   -0.577735
 O 0.58166 0.64781 0.30281   -0.645313
 O 0.6009 0.47918 0.37438   -0.577923
 O 0.52757 0.81302 0.47822   -0.64397
 O 0.6128 0.65009 0.53589   -0.577019
 O 0.34235 0.60327 0.4403   -0.634034
 O 0.12191 0.61096 0.40956   -0.566806
 O 0.20053 0.19285 0.75245   -0.629385
 O 0.06453 0.18863 0.63013   -0.567845
 O 0.99433 0.37241 0.78141   -0.63875
 O 0.9998 0.54216 0.85866   -0.578704
 O 0.25794 0.34819 0.89269   -0.638283
 O 0.2085 0.48211 0.00131   -0.577735
 O 0.91834 0.14781 0.80281   -0.645313
 O 0.8991 0.97918 0.87438   -0.577923
 O 0.97243 0.31302 0.97822   -0.64397
 O 0.8872 0.15009 0.03589   -0.577019
 O 0.15765 0.10327 0.9403   -0.634034
 O 0.37809 0.11096 0.90956   -0.566806
 O 0.70053 0.30715 0.74755   -0.629385
 O 0.56453 0.31137 0.86987   -0.567845
 O 0.49433 0.12759 0.71859   -0.63875
 O 0.4998 0.95784 0.64134   -0.578704
 O 0.75794 0.15181 0.60731   -0.638283
 O 0.7085 0.01789 0.49869   -0.577735
 O 0.41834 0.35219 0.69719   -0.645313
 O 0.3991 0.52082 0.62562   -0.577923
 O 0.47243 0.18698 0.52178   -0.64397
 O 0.3872 0.34991 0.46411   -0.577019
 O 0.65765 0.39673 0.5597   -0.634034
 O 0.87809 0.38904 0.59044   -0.566806
