{'_ref': 'TBD', '_srcid': 'CAKYAQ_clean', 'submitters': [{'name': 'Dalar Nazarian Jeff Camp and David Sholl', 'email': 'dalar@gatech.edu jcamp6@gatech.edu'}], '_method': 'VASP DFT with PBE;DDEC'}
data_FeH2(CO2)2
_symmetry_space_group_name_H-M   'P 1'
_cell_length_a   9.88620000
_cell_length_b   11.35769975
_cell_length_c   14.49590000
_cell_angle_alpha   91.25159997
_cell_angle_beta   90.00000000
_cell_angle_gamma   90.00000000
_symmetry_Int_Tables_number   1
_chemical_formula_structural   FeH2(CO2)2
_chemical_formula_sum   'Fe12 H24 C24 O48'
_cell_volume   1627.27642442
_cell_formula_units_Z   12
loop_
 _symmetry_equiv_pos_site_id
 _symmetry_equiv_pos_as_xyz
  1  'x, y, z'
loop_
 _atom_site_label
 _atom_site_fract_x
 _atom_site_fract_y
 _atom_site_fract_z
 _atom_site_charge
 Fe 0.91859 0.7554 0.13244   1.036674
 Fe 0.89455 0.26052 0.6861   1.050887
 Fe 0.41859 0.7446 0.36756   1.036674
 Fe 0.39455 0.23948 0.8139   1.050887
 Fe 0.08141 0.2446 0.86756   1.036674
 Fe 0.10545 0.73948 0.3139   1.050887
 Fe 0.58141 0.2554 0.63244   1.036674
 Fe 0.60545 0.76052 0.1861   1.050887
 Fe 0.0 0.5 0.0   1.070351
 Fe 0.5 0.0 0.5   1.070351
 Fe 0.0 0.0 0.0   1.086707
 Fe 0.5 0.5 0.5   1.086707
 H 0.7495 0.8592 0.3686   -0.000935
 H 0.0245 0.474 0.269   0.014648
 H 0.6166 0.5567 0.0363   0.007901
 H 0.1749 0.9889 0.2402   0.002416
 H 0.1668 0.6978 0.9306   0.010227
 H 0.6998 0.9838 0.9996   0.012371
 H 0.2495 0.6408 0.1314   -0.000935
 H 0.5245 0.026 0.231   0.014648
 H 0.1166 0.9433 0.4637   0.0079
 H 0.6749 0.5111 0.2598   0.002416
 H 0.6668 0.8022 0.5694   0.010227
 H 0.1998 0.5162 0.5004   0.012371
 H 0.2505 0.1408 0.6314   -0.000935
 H 0.9755 0.526 0.731   0.014648
 H 0.3834 0.4433 0.9637   0.007899
 H 0.8251 0.0111 0.7598   0.002416
 H 0.8332 0.3022 0.0694   0.010225
 H 0.3002 0.0162 0.000399999999999   0.012371
 H 0.7505 0.3592 0.8686   -0.000935
 H 0.4755 0.974 0.769   0.014648
 H 0.8834 0.0567 0.5363   0.007898
 H 0.3251 0.4889 0.7402   0.002415
 H 0.3332 0.1978 0.4306   0.010225
 H 0.8002 0.4838 0.4996   0.012371
 C 0.8215 0.82865 0.33185   0.675105
 C 0.0075 0.5151 0.2138   0.661692
 C 0.7098 0.5745 0.0446   0.660088
 C 0.1202 0.9582 0.1914   0.663152
 C 0.1095 0.74338 0.96988   0.678093
 C 0.7164 0.92662 0.04512   0.673189
 C 0.3215 0.67135 0.16815   0.675105
 C 0.5075 0.9849 0.2862   0.661692
 C 0.2098 0.9255 0.4554   0.660088
 C 0.6202 0.5418 0.3086   0.663153
 C 0.6095 0.75662 0.53012   0.678094
 C 0.2164 0.57338 0.45488   0.673189
 C 0.1785 0.17135 0.66815   0.675104
 C 0.9925 0.4849 0.7862   0.661692
 C 0.2902 0.4255 0.9554   0.660088
 C 0.8798 0.0418 0.8086   0.663152
 C 0.8905 0.25662 0.03012   0.678094
 C 0.2836 0.07338 0.95488   0.673189
 C 0.6785 0.32865 0.83185   0.675104
 C 0.4925 0.0151 0.7138   0.661692
 C 0.7902 0.0745 0.5446   0.660088
 C 0.3798 0.4582 0.6914   0.663153
 C 0.3905 0.24338 0.46988   0.678094
 C 0.7836 0.42662 0.54512   0.673189
 O 0.79609 0.80854 0.24664   -0.627748
 O 0.93052 0.81223 0.37133   -0.563906
 O 0.00107 0.62633 0.22023   -0.634733
 O 0.99375 0.45524 0.14234   -0.576135
 O 0.7395 0.65181 0.10581   -0.640017
 O 0.79096 0.51991 0.99461   -0.566779
 O 0.07999 0.85241 0.19847   -0.645574
 O 0.09535 0.02458 0.12788   -0.564588
 O 0.0293 0.68709 0.02269   -0.637943
 O 0.11882 0.85078 0.96548   -0.572862
 O 0.83939 0.89632 0.05757   -0.628958
 O 0.61704 0.88876 0.08666   -0.564792
 O 0.29609 0.69146 0.25336   -0.627748
 O 0.43052 0.68777 0.12867   -0.563906
 O 0.50107 0.87367 0.27977   -0.634733
 O 0.49375 0.04476 0.35766   -0.576135
 O 0.2395 0.84819 0.39419   -0.640017
 O 0.29096 0.98009 0.50539   -0.566779
 O 0.57999 0.64759 0.30153   -0.645574
 O 0.59535 0.47542 0.37212   -0.564588
 O 0.5293 0.81291 0.47731   -0.637943
 O 0.61882 0.64922 0.53452   -0.572862
 O 0.33939 0.60368 0.44243   -0.628958
 O 0.11704 0.61124 0.41334   -0.564792
 O 0.20391 0.19146 0.75336   -0.627748
 O 0.06948 0.18777 0.62867   -0.563906
 O 0.99893 0.37367 0.77977   -0.634733
 O 0.00625 0.54476 0.85766   -0.576136
 O 0.2605 0.34819 0.89419   -0.640017
 O 0.20904 0.48009 0.00539   -0.56678
 O 0.92001 0.14759 0.80153   -0.645574
 O 0.90465 0.97542 0.87212   -0.564587
 O 0.9707 0.31291 0.97731   -0.637943
 O 0.88118 0.14922 0.03452   -0.572862
 O 0.16061 0.10368 0.94243   -0.628957
 O 0.38296 0.11124 0.91334   -0.564792
 O 0.70391 0.30854 0.74664   -0.627748
 O 0.56948 0.31223 0.87133   -0.563906
 O 0.49893 0.12633 0.72023   -0.634733
 O 0.50625 0.95524 0.64234   -0.576136
 O 0.7605 0.15181 0.60581   -0.640017
 O 0.70904 0.01991 0.49461   -0.56678
 O 0.42001 0.35241 0.69847   -0.645574
 O 0.40465 0.52458 0.62788   -0.564587
 O 0.4707 0.18709 0.52269   -0.637943
 O 0.38118 0.35078 0.46548   -0.572862
 O 0.66061 0.39632 0.55757   -0.628957
 O 0.88296 0.38876 0.58666   -0.564792
