{'_ref': 'TBD', '_srcid': 'CAKYAQ_clean', 'submitters': [{'name': 'Dalar Nazarian Jeff Camp and David Sholl', 'email': 'dalar@gatech.edu jcamp6@gatech.edu'}], '_method': 'VASP DFT with PBE;DDEC'}
data_FeH2(CO2)2
_symmetry_space_group_name_H-M   'P 1'
_cell_length_a   9.91460000
_cell_length_b   11.40809981
_cell_length_c   14.84400000
_cell_angle_alpha   91.16589975
_cell_angle_beta   90.00000000
_cell_angle_gamma   90.00000000
_symmetry_Int_Tables_number   1
_chemical_formula_structural   FeH2(CO2)2
_chemical_formula_sum   'Fe12 H24 C24 O48'
_cell_volume   1678.60895015
_cell_formula_units_Z   12
loop_
 _symmetry_equiv_pos_site_id
 _symmetry_equiv_pos_as_xyz
  1  'x, y, z'
loop_
 _atom_site_label
 _atom_site_fract_x
 _atom_site_fract_y
 _atom_site_fract_z
 _atom_site_charge
 Fe 0.92162 0.75605 0.13381   1.037316
 Fe 0.88796 0.26086 0.69097   1.048996
 Fe 0.42162 0.74395 0.36619   1.037316
 Fe 0.38796 0.23914 0.80903   1.048996
 Fe 0.07838 0.24395 0.86619   1.037316
 Fe 0.11204 0.73914 0.30903   1.048996
 Fe 0.57838 0.25605 0.63381   1.037316
 Fe 0.61204 0.76086 0.19097   1.048996
 Fe 0.0 0.5 0.0   1.078886
 Fe 0.5 0.0 0.5   1.078886
 Fe 0.0 0.0 0.0   1.091837
 Fe 0.5 0.5 0.5   1.091837
 H 0.7528 0.8463 0.37   0.008251
 H 0.054 0.4711 0.2611   0.022576
 H 0.615 0.5508 0.0538   0.0125
 H 0.2 0.9768 0.2288   0.006024
 H 0.1544 0.693 0.9299   0.006927
 H 0.7069 0.0017 0.0227   0.012044
 H 0.2528 0.6537 0.13   0.008251
 H 0.554 0.0289 0.2389   0.022574
 H 0.115 0.9492 0.4462   0.0125
 H 0.7 0.5232 0.2712   0.006023
 H 0.6544 0.807 0.5701   0.006927
 H 0.2069 0.4983 0.4773   0.012043
 H 0.2472 0.1537 0.63   0.008251
 H 0.946 0.5289 0.7389   0.022574
 H 0.385 0.4492 0.9462   0.012496
 H 0.8 0.0232 0.7712   0.006023
 H 0.8456 0.307 0.0701   0.006922
 H 0.2931 0.9983 0.9773   0.012043
 H 0.7472 0.3463 0.87   0.008251
 H 0.446 0.9711 0.7611   0.022572
 H 0.885 0.0508 0.5538   0.012496
 H 0.3 0.4768 0.7288   0.006021
 H 0.3456 0.193 0.4299   0.006922
 H 0.7931 0.5017 0.5227   0.012043
 C 0.8285 0.81971 0.33303   0.655283
 C 0.0281 0.5161 0.2073   0.639758
 C 0.71 0.5705 0.0551   0.652797
 C 0.136 0.95273 0.18343   0.659214
 C 0.09772 0.74197 0.96627   0.676382
 C 0.7229 0.93852 0.06112   0.675236
 C 0.3285 0.68029 0.16697   0.655282
 C 0.5281 0.9839 0.2927   0.639757
 C 0.21 0.9295 0.4449   0.652797
 C 0.636 0.54727 0.31657   0.659214
 C 0.59772 0.75803 0.53373   0.676382
 C 0.2229 0.56148 0.43888   0.675236
 C 0.1715 0.18029 0.66697   0.655282
 C 0.9719 0.4839 0.7927   0.639758
 C 0.29 0.4295 0.9449   0.652797
 C 0.864 0.04727 0.81657   0.659213
 C 0.90228 0.25803 0.03373   0.676383
 C 0.2771 0.06148 0.93888   0.675236
 C 0.6715 0.31971 0.83303   0.655281
 C 0.4719 0.0161 0.7073   0.639757
 C 0.79 0.0705 0.5551   0.652797
 C 0.364 0.45273 0.68343   0.659214
 C 0.40228 0.24197 0.46627   0.676383
 C 0.7771 0.43852 0.56112   0.675236
 O 0.80302 0.80423 0.2493   -0.626776
 O 0.93892 0.80365 0.37006   -0.559987
 O 0.01013 0.62622 0.21556   -0.627533
 O 0.01409 0.45646 0.13765   -0.56918
 O 0.7425 0.6545 0.10893   -0.637469
 O 0.78947 0.51254 0.00726   -0.569672
 O 0.08363 0.85228 0.19647   -0.645052
 O 0.11458 0.01596 0.11868   -0.565849
 O 0.02456 0.6868 0.02293   -0.637856
 O 0.10511 0.84855 0.95848   -0.570902
 O 0.84445 0.90177 0.06591   -0.624228
 O 0.62438 0.89912 0.10176   -0.564152
 O 0.30302 0.69577 0.2507   -0.626776
 O 0.43892 0.69635 0.12994   -0.559986
 O 0.51013 0.87378 0.28444   -0.627532
 O 0.51409 0.04354 0.36235   -0.56918
 O 0.2425 0.8455 0.39107   -0.637469
 O 0.28947 0.98746 0.49274   -0.569672
 O 0.58363 0.64772 0.30353   -0.645052
 O 0.61458 0.48404 0.38132   -0.565849
 O 0.52456 0.8132 0.47707   -0.637856
 O 0.60511 0.65145 0.54152   -0.570902
 O 0.34445 0.59823 0.43409   -0.624229
 O 0.12438 0.60088 0.39824   -0.564152
 O 0.19698 0.19577 0.7507   -0.626776
 O 0.06108 0.19635 0.62994   -0.559986
 O 0.98987 0.37378 0.78444   -0.627533
 O 0.98591 0.54354 0.86235   -0.56918
 O 0.2575 0.3455 0.89107   -0.637469
 O 0.21053 0.48746 0.99274   -0.569672
 O 0.91637 0.14772 0.80353   -0.645052
 O 0.88542 0.98404 0.88132   -0.565849
 O 0.97544 0.3132 0.97707   -0.637856
 O 0.89489 0.15145 0.04152   -0.570902
 O 0.15555 0.09823 0.93409   -0.624228
 O 0.37562 0.10088 0.89824   -0.564152
 O 0.69698 0.30423 0.7493   -0.626776
 O 0.56108 0.30365 0.87006   -0.559986
 O 0.48987 0.12622 0.71556   -0.627533
 O 0.48591 0.95646 0.63765   -0.56918
 O 0.7575 0.1545 0.60893   -0.637469
 O 0.71053 0.01254 0.50726   -0.569672
 O 0.41637 0.35228 0.69647   -0.645052
 O 0.38542 0.51596 0.61868   -0.565849
 O 0.47544 0.1868 0.52293   -0.637856
 O 0.39489 0.34855 0.45848   -0.570902
 O 0.65555 0.40177 0.56591   -0.624229
 O 0.87562 0.39912 0.60176   -0.564152
