{'_ref': 'TBD', '_srcid': 'CAKYAQ_clean', 'submitters': [{'name': 'Dalar Nazarian Jeff Camp and David Sholl', 'email': 'dalar@gatech.edu jcamp6@gatech.edu'}], '_method': 'VASP DFT with PBE;DDEC'}
data_FeH2(CO2)2
_symmetry_space_group_name_H-M   'P 1'
_cell_length_a   9.93690000
_cell_length_b   11.44429950
_cell_length_c   14.81420000
_cell_angle_alpha   91.47469950
_cell_angle_beta   90.00000000
_cell_angle_gamma   90.00000000
_symmetry_Int_Tables_number   1
_chemical_formula_structural   FeH2(CO2)2
_chemical_formula_sum   'Fe12 H24 C24 O48'
_cell_volume   1684.12557081
_cell_formula_units_Z   12
loop_
 _symmetry_equiv_pos_site_id
 _symmetry_equiv_pos_as_xyz
  1  'x, y, z'
loop_
 _atom_site_label
 _atom_site_fract_x
 _atom_site_fract_y
 _atom_site_fract_z
 _atom_site_charge
 Fe 0.92445 0.75637 0.13294   1.042657
 Fe 0.6153 0.75996 0.19201   1.048828
 Fe 0.42445 0.74363 0.36706   1.042657
 Fe 0.1153 0.74004 0.30799   1.048829
 Fe 0.07555 0.24363 0.86706   1.042657
 Fe 0.3847 0.24004 0.80799   1.048828
 Fe 0.57555 0.25637 0.63294   1.042657
 Fe 0.8847 0.25996 0.69201   1.048829
 Fe 0.0 0.5 0.0   0.806151
 Fe 0.5 0.0 0.5   0.806151
 Fe 0.0 0.0 0.0   1.09791
 Fe 0.5 0.5 0.5   1.09791
 H 0.7633 0.8542 0.3694   0.005137
 H 0.0471 0.4772 0.2608   0.018564
 H 0.6203 0.5563 0.0462   0.012637
 H 0.2027 0.9788 0.2254   0.003587
 H 0.1586 0.6965 0.9277   0.01382
 H 0.7066 0.9966 0.0195   0.012924
 H 0.2633 0.6458 0.1306   0.005137
 H 0.5471 0.0228 0.2392   0.018563
 H 0.1203 0.9437 0.4538   0.012637
 H 0.7027 0.5212 0.2746   0.003587
 H 0.6586 0.8035 0.5723   0.01382
 H 0.2066 0.5034 0.4805   0.012924
 H 0.2367 0.1458 0.6306   0.005137
 H 0.9529 0.5228 0.7392   0.018563
 H 0.3797 0.4437 0.9538   0.012633
 H 0.7973 0.0212 0.7746   0.003586
 H 0.8414 0.3035 0.0723   0.013818
 H 0.2934 0.0034 0.9805   0.012924
 H 0.7367 0.3542 0.8694   0.005137
 H 0.4529 0.9772 0.7608   0.018562
 H 0.8797 0.0563 0.5462   0.012632
 H 0.2973 0.4788 0.7254   0.003585
 H 0.3414 0.1965 0.4277   0.013818
 H 0.7934 0.4966 0.5195   0.012923
 C 0.8336 0.8242 0.332   0.668061
 C 0.0232 0.51729 0.20779   0.645868
 C 0.7133 0.57455 0.05145   0.647627
 C 0.1394 0.95126 0.18176   0.666097
 C 0.1022 0.74208 0.96668   0.662667
 C 0.7241 0.9346 0.0593   0.672572
 C 0.3336 0.6758 0.168   0.66806
 C 0.5232 0.98271 0.29221   0.645867
 C 0.2133 0.92545 0.44855   0.647627
 C 0.6394 0.54874 0.31824   0.666097
 C 0.6022 0.75792 0.53332   0.662667
 C 0.2241 0.5654 0.4407   0.672572
 C 0.1664 0.1758 0.668   0.66806
 C 0.9768 0.48271 0.79221   0.645868
 C 0.2867 0.42545 0.94855   0.647627
 C 0.8606 0.04874 0.81824   0.666097
 C 0.8978 0.25792 0.03332   0.662667
 C 0.2759 0.0654 0.9407   0.672572
 C 0.6664 0.3242 0.832   0.66806
 C 0.4768 0.01729 0.70779   0.645867
 C 0.7867 0.07455 0.55145   0.647627
 C 0.3606 0.45126 0.68176   0.666097
 C 0.3978 0.24208 0.46668   0.662668
 C 0.7759 0.4346 0.5593   0.672572
 O 0.80588 0.80593 0.24897   -0.629565
 O 0.44335 0.69339 0.13127   -0.564166
 O 0.01239 0.62785 0.21482   -0.632279
 O 0.0055 0.45743 0.13887   -0.524084
 O 0.74535 0.65442 0.10871   -0.635741
 O 0.79126 0.51817 0.00185   -0.51786
 O 0.08722 0.8514 0.1947   -0.646926
 O 0.11601 0.01552 0.11842   -0.56832
 O 0.02794 0.68673 0.02244   -0.589224
 O 0.10659 0.84876 0.95949   -0.576333
 O 0.84623 0.90008 0.0648   -0.626695
 O 0.62681 0.89549 0.10055   -0.561875
 O 0.30588 0.69407 0.25103   -0.629565
 O 0.94335 0.80661 0.36873   -0.564166
 O 0.51239 0.87215 0.28518   -0.632279
 O 0.5055 0.04257 0.36113   -0.524084
 O 0.24535 0.84558 0.39129   -0.635741
 O 0.29126 0.98183 0.49815   -0.51786
 O 0.58722 0.6486 0.3053   -0.646926
 O 0.61601 0.48448 0.38158   -0.56832
 O 0.52794 0.81327 0.47756   -0.589224
 O 0.60659 0.65124 0.54051   -0.576333
 O 0.34623 0.59992 0.4352   -0.626695
 O 0.12681 0.60451 0.39945   -0.561875
 O 0.19412 0.19407 0.75103   -0.629565
 O 0.55665 0.30661 0.86873   -0.564166
 O 0.98761 0.37215 0.78518   -0.632279
 O 0.9945 0.54257 0.86113   -0.524085
 O 0.25465 0.34558 0.89129   -0.635741
 O 0.20874 0.48183 0.99815   -0.51786
 O 0.91278 0.1486 0.8053   -0.646926
 O 0.88399 0.98448 0.88158   -0.56832
 O 0.97206 0.31327 0.97756   -0.589224
 O 0.89341 0.15124 0.04051   -0.576333
 O 0.15377 0.09992 0.9352   -0.626695
 O 0.37319 0.10451 0.89945   -0.561875
 O 0.69412 0.30593 0.74897   -0.629565
 O 0.05665 0.19339 0.63127   -0.564166
 O 0.48761 0.12785 0.71482   -0.632279
 O 0.4945 0.95743 0.63887   -0.524085
 O 0.75465 0.15442 0.60871   -0.635741
 O 0.70874 0.01817 0.50185   -0.51786
 O 0.41278 0.3514 0.6947   -0.646926
 O 0.38399 0.51552 0.61842   -0.56832
 O 0.47206 0.18673 0.52244   -0.589224
 O 0.39341 0.34876 0.45949   -0.576333
 O 0.65377 0.40008 0.5648   -0.626695
 O 0.87319 0.39549 0.60055   -0.561875
