{'_ref': 'TBD', '_srcid': 'CAKYAQ_clean', 'submitters': [{'name': 'Dalar Nazarian Jeff Camp and David Sholl', 'email': 'dalar@gatech.edu jcamp6@gatech.edu'}], '_method': 'VASP DFT with PBE;DDEC'}
data_FeH2(CO2)2
_symmetry_space_group_name_H-M   'P 1'
_cell_length_a   9.88550000
_cell_length_b   11.40819972
_cell_length_c   14.80510000
_cell_angle_alpha   91.41069995
_cell_angle_beta   90.00000000
_cell_angle_gamma   90.00000000
_symmetry_Int_Tables_number   1
_chemical_formula_structural   FeH2(CO2)2
_chemical_formula_sum   'Fe12 H24 C24 O48'
_cell_volume   1669.15032225
_cell_formula_units_Z   12
loop_
 _symmetry_equiv_pos_site_id
 _symmetry_equiv_pos_as_xyz
  1  'x, y, z'
loop_
 _atom_site_label
 _atom_site_fract_x
 _atom_site_fract_y
 _atom_site_fract_z
 _atom_site_charge
 Fe 0.92392 0.75654 0.13291   1.040734
 Fe 0.88601 0.26019 0.69176   1.053447
 Fe 0.42392 0.74346 0.36709   1.040734
 Fe 0.38601 0.23981 0.80824   1.053447
 Fe 0.07608 0.24346 0.86709   1.040733
 Fe 0.11399 0.73981 0.30824   1.053446
 Fe 0.57608 0.25654 0.63291   1.040733
 Fe 0.61399 0.76019 0.19176   1.053446
 Fe 0.0 0.5 0.0   1.067785
 Fe 0.5 0.0 0.5   1.067785
 Fe 0.0 0.0 0.0   1.095796
 Fe 0.5 0.5 0.5   1.095796
 H 0.7621 0.8548 0.3683   -0.001989
 H 0.0429 0.4765 0.2602   0.010645
 H 0.6202 0.5581 0.0443   0.004694
 H 0.2053 0.977 0.2234   0.000293
 H 0.1603 0.6968 0.9296   0.008186
 H 0.7054 0.9948 0.0187   0.007744
 H 0.2621 0.6452 0.1317   -0.001988
 H 0.5429 0.0235 0.2398   0.010645
 H 0.1202 0.9419 0.4557   0.004694
 H 0.7053 0.523 0.2766   0.000294
 H 0.6603 0.8032 0.5704   0.008186
 H 0.2054 0.5052 0.4813   0.007744
 H 0.2379 0.1452 0.6317   -0.001989
 H 0.9571 0.5235 0.7398   0.010645
 H 0.3798 0.4419 0.9557   0.004689
 H 0.7947 0.023 0.7766   0.000294
 H 0.8397 0.3032 0.0704   0.008186
 H 0.2946 0.0052 0.9813   0.007744
 H 0.7379 0.3548 0.8683   -0.001988
 H 0.4571 0.9765 0.7602   0.010645
 H 0.8798 0.0581 0.5443   0.004689
 H 0.2947 0.477 0.7234   0.000294
 H 0.3397 0.1968 0.4296   0.008186
 H 0.7946 0.4948 0.5187   0.007744
 C 0.8318 0.82554 0.33204   0.678653
 C 0.0205 0.5161 0.2081   0.669737
 C 0.7118 0.5753 0.0501   0.671466
 C 0.1413 0.951 0.1815   0.672971
 C 0.1042 0.7418 0.9671   0.680549
 C 0.7224 0.93469 0.05849   0.682646
 C 0.3318 0.67446 0.16796   0.678651
 C 0.5205 0.9839 0.2919   0.669736
 C 0.2118 0.9247 0.4499   0.671466
 C 0.6413 0.549 0.3185   0.67297
 C 0.6042 0.7582 0.5329   0.680548
 C 0.2224 0.56531 0.44151   0.682646
 C 0.1682 0.17446 0.66796   0.678652
 C 0.9795 0.4839 0.7919   0.669737
 C 0.2882 0.4247 0.9499   0.671466
 C 0.8587 0.049 0.8185   0.672971
 C 0.8958 0.2582 0.0329   0.680549
 C 0.2776 0.06531 0.94151   0.682646
 C 0.6682 0.32554 0.83204   0.67865
 C 0.4795 0.0161 0.7081   0.669735
 C 0.7882 0.0753 0.5501   0.671466
 C 0.3587 0.451 0.6815   0.67297
 C 0.3958 0.2418 0.4671   0.680549
 C 0.7776 0.43469 0.55849   0.682646
 O 0.80484 0.80744 0.24872   -0.631918
 O 0.94178 0.80799 0.36939   -0.566187
 O 0.01012 0.62746 0.21546   -0.642512
 O 0.00396 0.45612 0.13912   -0.571837
 O 0.74417 0.65429 0.1085   -0.645524
 O 0.79031 0.51925 0.000250000000001   -0.570211
 O 0.08752 0.8514 0.19505   -0.649262
 O 0.11708 0.01614 0.11844   -0.570989
 O 0.02909 0.68659 0.02279   -0.639527
 O 0.10852 0.84915 0.95905   -0.578885
 O 0.84483 0.90042 0.0647   -0.628527
 O 0.62403 0.8963 0.0999   -0.566184
 O 0.30484 0.69256 0.25128   -0.631918
 O 0.44178 0.69201 0.13061   -0.566186
 O 0.51012 0.87254 0.28454   -0.642512
 O 0.50396 0.04388 0.36088   -0.571837
 O 0.24417 0.84571 0.3915   -0.645524
 O 0.29031 0.98075 0.49975   -0.570211
 O 0.58752 0.6486 0.30495   -0.649262
 O 0.61708 0.48386 0.38156   -0.570988
 O 0.52909 0.81341 0.47721   -0.639527
 O 0.60852 0.65085 0.54095   -0.578885
 O 0.34483 0.59958 0.4353   -0.628527
 O 0.12403 0.6037 0.4001   -0.566184
 O 0.19516 0.19256 0.75128   -0.631918
 O 0.05822 0.19201 0.63061   -0.566187
 O 0.98988 0.37254 0.78454   -0.642512
 O 0.99604 0.54388 0.86088   -0.571837
 O 0.25583 0.34571 0.8915   -0.645524
 O 0.20969 0.48075 0.99975   -0.570211
 O 0.91248 0.1486 0.80495   -0.649262
 O 0.88292 0.98386 0.88156   -0.570988
 O 0.97091 0.31341 0.97721   -0.639527
 O 0.89148 0.15085 0.04095   -0.578884
 O 0.15517 0.09958 0.9353   -0.628527
 O 0.37597 0.1037 0.9001   -0.566184
 O 0.69516 0.30744 0.74872   -0.631918
 O 0.55822 0.30799 0.86939   -0.566186
 O 0.48988 0.12746 0.71546   -0.642512
 O 0.49604 0.95612 0.63912   -0.571837
 O 0.75583 0.15429 0.6085   -0.645524
 O 0.70969 0.01925 0.50025   -0.570211
 O 0.41248 0.3514 0.69505   -0.649262
 O 0.38292 0.51614 0.61844   -0.570988
 O 0.47091 0.18659 0.52279   -0.639527
 O 0.39148 0.34915 0.45905   -0.578884
 O 0.65517 0.40042 0.5647   -0.628527
 O 0.87597 0.3963 0.5999   -0.566184
