{'_ref': 'TBD', '_srcid': 'CAKYAQ_clean', 'submitters': [{'name': 'Dalar Nazarian Jeff Camp and David Sholl', 'email': 'dalar@gatech.edu jcamp6@gatech.edu'}], '_method': 'VASP DFT with PBE;DDEC'}
data_Cd(CN)2
_symmetry_space_group_name_H-M   'P 1'
_cell_length_a   8.27279969
_cell_length_b   8.27279983
_cell_length_c   15.24900000
_cell_angle_alpha   88.81989830
_cell_angle_beta   88.81989828
_cell_angle_gamma   86.47340029
_symmetry_Int_Tables_number   1
_chemical_formula_structural   Cd(CN)2
_chemical_formula_sum   'Cd4 C8 N8'
_cell_volume   1041.23702199
_cell_formula_units_Z   4
loop_
 _symmetry_equiv_pos_site_id
 _symmetry_equiv_pos_as_xyz
  1  'x, y, z'
loop_
 _atom_site_label
 _atom_site_fract_x
 _atom_site_fract_y
 _atom_site_fract_z
 _atom_site_charge
 Cd 0.5 0.0 0.5   1.136427
 Cd 0.0 0.5 0.0   1.136427
 Cd 0.48895 0.51105 0.25   0.435513
 Cd 0.51105 0.48895 0.75   0.435513
 C 0.48 0.7182 0.339   0.023919
 C 0.4948 0.2992 0.3412   0.024565
 C 0.2818 0.52 0.161   0.023919
 C 0.7008 0.5052 0.1588   0.024565
 C 0.52 0.2818 0.661   0.023919
 C 0.5052 0.7008 0.6588   0.024565
 C 0.7182 0.48 0.839   0.023919
 C 0.2992 0.4948 0.8412   0.024565
 N 0.4757 0.8121 0.392   -0.418893
 N 0.5003 0.1999 0.3926   -0.415561
 N 0.1879 0.5243 0.108   -0.418893
 N 0.8001 0.4997 0.1074   -0.415561
 N 0.5243 0.1879 0.608   -0.418893
 N 0.4997 0.8001 0.6074   -0.415561
 N 0.8121 0.4757 0.892   -0.418893
 N 0.1999 0.5003 0.8926   -0.415561
