{'_ref': 'TBD', '_srcid': 'CAKYAQ_clean', 'submitters': [{'name': 'Dalar Nazarian Jeff Camp and David Sholl', 'email': 'dalar@gatech.edu jcamp6@gatech.edu'}], '_method': 'VASP DFT with PBE;DDEC'}
data_BaH4(C3O2)3
_symmetry_space_group_name_H-M   'P 1'
_cell_length_a   7.48099954
_cell_length_b   8.33599962
_cell_length_c   10.42000000
_cell_angle_alpha   93.56000360
_cell_angle_beta   105.38999712
_cell_angle_gamma   109.34999904
_symmetry_Int_Tables_number   1
_chemical_formula_structural   BaH4(C3O2)3
_chemical_formula_sum   'Ba2 H8 C18 O12'
_cell_volume   583.022504493
_cell_formula_units_Z   2
loop_
 _symmetry_equiv_pos_site_id
 _symmetry_equiv_pos_as_xyz
  1  'x, y, z'
loop_
 _atom_site_label
 _atom_site_fract_x
 _atom_site_fract_y
 _atom_site_fract_z
 _atom_site_charge
 Ba 0.31265 0.55941 0.62745   1.64348
 Ba 0.68735 0.44059 0.37255   1.643487
 H 0.8141 0.0596 0.1965   0.105444
 H 0.8121 0.1035 0.8136   0.102368
 H 0.2385 0.4523 0.1199   0.094033
 H 0.4689 0.7066 0.9919   0.42255
 H 0.1859 0.9404 0.8035   0.105444
 H 0.1879 0.8965 0.1864   0.102368
 H 0.7615 0.5477 0.8801   0.094033
 H 0.5311 0.2934 0.0081   0.42255
 C 0.0376 0.2689 0.1807   -0.169942
 C 0.8705 0.1174 0.1352   0.022318
 C 0.7885 0.0532 0.9974   -0.210269
 C 0.8699 0.1442 0.9057   0.03836
 C 0.0367 0.2954 0.951   -0.157133
 C 0.1231 0.3548 0.0888   0.022788
 C 0.1241 0.3391 0.3302   0.770265
 C 0.6177 0.8892 0.9413   0.690004
 C 0.1209 0.3889 0.849   0.683212
 C 0.9624 0.7311 0.8193   -0.169943
 C 0.1295 0.8826 0.8648   0.022316
 C 0.2115 0.9468 0.0026   -0.21027
 C 0.1301 0.8558 0.0943   0.038358
 C 0.9633 0.7046 0.049   -0.157135
 C 0.8769 0.6452 0.9112   0.022785
 C 0.8759 0.6609 0.6698   0.770265
 C 0.3823 0.1108 0.0587   0.689999
 C 0.8791 0.6111 0.151   0.683211
 O 0.311 0.4072 0.377   -0.795183
 O 0.0074 0.3259 0.3994   -0.73545
 O 0.5584 0.798 0.0309   -0.514788
 O 0.5379 0.8429 0.8193   -0.622376
 O 0.0238 0.3402 0.7272   -0.683997
 O 0.2867 0.5111 0.8901   -0.70568
 O 0.689 0.5928 0.623   -0.795183
 O 0.9926 0.6741 0.6006   -0.73545
 O 0.4416 0.202 0.9691   -0.514788
 O 0.4621 0.1571 0.1807   -0.622376
 O 0.9762 0.6598 0.2728   -0.683997
 O 0.7133 0.4889 0.1099   -0.70568
