{'_ref': 'TBD', '_srcid': 'CAKYAQ_clean', 'submitters': [{'name': 'Dalar Nazarian Jeff Camp and David Sholl', 'email': 'dalar@gatech.edu jcamp6@gatech.edu'}], '_method': 'VASP DFT with PBE;DDEC'}
data_ZnH20C22(N3O2)2
_symmetry_space_group_name_H-M   'P 1'
_cell_length_a   7.84630000
_cell_length_b   18.31390000
_cell_length_c   19.37600000
_cell_angle_alpha   90.00000000
_cell_angle_beta   90.00000000
_cell_angle_gamma   90.00000000
_symmetry_Int_Tables_number   1
_chemical_formula_structural   ZnH20C22(N3O2)2
_chemical_formula_sum   'Zn4 H80 C88 N24 O16'
_cell_volume   2784.26054677
_cell_formula_units_Z   4
loop_
 _symmetry_equiv_pos_site_id
 _symmetry_equiv_pos_as_xyz
  1  'x, y, z'
loop_
 _atom_site_label
 _atom_site_fract_x
 _atom_site_fract_y
 _atom_site_fract_z
 _atom_site_charge
 Zn 0.52538 0.50814 0.49999   0.871197
 Zn 0.47462 0.49186 0.99999   0.871197
 Zn 0.47462 0.00814 0.49999   0.871197
 Zn 0.52538 0.99186 0.99999   0.871197
 H 0.6354 0.7253 0.4808   0.092952
 H 0.8644 0.648 0.4586   0.12646
 H 0.1866 0.8195 0.4752   0.136485
 H 0.9549 0.8974 0.4906   0.095058
 H 0.0437 0.5612 0.5342   0.155292
 H 0.0951 0.6295 0.5799   0.145921
 H 0.2121 0.559 0.5793   0.158035
 H 0.3592 0.7925 0.3728   0.157623
 H 0.2067 0.7537 0.3337   0.137599
 H 0.3975 0.7331 0.3154   0.152889
 H 0.2737 0.5651 0.7711   0.09698
 H 0.0554 0.5765 0.6899   0.118652
 H 0.7188 0.4937 0.8257   0.140993
 H 0.9375 0.485 0.9079   0.093369
 H 0.7536 0.4064 0.5875   0.164741
 H 0.826 0.4049 0.6638   0.150304
 H 0.9271 0.4466 0.6051   0.1539
 H 0.5279 0.6933 0.7301   0.157544
 H 0.7198 0.6807 0.7525   0.148731
 H 0.5721 0.6351 0.7879   0.157611
 H 0.3646 0.2747 0.9808   0.092952
 H 0.1356 0.352 0.9586   0.12646
 H 0.8134 0.1805 0.9752   0.136485
 H 0.0451 0.1026 0.9906   0.095058
 H 0.9563 0.4388 0.0342   0.155291
 H 0.9049 0.3705 0.0799   0.145921
 H 0.7879 0.441 0.0793   0.158035
 H 0.6408 0.2075 0.8728   0.157623
 H 0.7933 0.2463 0.8337   0.137599
 H 0.6025 0.2669 0.8154   0.152889
 H 0.7263 0.4349 0.2711   0.09698
 H 0.9446 0.4235 0.1899   0.118652
 H 0.2812 0.5063 0.3257   0.140993
 H 0.0625 0.515 0.4079   0.093369
 H 0.2464 0.5936 0.0875   0.164741
 H 0.174 0.5951 0.1638   0.150304
 H 0.0729 0.5534 0.1051   0.1539
 H 0.4721 0.3067 0.2301   0.157544
 H 0.2802 0.3193 0.2525   0.148731
 H 0.4279 0.3649 0.2879   0.157611
 H 0.3646 0.2253 0.4808   0.092952
 H 0.1356 0.148 0.4586   0.12646
 H 0.8134 0.3195 0.4752   0.136485
 H 0.0451 0.3974 0.4906   0.095057
 H 0.9563 0.0612 0.5342   0.155291
 H 0.9049 0.1295 0.5799   0.145921
 H 0.7879 0.059 0.5793   0.158035
 H 0.6408 0.2925 0.3728   0.157623
 H 0.7933 0.2537 0.3337   0.1376
 H 0.6025 0.2331 0.3154   0.152888
 H 0.7263 0.0651 0.7711   0.09698
 H 0.9446 0.0765 0.6899   0.118652
 H 0.2812 0.9937 0.8257   0.140993
 H 0.0625 0.985 0.9079   0.093369
 H 0.2464 0.9064 0.5875   0.164741
 H 0.174 0.9049 0.6638   0.150304
 H 0.0729 0.9466 0.6051   0.153899
 H 0.4721 0.1933 0.7301   0.157544
 H 0.2802 0.1807 0.7525   0.14873
 H 0.4279 0.1351 0.7879   0.15761
 H 0.6354 0.7747 0.9808   0.092952
 H 0.8644 0.852 0.9586   0.12646
 H 0.1866 0.6805 0.9752   0.136485
 H 0.9549 0.6026 0.9906   0.095057
 H 0.0437 0.9388 0.0342   0.155291
 H 0.0951 0.8705 0.0799   0.145921
 H 0.2121 0.941 0.0793   0.158035
 H 0.3592 0.7075 0.8728   0.157623
 H 0.2067 0.7463 0.8337   0.137599
 H 0.3975 0.7669 0.8154   0.152888
 H 0.2737 0.9349 0.2711   0.09698
 H 0.0554 0.9235 0.1899   0.118652
 H 0.7188 0.0063 0.3257   0.140993
 H 0.9375 0.015 0.4079   0.093368
 H 0.7536 0.0936 0.0875   0.164741
 H 0.826 0.0951 0.1638   0.150303
 H 0.9271 0.0534 0.1051   0.153899
 H 0.5279 0.8067 0.2301   0.157544
 H 0.7198 0.8193 0.2525   0.14873
 H 0.5721 0.8649 0.2879   0.15761
 C 0.6227 0.86943 0.5011   0.667189
 C 0.772 0.819 0.48783   -0.144428
 C 0.7465 0.74446 0.47862   -1e-06
 C 0.8826 0.69802 0.46632   -0.18889
 C 0.0468 0.72689 0.46567   0.143705
 C 0.075 0.80074 0.47537   -0.181016
 C 0.937 0.8469 0.48539   -0.017867
 C 0.1383 0.58986 0.55166   -0.446833
 C 0.2371 0.62055 0.49244   0.358648
 C 0.3178 0.68862 0.406   0.369077
 C 0.3206 0.74711 0.3523   -0.430472
 C 0.2734 0.51722 0.89765   0.64306
 C 0.1265 0.52338 0.84699   -0.13412
 C 0.1621 0.5506 0.78234   -0.010129
 C 0.0321 0.5568 0.73363   -0.192841
 C 0.8696 0.53388 0.74959   0.153528
 C 0.8307 0.50779 0.81451   -0.168855
 C 0.9618 0.50271 0.8634   -0.005239
 C 0.8147 0.43406 0.62233   -0.43982
 C 0.7191 0.50209 0.63843   0.362464
 C 0.6284 0.60007 0.69155   0.380295
 C 0.6105 0.6572 0.7451   -0.438834
 C 0.3773 0.13057 0.0011   0.667189
 C 0.228 0.181 0.98783   -0.144428
 C 0.2535 0.25554 0.97862   -1e-06
 C 0.1174 0.30198 0.96632   -0.188889
 C 0.9532 0.27311 0.96567   0.143705
 C 0.925 0.19926 0.97537   -0.181016
 C 0.063 0.1531 0.98539   -0.017868
 C 0.8617 0.41014 0.05166   -0.446833
 C 0.7629 0.37945 0.99244   0.358648
 C 0.6822 0.31138 0.906   0.369077
 C 0.6794 0.25289 0.8523   -0.430472
 C 0.7266 0.48278 0.39765   0.64306
 C 0.8735 0.47662 0.34699   -0.13412
 C 0.8379 0.4494 0.28234   -0.010129
 C 0.9679 0.4432 0.23363   -0.192841
 C 0.1304 0.46612 0.24959   0.153528
 C 0.1693 0.49221 0.31451   -0.168855
 C 0.0382 0.49729 0.3634   -0.005239
 C 0.1853 0.56594 0.12233   -0.43982
 C 0.2809 0.49791 0.13843   0.362464
 C 0.3716 0.39993 0.19155   0.380295
 C 0.3895 0.3428 0.2451   -0.438834
 C 0.3773 0.36943 0.5011   0.667189
 C 0.228 0.319 0.48783   -0.144428
 C 0.2535 0.24446 0.47862   -1e-06
 C 0.1174 0.19802 0.46632   -0.18889
 C 0.9532 0.22689 0.46567   0.143705
 C 0.925 0.30074 0.47537   -0.181016
 C 0.063 0.3469 0.48539   -0.017867
 C 0.8617 0.08986 0.55166   -0.446833
 C 0.7629 0.12055 0.49244   0.358648
 C 0.6822 0.18862 0.406   0.369077
 C 0.6794 0.24711 0.3523   -0.430472
 C 0.7266 0.01722 0.89765   0.64306
 C 0.8735 0.02338 0.84699   -0.13412
 C 0.8379 0.0506 0.78234   -0.010129
 C 0.9679 0.0568 0.73363   -0.192841
 C 0.1304 0.03388 0.74959   0.153528
 C 0.1693 0.00779 0.81451   -0.168855
 C 0.0382 0.00271 0.8634   -0.005239
 C 0.1853 0.93406 0.62233   -0.43982
 C 0.2809 0.00209 0.63843   0.362464
 C 0.3716 0.10007 0.69155   0.380295
 C 0.3895 0.1572 0.7451   -0.438834
 C 0.6227 0.63057 0.0011   0.667189
 C 0.772 0.681 0.98783   -0.144428
 C 0.7465 0.75554 0.97862   -1e-06
 C 0.8826 0.80198 0.96632   -0.188889
 C 0.0468 0.77311 0.96567   0.143705
 C 0.075 0.69926 0.97537   -0.181016
 C 0.937 0.6531 0.98539   -0.017867
 C 0.1383 0.91014 0.05166   -0.446833
 C 0.2371 0.87945 0.99244   0.358648
 C 0.3178 0.81138 0.906   0.369077
 C 0.3206 0.75289 0.8523   -0.430472
 C 0.2734 0.98278 0.39765   0.64306
 C 0.1265 0.97662 0.34699   -0.13412
 C 0.1621 0.9494 0.28234   -0.010129
 C 0.0321 0.9432 0.23363   -0.192841
 C 0.8696 0.96612 0.24959   0.153528
 C 0.8307 0.99221 0.31451   -0.168855
 C 0.9618 0.99729 0.3634   -0.005239
 C 0.8147 0.06594 0.12233   -0.43982
 C 0.7191 0.99791 0.13843   0.362464
 C 0.6284 0.89993 0.19155   0.380295
 C 0.6105 0.8428 0.2451   -0.438834
 N 0.3834 0.59531 0.46898   -0.249378
 N 0.434 0.63825 0.41322   -0.340497
 N 0.1911 0.67955 0.45407   -0.129004
 N 0.6021 0.5326 0.60012   -0.265114
 N 0.5437 0.59536 0.63388   -0.354611
 N 0.7397 0.54243 0.69763   -0.151692
 N 0.6166 0.40469 0.96898   -0.249378
 N 0.566 0.36175 0.91322   -0.340497
 N 0.8089 0.32045 0.95407   -0.129004
 N 0.3979 0.4674 0.10012   -0.265114
 N 0.4563 0.40464 0.13388   -0.354611
 N 0.2603 0.45757 0.19763   -0.151692
 N 0.6166 0.09531 0.46898   -0.249378
 N 0.566 0.13825 0.41322   -0.340497
 N 0.8089 0.17955 0.45407   -0.129004
 N 0.3979 0.0326 0.60012   -0.265114
 N 0.4563 0.09536 0.63388   -0.354611
 N 0.2603 0.04243 0.69763   -0.151692
 N 0.3834 0.90469 0.96898   -0.249378
 N 0.434 0.86175 0.91322   -0.340497
 N 0.1911 0.82045 0.95407   -0.129004
 N 0.6021 0.9674 0.10012   -0.265114
 N 0.5437 0.90464 0.13388   -0.354611
 N 0.7397 0.95757 0.19763   -0.151692
 O 0.65928 0.93721 0.50596   -0.621672
 O 0.4768 0.84394 0.5072   -0.60623
 O 0.24 0.49379 0.95815   -0.594934
 O 0.4197 0.53342 0.87939   -0.577824
 O 0.34072 0.06279 0.00596   -0.621672
 O 0.5232 0.15606 0.0072   -0.60623
 O 0.76 0.50621 0.45815   -0.594934
 O 0.5803 0.46658 0.37939   -0.577824
 O 0.34072 0.43721 0.50596   -0.621672
 O 0.5232 0.34394 0.5072   -0.60623
 O 0.76 0.99379 0.95815   -0.594934
 O 0.5803 0.03342 0.87939   -0.577824
 O 0.65928 0.56279 0.00596   -0.621672
 O 0.4768 0.65606 0.0072   -0.60623
 O 0.24 0.00621 0.45815   -0.594934
 O 0.4197 0.96658 0.37939   -0.577824
