{'_ref': 'TBD', '_srcid': 'CAKYAQ_clean', 'submitters': [{'name': 'Dalar Nazarian Jeff Camp and David Sholl', 'email': 'dalar@gatech.edu jcamp6@gatech.edu'}], '_method': 'VASP DFT with PBE;DDEC'}
data_SrH4(C2O)4
_symmetry_space_group_name_H-M   'P 1'
_cell_length_a   6.89700000
_cell_length_b   12.18640000
_cell_length_c   18.51600000
_cell_angle_alpha   90.00000000
_cell_angle_beta   90.00000000
_cell_angle_gamma   90.00000000
_symmetry_Int_Tables_number   1
_chemical_formula_structural   SrH4(C2O)4
_chemical_formula_sum   'Sr4 H16 C32 O16'
_cell_volume   1556.26240841
_cell_formula_units_Z   4
loop_
 _symmetry_equiv_pos_site_id
 _symmetry_equiv_pos_as_xyz
  1  'x, y, z'
loop_
 _atom_site_label
 _atom_site_fract_x
 _atom_site_fract_y
 _atom_site_fract_z
 _atom_site_charge
 Sr 0.25 0.08464 0.51764   1.644342
 Sr 0.75 0.41536 0.01764   1.644342
 Sr 0.75 0.91536 0.48236   1.644342
 Sr 0.25 0.58464 0.98236   1.644342
 H 0.9573 0.8379 0.3257   0.065899
 H 0.9581 0.7568 0.2119   0.111721
 H 0.0427 0.6621 0.8257   0.065899
 H 0.0419 0.7432 0.7119   0.111721
 H 0.4573 0.1621 0.6743   0.065899
 H 0.4581 0.2432 0.7881   0.111721
 H 0.5427 0.3379 0.1743   0.065899
 H 0.5419 0.2568 0.2881   0.111721
 H 0.0427 0.1621 0.6743   0.065899
 H 0.0419 0.2432 0.7881   0.111721
 H 0.9573 0.3379 0.1743   0.065899
 H 0.9581 0.2568 0.2881   0.111721
 H 0.5427 0.8379 0.3257   0.065899
 H 0.5419 0.7568 0.2119   0.111721
 H 0.4573 0.6621 0.8257   0.065899
 H 0.4581 0.7432 0.7119   0.111721
 C 0.0771 0.8212 0.3028   -0.043412
 C 0.0778 0.7731 0.2349   -0.07209
 C 0.9229 0.6788 0.8028   -0.043412
 C 0.9222 0.7269 0.7349   -0.07209
 C 0.5771 0.1788 0.6972   -0.043412
 C 0.5778 0.2269 0.7651   -0.07209
 C 0.4229 0.3212 0.1972   -0.043412
 C 0.4222 0.2731 0.2651   -0.07209
 C 0.9229 0.1788 0.6972   -0.043412
 C 0.9222 0.2269 0.7651   -0.07209
 C 0.0771 0.3212 0.1972   -0.043412
 C 0.0778 0.2731 0.2651   -0.07209
 C 0.4229 0.8212 0.3028   -0.043412
 C 0.4222 0.7731 0.2349   -0.07209
 C 0.5771 0.6788 0.8028   -0.043412
 C 0.5778 0.7269 0.7349   -0.07209
 C 0.25 0.8992 0.4107   0.811442
 C 0.25 0.8451 0.3375   -0.165405
 C 0.25 0.6994 0.1256   0.675549
 C 0.25 0.7485 0.2   -0.066977
 C 0.75 0.6008 0.9107   0.811442
 C 0.75 0.6549 0.8375   -0.165405
 C 0.75 0.8006 0.6256   0.675548
 C 0.75 0.7515 0.7   -0.066977
 C 0.75 0.1008 0.5893   0.811442
 C 0.75 0.1549 0.6625   -0.165406
 C 0.75 0.3006 0.8744   0.675547
 C 0.75 0.2515 0.8   -0.066977
 C 0.25 0.3992 0.0893   0.811441
 C 0.25 0.3451 0.1625   -0.165406
 C 0.25 0.1994 0.3744   0.675546
 C 0.25 0.2485 0.3   -0.066977
 O 0.0906 0.9234 0.43946   -0.801411
 O 0.0904 0.6803 0.0955   -0.710181
 O 0.9094 0.5766 0.93946   -0.801411
 O 0.9096 0.8197 0.5955   -0.710181
 O 0.5906 0.0766 0.56054   -0.801411
 O 0.5904 0.3197 0.9045   -0.710181
 O 0.4094 0.4234 0.06054   -0.801411
 O 0.4096 0.1803 0.4045   -0.710181
 O 0.9094 0.0766 0.56054   -0.801411
 O 0.9096 0.3197 0.9045   -0.710181
 O 0.0906 0.4234 0.06054   -0.801411
 O 0.0904 0.1803 0.4045   -0.710181
 O 0.4094 0.9234 0.43946   -0.801411
 O 0.4096 0.6803 0.0955   -0.710181
 O 0.5906 0.5766 0.93946   -0.801411
 O 0.5904 0.8197 0.5955   -0.710181
