{'_ref': 'TBD', '_srcid': 'CAKYAQ_clean', 'submitters': [{'name': 'Dalar Nazarian Jeff Camp and David Sholl', 'email': 'dalar@gatech.edu jcamp6@gatech.edu'}], '_method': 'VASP DFT with PBE;DDEC'}
data_ZnH8(C4O)4
_symmetry_space_group_name_H-M   'P 1'
_cell_length_a   9.29740000
_cell_length_b   15.88160000
_cell_length_c   25.28700000
_cell_angle_alpha   90.00000000
_cell_angle_beta   90.00000000
_cell_angle_gamma   90.00000000
_symmetry_Int_Tables_number   1
_chemical_formula_structural   ZnH8(C4O)4
_chemical_formula_sum   'Zn8 H64 C128 O32'
_cell_volume   3733.81742371
_cell_formula_units_Z   8
loop_
 _symmetry_equiv_pos_site_id
 _symmetry_equiv_pos_as_xyz
  1  'x, y, z'
loop_
 _atom_site_label
 _atom_site_fract_x
 _atom_site_fract_y
 _atom_site_fract_z
 _atom_site_charge
 Zn 0.10353 0.57014 0.99106   1.167027
 Zn 0.89647 0.92986 0.49106   1.167027
 Zn 0.89647 0.42986 0.00894   1.167027
 Zn 0.10353 0.07014 0.50894   1.167027
 Zn 0.60353 0.42986 0.50894   1.167027
 Zn 0.39647 0.07014 0.00894   1.167027
 Zn 0.39647 0.57014 0.49106   1.167027
 Zn 0.60353 0.92986 0.99106   1.167027
 H 0.6179 0.9809 0.6285   0.096138
 H 0.4817 0.0305 0.6993   0.117197
 H 0.7734 0.2152 0.7237   0.107379
 H 0.9112 0.1628 0.6541   0.108959
 H 0.3321 0.44 0.8734   0.101719
 H 0.4613 0.3621 0.8122   0.109699
 H 0.2829 0.1479 0.8679   0.108836
 H 0.1465 0.2268 0.9278   0.105042
 H 0.3821 0.5191 0.1285   0.096138
 H 0.5183 0.4695 0.1993   0.117197
 H 0.2266 0.2848 0.2237   0.107379
 H 0.0888 0.3372 0.1541   0.108959
 H 0.6679 0.06 0.3734   0.101719
 H 0.5387 0.1379 0.3122   0.109699
 H 0.7171 0.3521 0.3679   0.108836
 H 0.8535 0.2732 0.4278   0.105042
 H 0.3821 0.0191 0.3715   0.096138
 H 0.5183 0.9695 0.3007   0.117199
 H 0.2266 0.7848 0.2763   0.107379
 H 0.0888 0.8372 0.3459   0.108959
 H 0.6679 0.56 0.1266   0.101721
 H 0.5387 0.6379 0.1878   0.109699
 H 0.7171 0.8521 0.1321   0.108836
 H 0.8535 0.7732 0.0722   0.105042
 H 0.6179 0.4809 0.8715   0.096138
 H 0.4817 0.5305 0.8007   0.117199
 H 0.7734 0.7152 0.7763   0.107379
 H 0.9112 0.6628 0.8459   0.108959
 H 0.3321 0.94 0.6266   0.101721
 H 0.4613 0.8621 0.6878   0.109699
 H 0.2829 0.6479 0.6321   0.108836
 H 0.1465 0.7268 0.5722   0.105042
 H 0.1179 0.0191 0.8715   0.096138
 H 0.9817 0.9695 0.8007   0.117197
 H 0.2734 0.7848 0.7763   0.107381
 H 0.4112 0.8372 0.8459   0.10896
 H 0.8321 0.56 0.6266   0.101718
 H 0.9613 0.6379 0.6878   0.1097
 H 0.7829 0.8521 0.6321   0.108836
 H 0.6465 0.7732 0.5722   0.105042
 H 0.8821 0.4809 0.3715   0.096138
 H 0.0183 0.5305 0.3007   0.117197
 H 0.7266 0.7152 0.2763   0.107381
 H 0.5888 0.6628 0.3459   0.10896
 H 0.1679 0.94 0.1266   0.101718
 H 0.0387 0.8621 0.1878   0.1097
 H 0.2171 0.6479 0.1321   0.108836
 H 0.3535 0.7268 0.0722   0.105042
 H 0.8821 0.9809 0.1285   0.096138
 H 0.0183 0.0305 0.1993   0.1172
 H 0.7266 0.2152 0.2237   0.107381
 H 0.5888 0.1628 0.1541   0.10896
 H 0.1679 0.44 0.3734   0.10172
 H 0.0387 0.3621 0.3122   0.1097
 H 0.2171 0.1479 0.3679   0.108836
 H 0.3535 0.2268 0.4278   0.105042
 H 0.1179 0.5191 0.6285   0.096138
 H 0.9817 0.4695 0.6993   0.1172
 H 0.2734 0.2848 0.7237   0.107381
 H 0.4112 0.3372 0.6541   0.10896
 H 0.8321 0.06 0.8734   0.10172
 H 0.9613 0.1379 0.8122   0.1097
 H 0.7829 0.3521 0.8679   0.108836
 H 0.6465 0.2732 0.9278   0.105042
 C 0.8593 0.0409 0.5851   0.727546
 C 0.7747 0.0685 0.6331   -0.147024
 C 0.6494 0.029 0.6475   -0.034594
 C 0.5681 0.0586 0.6898   -0.152848
 C 0.6121 0.1292 0.7182   0.125684
 C 0.7408 0.1675 0.7044   -0.135065
 C 0.8222 0.1368 0.6626   -0.034814
 C 0.5286 0.1644 0.7603   -0.092784
 C 0.1388 0.3926 0.94481   0.730202
 C 0.2248 0.3412 0.90575   -0.14065
 C 0.3201 0.3807 0.8718   -0.031277
 C 0.3975 0.3342 0.8358   -0.140513
 C 0.3837 0.2474 0.83332   0.119367
 C 0.2913 0.2075 0.8684   -0.116673
 C 0.2109 0.2543 0.9043   -0.042073
 C 0.4633 0.1999 0.7944   -0.091396
 C 0.1407 0.4591 0.0851   0.727545
 C 0.2253 0.4315 0.1331   -0.147024
 C 0.3506 0.471 0.1475   -0.034594
 C 0.4319 0.4414 0.1898   -0.152848
 C 0.3879 0.3708 0.2182   0.125684
 C 0.2592 0.3325 0.2044   -0.135065
 C 0.1778 0.3632 0.1626   -0.034814
 C 0.4714 0.3356 0.2603   -0.092784
 C 0.8612 0.1074 0.44481   0.730201
 C 0.7752 0.1588 0.40575   -0.14065
 C 0.6799 0.1193 0.3718   -0.031277
 C 0.6025 0.1658 0.3358   -0.140513
 C 0.6163 0.2526 0.33332   0.119367
 C 0.7087 0.2925 0.3684   -0.116673
 C 0.7891 0.2457 0.4043   -0.042073
 C 0.5367 0.3001 0.2944   -0.091396
 C 0.1407 0.9591 0.4149   0.727546
 C 0.2253 0.9315 0.3669   -0.147024
 C 0.3506 0.971 0.3525   -0.034594
 C 0.4319 0.9414 0.3102   -0.152849
 C 0.3879 0.8708 0.2818   0.125684
 C 0.2592 0.8325 0.2956   -0.135065
 C 0.1778 0.8632 0.3374   -0.034814
 C 0.4714 0.8356 0.2397   -0.092784
 C 0.8612 0.6074 0.05519   0.730202
 C 0.7752 0.6588 0.09425   -0.14065
 C 0.6799 0.6193 0.1282   -0.031277
 C 0.6025 0.6658 0.1642   -0.140513
 C 0.6163 0.7526 0.16668   0.119367
 C 0.7087 0.7925 0.1316   -0.116673
 C 0.7891 0.7457 0.0957   -0.042073
 C 0.5367 0.8001 0.2056   -0.091396
 C 0.8593 0.5409 0.9149   0.727545
 C 0.7747 0.5685 0.8669   -0.147024
 C 0.6494 0.529 0.8525   -0.034594
 C 0.5681 0.5586 0.8102   -0.152849
 C 0.6121 0.6292 0.7818   0.125684
 C 0.7408 0.6675 0.7956   -0.135065
 C 0.8222 0.6368 0.8374   -0.034814
 C 0.5286 0.6644 0.7397   -0.092784
 C 0.1388 0.8926 0.55519   0.730201
 C 0.2248 0.8412 0.59425   -0.14065
 C 0.3201 0.8807 0.6282   -0.031278
 C 0.3975 0.8342 0.6642   -0.140513
 C 0.3837 0.7474 0.66668   0.119367
 C 0.2913 0.7075 0.6316   -0.116673
 C 0.2109 0.7543 0.5957   -0.042073
 C 0.4633 0.6999 0.7056   -0.091396
 C 0.3593 0.9591 0.9149   0.727546
 C 0.2747 0.9315 0.8669   -0.147024
 C 0.1494 0.971 0.8525   -0.034594
 C 0.0681 0.9414 0.8102   -0.152847
 C 0.1121 0.8708 0.7818   0.125684
 C 0.2408 0.8325 0.7956   -0.135066
 C 0.3222 0.8632 0.8374   -0.034813
 C 0.0286 0.8356 0.7397   -0.092783
 C 0.6388 0.6074 0.55519   0.730202
 C 0.7248 0.6588 0.59425   -0.140651
 C 0.8201 0.6193 0.6282   -0.031276
 C 0.8975 0.6658 0.6642   -0.140514
 C 0.8837 0.7526 0.66668   0.119367
 C 0.7913 0.7925 0.6316   -0.116673
 C 0.7109 0.7457 0.5957   -0.042073
 C 0.9633 0.8001 0.7056   -0.091396
 C 0.6407 0.5409 0.4149   0.727545
 C 0.7253 0.5685 0.3669   -0.147023
 C 0.8506 0.529 0.3525   -0.034594
 C 0.9319 0.5586 0.3102   -0.152847
 C 0.8879 0.6292 0.2818   0.125684
 C 0.7592 0.6675 0.2956   -0.135066
 C 0.6778 0.6368 0.3374   -0.034813
 C 0.9714 0.6644 0.2397   -0.092783
 C 0.3612 0.8926 0.05519   0.730201
 C 0.2752 0.8412 0.09425   -0.14065
 C 0.1799 0.8807 0.1282   -0.031276
 C 0.1025 0.8342 0.1642   -0.140514
 C 0.1163 0.7474 0.16668   0.119367
 C 0.2087 0.7075 0.1316   -0.116673
 C 0.2891 0.7543 0.0957   -0.042073
 C 0.0367 0.6999 0.2056   -0.091396
 C 0.6407 0.0409 0.0851   0.727546
 C 0.7253 0.0685 0.1331   -0.147024
 C 0.8506 0.029 0.1475   -0.034593
 C 0.9319 0.0586 0.1898   -0.152848
 C 0.8879 0.1292 0.2182   0.125685
 C 0.7592 0.1675 0.2044   -0.135066
 C 0.6778 0.1368 0.1626   -0.034813
 C 0.9714 0.1644 0.2603   -0.092783
 C 0.3612 0.3926 0.44481   0.730202
 C 0.2752 0.3412 0.40575   -0.14065
 C 0.1799 0.3807 0.3718   -0.031277
 C 0.1025 0.3342 0.3358   -0.140514
 C 0.1163 0.2474 0.33332   0.119367
 C 0.2087 0.2075 0.3684   -0.116673
 C 0.2891 0.2543 0.4043   -0.042073
 C 0.0367 0.1999 0.2944   -0.091396
 C 0.3593 0.4591 0.5851   0.727545
 C 0.2747 0.4315 0.6331   -0.147023
 C 0.1494 0.471 0.6475   -0.034593
 C 0.0681 0.4414 0.6898   -0.152848
 C 0.1121 0.3708 0.7182   0.125685
 C 0.2408 0.3325 0.7044   -0.135066
 C 0.3222 0.3632 0.6626   -0.034813
 C 0.0286 0.3356 0.7603   -0.092783
 C 0.6388 0.1074 0.94481   0.730201
 C 0.7248 0.1588 0.90575   -0.14065
 C 0.8201 0.1193 0.8718   -0.031277
 C 0.8975 0.1658 0.8358   -0.140514
 C 0.8837 0.2526 0.83332   0.119367
 C 0.7913 0.2925 0.8684   -0.116673
 C 0.7109 0.2457 0.9043   -0.042073
 C 0.9633 0.3001 0.7944   -0.091396
 O 0.9707 0.0825 0.57427   -0.644339
 O 0.8116 0.98 0.55938   -0.636101
 O 0.0326 0.3586 0.96645   -0.630475
 O 0.1793 0.4668 0.95181   -0.654171
 O 0.0293 0.4175 0.07427   -0.644339
 O 0.1884 0.52 0.05938   -0.636101
 O 0.9674 0.1414 0.46645   -0.630476
 O 0.8207 0.0332 0.45181   -0.654171
 O 0.0293 0.9175 0.42573   -0.644339
 O 0.1884 0.02 0.44062   -0.636101
 O 0.9674 0.6414 0.03355   -0.630475
 O 0.8207 0.5332 0.04819   -0.654171
 O 0.9707 0.5825 0.92573   -0.64434
 O 0.8116 0.48 0.94062   -0.636101
 O 0.0326 0.8586 0.53355   -0.630476
 O 0.1793 0.9668 0.54819   -0.654171
 O 0.4707 0.9175 0.92573   -0.644339
 O 0.3116 0.02 0.94062   -0.636101
 O 0.5326 0.6414 0.53355   -0.630475
 O 0.6793 0.5332 0.54819   -0.654171
 O 0.5293 0.5825 0.42573   -0.644339
 O 0.6884 0.48 0.44062   -0.636101
 O 0.4674 0.8586 0.03355   -0.630476
 O 0.3207 0.9668 0.04819   -0.654171
 O 0.5293 0.0825 0.07427   -0.644339
 O 0.6884 0.98 0.05938   -0.636101
 O 0.4674 0.3586 0.46645   -0.630475
 O 0.3207 0.4668 0.45181   -0.654171
 O 0.4707 0.4175 0.57427   -0.64434
 O 0.3116 0.52 0.55938   -0.636101
 O 0.5326 0.1414 0.96645   -0.630476
 O 0.6793 0.0332 0.95181   -0.654171
