{'_ref': 'TBD', '_srcid': 'CAKYAQ_clean', 'submitters': [{'name': 'Dalar Nazarian Jeff Camp and David Sholl', 'email': 'dalar@gatech.edu jcamp6@gatech.edu'}], '_method': 'VASP DFT with PBE;DDEC'}
data_AsH3Pb2C6NO5
_symmetry_space_group_name_H-M   'P 1'
_cell_length_a   10.59330000
_cell_length_b   11.12410006
_cell_length_c   17.82560000
_cell_angle_alpha   100.86499734
_cell_angle_beta   90.00000000
_cell_angle_gamma   90.00000000
_symmetry_Int_Tables_number   1
_chemical_formula_structural   AsH3Pb2C6NO5
_chemical_formula_sum   'As4 H12 Pb8 C24 N4 O20'
_cell_volume   2062.93028075
_cell_formula_units_Z   4
loop_
 _symmetry_equiv_pos_site_id
 _symmetry_equiv_pos_as_xyz
  1  'x, y, z'
loop_
 _atom_site_label
 _atom_site_fract_x
 _atom_site_fract_y
 _atom_site_fract_z
 _atom_site_charge
 As 0.04445 0.28167 0.66785   0.43824
 As 0.54445 0.21833 0.83215   0.43824
 As 0.95555 0.71833 0.33215   0.43824
 As 0.45555 0.78167 0.16785   0.43824
 H 0.234 0.1564 0.5606   0.089874
 H 0.8663 0.1288 0.4174   0.120797
 H 0.8636 0.2278 0.5407   0.079324
 H 0.734 0.3436 0.9394   0.089874
 H 0.3663 0.3712 0.0826   0.120797
 H 0.3636 0.2722 0.9593   0.079324
 H 0.766 0.8436 0.4394   0.089874
 H 0.1337 0.8712 0.5826   0.120797
 H 0.1364 0.7722 0.4593   0.079324
 H 0.266 0.6564 0.0606   0.089874
 H 0.6337 0.6288 0.9174   0.120797
 H 0.6364 0.7278 0.0407   0.079324
 Pb 0.83496 0.07808 0.75727   0.917373
 Pb 0.76053 0.41926 0.73701   0.464451
 Pb 0.33496 0.42192 0.74273   0.917373
 Pb 0.26053 0.08074 0.76299   0.46445
 Pb 0.16504 0.92192 0.24273   0.917372
 Pb 0.23947 0.58074 0.26299   0.46445
 Pb 0.66504 0.57808 0.25727   0.917372
 Pb 0.73947 0.91926 0.23701   0.46445
 C 0.0492 0.2046 0.5637   -0.212985
 C 0.1605 0.1521 0.5317   0.008671
 C 0.16 0.0933 0.4562   -0.223118
 C 0.0487 0.0783 0.4093   0.402448
 C 0.9408 0.1334 0.4454   -0.246723
 C 0.9386 0.1937 0.5194   0.034877
 C 0.5492 0.2954 0.9363   -0.212985
 C 0.6605 0.3479 0.9683   0.008671
 C 0.66 0.4067 0.0438   -0.223118
 C 0.5487 0.4217 0.0907   0.402448
 C 0.4408 0.3666 0.0546   -0.246723
 C 0.4386 0.3063 0.9806   0.034877
 C 0.9508 0.7954 0.4363   -0.212985
 C 0.8395 0.8479 0.4683   0.008671
 C 0.84 0.9067 0.5438   -0.223118
 C 0.9513 0.9217 0.5907   0.402448
 C 0.0592 0.8666 0.5546   -0.246723
 C 0.0614 0.8063 0.4806   0.034877
 C 0.4508 0.7046 0.0637   -0.212985
 C 0.3395 0.6521 0.0317   0.008671
 C 0.34 0.5933 0.9562   -0.223118
 C 0.4513 0.5783 0.9093   0.402448
 C 0.5592 0.6334 0.9454   -0.246723
 C 0.5614 0.6937 0.0194   0.034877
 N 0.2813 0.0413 0.4286   0.656324
 N 0.7813 0.4587 0.0714   0.656324
 N 0.7187 0.9587 0.5714   0.656324
 N 0.2187 0.5413 0.9286   0.656324
 O 0.9052 0.2524 0.7067   -0.557972
 O 0.1686 0.2376 0.7133   -0.577767
 O 0.2985 0.0052 0.3609   -0.455147
 O 0.3644 0.0341 0.4741   -0.374283
 O 0.0376 0.017 0.3398   -0.564382
 O 0.4052 0.2476 0.7933   -0.557971
 O 0.6686 0.2624 0.7867   -0.577767
 O 0.7985 0.4948 0.1391   -0.455147
 O 0.8644 0.4659 0.0259   -0.374283
 O 0.5376 0.483 0.1602   -0.564382
 O 0.0948 0.7476 0.2933   -0.557971
 O 0.8314 0.7624 0.2867   -0.577767
 O 0.7015 0.9948 0.6391   -0.455147
 O 0.6356 0.9659 0.5259   -0.374283
 O 0.9624 0.983 0.6602   -0.564382
 O 0.5948 0.7524 0.2067   -0.557971
 O 0.3314 0.7376 0.2133   -0.577767
 O 0.2015 0.5052 0.8609   -0.455147
 O 0.1356 0.5341 0.9741   -0.374283
 O 0.4624 0.517 0.8398   -0.564382
