{'_ref': 'TBD', '_srcid': 'CAKYAQ_clean', 'submitters': [{'name': 'Dalar Nazarian Jeff Camp and David Sholl', 'email': 'dalar@gatech.edu jcamp6@gatech.edu'}], '_method': 'VASP DFT with PBE;DDEC'}
data_InH5C5NO8
_symmetry_space_group_name_H-M   'P 1'
_cell_length_a   8.66180016
_cell_length_b   9.03109995
_cell_length_c   16.17280000
_cell_angle_alpha   82.62169939
_cell_angle_beta   74.46720200
_cell_angle_gamma   61.34369734
_symmetry_Int_Tables_number   1
_chemical_formula_structural   InH5C5NO8
_chemical_formula_sum   'In4 H20 C20 N4 O32'
_cell_volume   1069.61789978
_cell_formula_units_Z   4
loop_
 _symmetry_equiv_pos_site_id
 _symmetry_equiv_pos_as_xyz
  1  'x, y, z'
loop_
 _atom_site_label
 _atom_site_fract_x
 _atom_site_fract_y
 _atom_site_fract_z
 _atom_site_charge
 In 0.96834 0.02738 0.37063   1.576921
 In 0.36635 0.97261 0.62938   1.576234
 In 0.08896 0.52739 0.12937   1.577469
 In 0.74572 0.47262 0.87062   1.577408
 H 0.3264 0.3374 0.4648   0.094438
 H 0.1752 0.4888 0.4272   0.133321
 H 0.3827 0.607 0.4174   0.336031
 H 0.4044 0.5068 0.3476   0.360593
 H 0.5164 0.43 0.4092   0.330286
 H 0.1286 0.6626 0.5352   0.094709
 H 0.0912 0.5112 0.5728   0.133753
 H 0.4071 0.393 0.5826   0.335518
 H 0.2588 0.4932 0.6524   0.359986
 H 0.3556 0.57 0.5908   0.330074
 H 0.5412 0.8374 0.0352   0.094794
 H 0.3524 0.9888 0.0728   0.134031
 H 0.5501 0.107 0.0826   0.335828
 H 0.502 0.0068 0.1524   0.360744
 H 0.6756 0.93 0.0908   0.330448
 H 0.4138 0.1626 0.9648   0.094354
 H 0.414 0.0112 0.9272   0.133539
 H 0.7397 0.893 0.9174   0.336098
 H 0.6612 0.9932 0.8476   0.359924
 H 0.6964 0.07 0.9092   0.331014
 C 0.20283 0.9332 0.49774   0.521086
 C 0.10122 0.124 0.50896   0.522771
 C 0.12709 0.2256 0.24882   0.521354
 C 0.92285 0.348 0.2671   0.549055
 C 0.63377 0.0668 0.50226   0.523079
 C 0.73418 0.876 0.49104   0.520683
 C 0.60151 0.7744 0.75118   0.520974
 C 0.53795 0.652 0.7329   0.546083
 C 0.45057 0.4332 0.00226   0.521833
 C 0.36018 0.624 0.99104   0.521435
 C 0.12591 0.7256 0.25118   0.522379
 C 0.93995 0.848 0.2329   0.547825
 C 0.88603 0.5668 0.99774   0.524489
 C 0.97522 0.376 0.00896   0.520708
 C 0.10269 0.2744 0.74882   0.521005
 C 0.02085 0.152 0.7671   0.550581
 C 0.2698 0.4588 0.457   -0.015002
 C 0.1856 0.5412 0.543   -0.015375
 C 0.4768 0.9588 0.043   -0.016592
 C 0.4786 0.0412 0.957   -0.014812
 N 0.40693 0.5054 0.40234   -0.404969
 N 0.31467 0.4946 0.59766   -0.403728
 N 0.55927 0.0054 0.09766   -0.40436
 N 0.66233 0.9946 0.90234   -0.405164
 O 0.17483 0.87102 0.44272   -0.548054
 O 0.99196 0.2033 0.46278   -0.559146
 O 0.1751 0.08304 0.28356   -0.58153
 O 0.82123 0.2984 0.31654   -0.546576
 O 0.31071 0.84616 0.54462   -0.564965
 O 0.13951 0.1805 0.56288   -0.573784
 O 0.23069 0.27676 0.20146   -0.556925
 O 0.87718 0.4906 0.23004   -0.595426
 O 0.48857 0.12898 0.55728   -0.548465
 O 0.65804 0.7967 0.53722   -0.557761
 O 0.5417 0.91696 0.71644   -0.58178
 O 0.43617 0.7016 0.68346   -0.543831
 O 0.70149 0.15384 0.45538   -0.566233
 O 0.88289 0.8195 0.43712   -0.573114
 O 0.70891 0.72324 0.79854   -0.555674
 O 0.59782 0.5094 0.76996   -0.595237
 O 0.36755 0.37102 0.05728   -0.54819
 O 0.20474 0.7033 0.03722   -0.55808
 O 0.20866 0.58304 0.21644   -0.58231
 O 0.88777 0.7984 0.18346   -0.546042
 O 0.60533 0.34616 0.95538   -0.565727
 O 0.45239 0.6805 0.93712   -0.573307
 O 0.18215 0.77676 0.29854   -0.556942
 O 0.85722 0.9906 0.26996   -0.594724
 O 0.79585 0.62898 0.94272   -0.548916
 O 0.94526 0.2967 0.96278   -0.558627
 O 0.00814 0.41696 0.78356   -0.581426
 O 0.86963 0.2016 0.81654   -0.547279
 O 0.90687 0.65384 0.04462   -0.567525
 O 0.07001 0.3195 0.06288   -0.572665
 O 0.25745 0.22324 0.70146   -0.556802
 O 0.11778 0.0094 0.73004   -0.595791
