{'_ref': 'TBD', '_srcid': 'CAKYAQ_clean', 'submitters': [{'name': 'Dalar Nazarian Jeff Camp and David Sholl', 'email': 'dalar@gatech.edu jcamp6@gatech.edu'}], '_method': 'VASP DFT with PBE;DDEC'}
data_CuH3C9O4
_symmetry_space_group_name_H-M   'P 1'
_cell_length_a   15.26139954
_cell_length_b   15.26139935
_cell_length_c   15.26140000
_cell_angle_alpha   76.21590122
_cell_angle_beta   76.21590139
_cell_angle_gamma   76.21590138
_symmetry_Int_Tables_number   1
_chemical_formula_structural   CuH3C9O4
_chemical_formula_sum   'Cu6 H18 C54 O24'
_cell_volume   3290.09500493
_cell_formula_units_Z   6
loop_
 _symmetry_equiv_pos_site_id
 _symmetry_equiv_pos_as_xyz
  1  'x, y, z'
loop_
 _atom_site_label
 _atom_site_fract_x
 _atom_site_fract_y
 _atom_site_fract_z
 _atom_site_charge
 Cu 0.57971 0.01224 0.01224   0.910713
 Cu 0.01224 0.57971 0.01224   0.910712
 Cu 0.01224 0.01224 0.57971   0.910711
 Cu 0.98776 0.42029 0.98776   0.910714
 Cu 0.42029 0.98776 0.98776   0.910713
 Cu 0.98776 0.98776 0.42029   0.910712
 H 0.5161 0.989 0.3006   0.124331
 H 0.3006 0.5161 0.989   0.124331
 H 0.989 0.3006 0.5161   0.124331
 H 0.011 0.4839 0.6994   0.124329
 H 0.4839 0.6994 0.011   0.124329
 H 0.6994 0.011 0.4839   0.124329
 H 0.4839 0.011 0.6994   0.124327
 H 0.6994 0.4839 0.011   0.124327
 H 0.011 0.6994 0.4839   0.124327
 H 0.989 0.5161 0.3006   0.124331
 H 0.5161 0.3006 0.989   0.124331
 H 0.3006 0.989 0.5161   0.124331
 H 0.2665 0.9757 0.2665   0.115237
 H 0.2665 0.2665 0.9757   0.115238
 H 0.9757 0.2665 0.2665   0.115239
 H 0.0243 0.7335 0.7335   0.115236
 H 0.7335 0.7335 0.0243   0.115237
 H 0.7335 0.0243 0.7335   0.115238
 C 0.39628 0.98262 0.26885   -0.134094
 C 0.45368 0.98742 0.325   -0.05004
 C 0.43463 0.98297 0.16937   0.681945
 C 0.26885 0.39628 0.98262   -0.134094
 C 0.325 0.45368 0.98742   -0.050039
 C 0.16937 0.43463 0.98297   0.681945
 C 0.98262 0.26885 0.39628   -0.134095
 C 0.98742 0.325 0.45368   -0.050039
 C 0.98297 0.16937 0.43463   0.681945
 C 0.01738 0.60372 0.73115   -0.134092
 C 0.01258 0.54632 0.675   -0.050034
 C 0.01703 0.56537 0.83063   0.681946
 C 0.60372 0.73115 0.01738   -0.134092
 C 0.54632 0.675 0.01258   -0.050034
 C 0.56537 0.83063 0.01703   0.681946
 C 0.73115 0.01738 0.60372   -0.134093
 C 0.675 0.01258 0.54632   -0.050034
 C 0.83063 0.01703 0.56537   0.681946
 C 0.60372 0.01738 0.73115   -0.134089
 C 0.54632 0.01258 0.675   -0.05003
 C 0.56537 0.01703 0.83063   0.681946
 C 0.73115 0.60372 0.01738   -0.134088
 C 0.675 0.54632 0.01258   -0.05003
 C 0.83063 0.56537 0.01703   0.681946
 C 0.01738 0.73115 0.60372   -0.134088
 C 0.01258 0.675 0.54632   -0.05003
 C 0.01703 0.83063 0.56537   0.681946
 C 0.98262 0.39628 0.26885   -0.134089
 C 0.98742 0.45368 0.325   -0.050035
 C 0.98297 0.43463 0.16937   0.681948
 C 0.39628 0.26885 0.98262   -0.134089
 C 0.45368 0.325 0.98742   -0.050035
 C 0.43463 0.16937 0.98297   0.681948
 C 0.26885 0.98262 0.39628   -0.134089
 C 0.325 0.98742 0.45368   -0.050035
 C 0.16937 0.98297 0.43463   0.681948
 C 0.47609 0.99749 0.47609   -0.086614
 C 0.30473 0.9797 0.30473   0.004081
 C 0.41845 0.98998 0.41845   0.071028
 C 0.47609 0.47609 0.99749   -0.086614
 C 0.30473 0.30473 0.9797   0.004084
 C 0.41845 0.41845 0.98998   0.071028
 C 0.99749 0.47609 0.47609   -0.086613
 C 0.9797 0.30473 0.30473   0.004087
 C 0.98998 0.41845 0.41845   0.071028
 C 0.00251 0.52391 0.52391   -0.086355
 C 0.0203 0.69527 0.69527   0.004081
 C 0.01002 0.58155 0.58155   0.070981
 C 0.52391 0.52391 0.00251   -0.086355
 C 0.69527 0.69527 0.0203   0.004084
 C 0.58155 0.58155 0.01002   0.070981
 C 0.52391 0.00251 0.52391   -0.086354
 C 0.69527 0.0203 0.69527   0.004088
 C 0.58155 0.01002 0.58155   0.070981
 O 0.51678 0.99496 0.14096   -0.575767
 O 0.38217 0.97628 0.12052   -0.55366
 O 0.14096 0.51678 0.99496   -0.575767
 O 0.12052 0.38217 0.97628   -0.55366
 O 0.99496 0.14096 0.51678   -0.575767
 O 0.97628 0.12052 0.38217   -0.55366
 O 0.00504 0.48322 0.85904   -0.575767
 O 0.02372 0.61783 0.87948   -0.553661
 O 0.48322 0.85904 0.00504   -0.575767
 O 0.61783 0.87948 0.02372   -0.553661
 O 0.85904 0.00504 0.48322   -0.575767
 O 0.87948 0.02372 0.61783   -0.553661
 O 0.48322 0.00504 0.85904   -0.575767
 O 0.61783 0.02372 0.87948   -0.55366
 O 0.85904 0.48322 0.00504   -0.575767
 O 0.87948 0.61783 0.02372   -0.55366
 O 0.00504 0.85904 0.48322   -0.575767
 O 0.02372 0.87948 0.61783   -0.55366
 O 0.99496 0.51678 0.14096   -0.575768
 O 0.97628 0.38217 0.12052   -0.553661
 O 0.51678 0.14096 0.99496   -0.575768
 O 0.38217 0.12052 0.97628   -0.553661
 O 0.14096 0.99496 0.51678   -0.575768
 O 0.12052 0.97628 0.38217   -0.55366
