{'_ref': 'TBD', '_srcid': 'CAKYAQ_clean', 'submitters': [{'name': 'Dalar Nazarian Jeff Camp and David Sholl', 'email': 'dalar@gatech.edu jcamp6@gatech.edu'}], '_method': 'VASP DFT with PBE;DDEC'}
data_LaH8(C4O5)2
_symmetry_space_group_name_H-M   'P 1'
_cell_length_a   13.44167176
_cell_length_b   13.44180000
_cell_length_c   13.44180028
_cell_angle_alpha   94.77469961
_cell_angle_beta   117.28266608
_cell_angle_gamma   117.28266672
_symmetry_Int_Tables_number   1
_chemical_formula_structural   LaH8(C4O5)2
_chemical_formula_sum   'La4 H32 C32 O40'
_cell_volume   1781.17105331
_cell_formula_units_Z   4
loop_
 _symmetry_equiv_pos_site_id
 _symmetry_equiv_pos_as_xyz
  1  'x, y, z'
loop_
 _atom_site_label
 _atom_site_fract_x
 _atom_site_fract_y
 _atom_site_fract_z
 _atom_site_charge
 La 0.736 0.625 0.861   2.1476
 La 0.264 0.125 0.889   2.147547
 La 0.764 0.139 0.875   2.147547
 La 0.236 0.111 0.375   2.147601
 H 0.1149 0.7558 0.1821   0.104311
 H 0.1039 0.6541 0.1018   0.087491
 H 0.5477 0.7352 0.5781   0.108285
 H 0.4759 0.7311 0.6442   0.089978
 H 0.8851 0.0672 0.6409   0.104291
 H 0.8961 0.9979 0.5502   0.087489
 H 0.4523 0.0304 0.1875   0.108314
 H 0.5241 0.1683 0.2552   0.089982
 H 0.5737 0.8179 0.9328   0.104287
 H 0.5523 0.8982 0.0021   0.087501
 H 0.1571 0.4219 0.9696   0.108287
 H 0.0869 0.3558 0.8317   0.089983
 H 0.4263 0.3591 0.2442   0.10429
 H 0.4477 0.4498 0.3459   0.087504
 H 0.8429 0.8125 0.2648   0.108317
 H 0.9131 0.7448 0.2689   0.089988
 H 0.0737 0.1828 0.5679   0.104285
 H 0.0523 0.2521 0.6482   0.087496
 H 0.6571 0.2196 0.1719   0.108284
 H 0.5869 0.0817 0.1058   0.089981
 H 0.9263 0.4942 0.1091   0.104288
 H 0.9477 0.5959 0.1998   0.087499
 H 0.3429 0.5148 0.5625   0.108313
 H 0.4131 0.5189 0.4948   0.089987
 H 0.3851 0.8909 0.8172   0.104289
 H 0.3961 0.8002 0.7479   0.087487
 H 0.9523 0.4375 0.7804   0.108313
 H 0.0241 0.5052 0.9183   0.089981
 H 0.6149 0.4321 0.5058   0.10431
 H 0.6039 0.3518 0.4041   0.087493
 H 0.0477 0.8281 0.4852   0.108289
 H 0.9759 0.8942 0.4811   0.089977
 C 0.0831 0.7734 0.0213   0.655162
 C 0.0669 0.7016 0.1003   -0.050037
 C 0.6833 0.8407 0.7588   0.735727
 C 0.5511 0.7313 0.6512   -0.055098
 C 0.9169 0.9382 0.6903   0.655078
 C 0.9331 0.0334 0.6347   -0.049992
 C 0.3167 0.0755 0.1574   0.735677
 C 0.4489 0.1001 0.1802   -0.05515
 C 0.7521 0.9787 0.0618   0.655032
 C 0.6013 0.8997 0.9666   -0.049993
 C 0.0819 0.2412 0.9245   0.735638
 C 0.0801 0.3488 0.8999   -0.055092
 C 0.2479 0.3097 0.2266   0.655029
 C 0.3987 0.3653 0.2984   -0.049972
 C 0.9181 0.8426 0.1593   0.735749
 C 0.9199 0.8198 0.2687   -0.055178
 C 0.2521 0.3118 0.7287   0.655031
 C 0.1013 0.2166 0.6497   -0.04999
 C 0.5819 0.1745 0.9912   0.735637
 C 0.5801 0.1499 0.0988   -0.055091
 C 0.7479 0.4766 0.0597   0.655028
 C 0.8987 0.5484 0.1153   -0.049969
 C 0.4181 0.4093 0.5926   0.735749
 C 0.4199 0.5187 0.5698   -0.055177
 C 0.4169 0.9403 0.6882   0.655078
 C 0.4331 0.8847 0.7834   -0.049991
 C 0.8167 0.4074 0.8255   0.735677
 C 0.9489 0.4302 0.8501   -0.05515
 C 0.5831 0.2713 0.5234   0.655162
 C 0.5669 0.3503 0.4516   -0.050037
 C 0.1833 0.0088 0.5907   0.735727
 C 0.0511 0.9012 0.4813   -0.055099
 O 0.1907 0.8187 0.0296   -0.483301
 O 0.9874 0.7845 0.9575   -0.596011
 O 0.7593 0.8191 0.838   -0.608463
 O 0.7039 0.9396 0.7593   -0.689911
 O 0.8093 0.8389 0.628   -0.483206
 O 0.0126 0.9701 0.7971   -0.596015
 O 0.2407 0.0787 0.0598   -0.608382
 O 0.2961 0.0554 0.2357   -0.689899
 O 0.7891 0.9704 0.1611   -0.483262
 O 0.827 0.0425 0.0299   -0.595958
 O 0.9811 0.162 0.9213   -0.608411
 O 0.1803 0.2407 0.9446   -0.689866
 O 0.2109 0.372 0.1813   -0.483214
 O 0.173 0.2029 0.2155   -0.596005
 O 0.0189 0.9402 0.1809   -0.608465
 O 0.8197 0.7643 0.0604   -0.689916
 O 0.2891 0.4111 0.7204   -0.483261
 O 0.327 0.2799 0.7925   -0.595958
 O 0.4811 0.1713 0.912   -0.608411
 O 0.6803 0.1946 0.9907   -0.689866
 O 0.7109 0.4313 0.122   -0.483214
 O 0.673 0.4655 0.9529   -0.596005
 O 0.5189 0.4309 0.6902   -0.608466
 O 0.3197 0.3104 0.5143   -0.689916
 O 0.3093 0.878 0.5889   -0.483206
 O 0.5126 0.0471 0.7201   -0.596016
 O 0.7407 0.3098 0.8287   -0.608382
 O 0.7961 0.4857 0.8054   -0.689899
 O 0.6907 0.2796 0.5687   -0.483301
 O 0.4874 0.2075 0.5345   -0.59601
 O 0.2593 0.088 0.5691   -0.608462
 O 0.2039 0.0093 0.6896   -0.689912
 O 0.9279 0.625 0.0529   -0.34195
 O 0.5402 0.625 0.6652   -0.401917
 O 0.0721 0.125 0.6971   -0.341953
 O 0.4598 0.125 0.0848   -0.40191
 O 0.5721 0.9471 0.875   -0.341953
 O 0.9598 0.3348 0.875   -0.40191
 O 0.4279 0.3029 0.375   -0.34195
 O 0.0402 0.9152 0.375   -0.401917
