{'_ref': 'TBD', '_srcid': 'CAKYAQ_clean', 'submitters': [{'name': 'Dalar Nazarian Jeff Camp and David Sholl', 'email': 'dalar@gatech.edu jcamp6@gatech.edu'}], '_method': 'VASP DFT with PBE;DDEC'}
data_GdH4(C3O2)3
_symmetry_space_group_name_H-M   'P 1'
_cell_length_a   7.07600022
_cell_length_b   12.81400000
_cell_length_c   13.48300000
_cell_angle_alpha   90.00000000
_cell_angle_beta   104.18799693
_cell_angle_gamma   90.00000000
_symmetry_Int_Tables_number   1
_chemical_formula_structural   GdH4(C3O2)3
_chemical_formula_sum   'Gd4 H16 C36 O24'
_cell_volume   1185.23764193
_cell_formula_units_Z   4
loop_
 _symmetry_equiv_pos_site_id
 _symmetry_equiv_pos_as_xyz
  1  'x, y, z'
loop_
 _atom_site_label
 _atom_site_fract_x
 _atom_site_fract_y
 _atom_site_fract_z
 _atom_site_charge
 Gd 0.38396 0.5704 0.70122   2.149416
 Gd 0.11604 0.0704 0.29878   2.149415
 Gd 0.61604 0.4296 0.29878   2.149413
 Gd 0.88396 0.9296 0.70122   2.149412
 H 0.2961 0.9349 0.9477   0.093212
 H 0.4347 0.9619 0.1196   0.112122
 H 0.5323 0.8212 0.2273   0.109508
 H 0.3736 0.6259 0.988   0.110251
 H 0.2039 0.4349 0.0523   0.093212
 H 0.0653 0.4619 0.8804   0.112123
 H 0.9677 0.3212 0.7727   0.109508
 H 0.1264 0.1259 0.012   0.110251
 H 0.7039 0.0651 0.0523   0.093212
 H 0.5653 0.0381 0.8804   0.112123
 H 0.4677 0.1788 0.7727   0.109508
 H 0.6264 0.3741 0.012   0.110251
 H 0.7961 0.5651 0.9477   0.093213
 H 0.9347 0.5381 0.1196   0.112123
 H 0.0323 0.6788 0.2273   0.109508
 H 0.8736 0.8741 0.988   0.110251
 C 0.2305 0.7592 0.8395   0.83111
 C 0.3205 0.7765 0.9497   -0.229547
 C 0.3388 0.8782 0.9904   0.035904
 C 0.4198 0.8944 0.0935   -0.12698
 C 0.4786 0.8102 0.1579   0.007794
 C 0.4575 0.7084 0.1187   -0.164541
 C 0.3824 0.6932 0.0145   0.035742
 C 0.5154 0.616 0.1857   0.651993
 C 0.3932 0.4853 0.476   0.594102
 C 0.2695 0.2592 0.1605   0.83111
 C 0.1795 0.2765 0.0503   -0.229547
 C 0.1612 0.3782 0.0096   0.035904
 C 0.0802 0.3944 0.9065   -0.12698
 C 0.0214 0.3102 0.8421   0.007794
 C 0.0425 0.2084 0.8813   -0.164541
 C 0.1176 0.1932 0.9855   0.035741
 C 0.9846 0.116 0.8143   0.651993
 C 0.1068 0.9853 0.524   0.594102
 C 0.7695 0.2408 0.1605   0.831111
 C 0.6795 0.2235 0.0503   -0.229547
 C 0.6612 0.1218 0.0096   0.035905
 C 0.5802 0.1056 0.9065   -0.126979
 C 0.5214 0.1898 0.8421   0.007795
 C 0.5425 0.2916 0.8813   -0.16454
 C 0.6176 0.3068 0.9855   0.035742
 C 0.4846 0.384 0.8143   0.651993
 C 0.6068 0.5147 0.524   0.5941
 C 0.7305 0.7408 0.8395   0.83111
 C 0.8205 0.7235 0.9497   -0.229547
 C 0.8388 0.6218 0.9904   0.035905
 C 0.9198 0.6056 0.0935   -0.126979
 C 0.9786 0.6898 0.1579   0.007795
 C 0.9575 0.7916 0.1187   -0.16454
 C 0.8824 0.8068 0.0145   0.035742
 C 0.0154 0.884 0.1857   0.651993
 C 0.8932 0.0147 0.476   0.5941
 O 0.2354 0.6691 0.8034   -0.794315
 O 0.6528 0.6655 0.7845   -0.743494
 O 0.5626 0.6239 0.2837   -0.672258
 O 0.5161 0.5271 0.1461   -0.665679
 O 0.2711 0.5037 0.5259   -0.667832
 O 0.6403 0.5546 0.6121   -0.666508
 O 0.2646 0.1691 0.1966   -0.794315
 O 0.8472 0.1655 0.2155   -0.743494
 O 0.9374 0.1239 0.7163   -0.672258
 O 0.9839 0.0271 0.8539   -0.665679
 O 0.2289 0.0037 0.4741   -0.667832
 O 0.8597 0.0546 0.3879   -0.666508
 O 0.7646 0.3309 0.1966   -0.794315
 O 0.3472 0.3345 0.2155   -0.743494
 O 0.4374 0.3761 0.7163   -0.672258
 O 0.4839 0.4729 0.8539   -0.665679
 O 0.7289 0.4963 0.4741   -0.667831
 O 0.3597 0.4454 0.3879   -0.666508
 O 0.7354 0.8309 0.8034   -0.794315
 O 0.1528 0.8345 0.7845   -0.743494
 O 0.0626 0.8761 0.2837   -0.672258
 O 0.0161 0.9729 0.1461   -0.665679
 O 0.7711 0.9963 0.5259   -0.667831
 O 0.1403 0.9454 0.6121   -0.666508
