{'_ref': 'TBD', '_srcid': 'CAKYAQ_clean', 'submitters': [{'name': 'Dalar Nazarian Jeff Camp and David Sholl', 'email': 'dalar@gatech.edu jcamp6@gatech.edu'}], '_method': 'VASP DFT with PBE;DDEC'}
data_Ce2Cu3H24(C4O5)6
_symmetry_space_group_name_H-M   'P 1'
_cell_length_a   13.81100000
_cell_length_b   15.49800025
_cell_length_c   15.49800000
_cell_angle_alpha   119.99999946
_cell_angle_beta   90.00000000
_cell_angle_gamma   90.00000000
_symmetry_Int_Tables_number   1
_chemical_formula_structural   Ce2Cu3H24(C4O5)6
_chemical_formula_sum   'Ce4 Cu6 H48 C48 O60'
_cell_volume   2872.81116202
_cell_formula_units_Z   2
loop_
 _symmetry_equiv_pos_site_id
 _symmetry_equiv_pos_as_xyz
  1  'x, y, z'
loop_
 _atom_site_label
 _atom_site_fract_x
 _atom_site_fract_y
 _atom_site_fract_z
 _atom_site_charge
 Ce 0.46549 0.66667 0.33334   2.192964
 Ce 0.03451 0.66667 0.33334   2.192972
 Ce 0.53451 0.33333 0.66666   2.192964
 Ce 0.96549 0.33333 0.66666   2.192972
 Cu 0.25 0.47396 0.4988   1.042461
 Cu 0.25 0.02484 0.52604   1.042463
 Cu 0.25 0.5012 0.97516   1.042485
 Cu 0.75 0.97516 0.5012   1.042462
 Cu 0.75 0.4988 0.47396   1.042462
 Cu 0.75 0.52604 0.02484   1.042485
 H 0.5044 0.3849 0.2861   0.091252
 H 0.412 0.3565 0.218   0.089582
 H 0.4903 0.3914 0.0892   0.089695
 H 0.5733 0.3726 0.1472   0.095189
 H 0.5044 0.9012 0.6151   0.091259
 H 0.412 0.8615 0.6435   0.089589
 H 0.4903 0.6978 0.6086   0.089699
 H 0.5733 0.7746 0.6274   0.095198
 H 0.5044 0.7139 0.0988   0.091252
 H 0.412 0.782 0.1385   0.08958
 H 0.4903 0.9108 0.3022   0.089693
 H 0.5733 0.8528 0.2254   0.095191
 H 0.9956 0.3849 0.2861   0.091252
 H 0.088 0.3565 0.218   0.089583
 H 0.0097 0.3914 0.0892   0.089695
 H 0.9267 0.3726 0.1472   0.09519
 H 0.9956 0.9012 0.6151   0.091259
 H 0.088 0.8615 0.6435   0.08959
 H 0.0097 0.6978 0.6086   0.089699
 H 0.9267 0.7746 0.6274   0.095199
 H 0.9956 0.7139 0.0988   0.091252
 H 0.088 0.782 0.1385   0.08958
 H 0.0097 0.9108 0.3022   0.089693
 H 0.9267 0.8528 0.2254   0.095193
 H 0.4956 0.0988 0.7139   0.091251
 H 0.588 0.1385 0.782   0.089584
 H 0.5097 0.3022 0.9108   0.089694
 H 0.4267 0.2254 0.8528   0.095191
 H 0.4956 0.2861 0.3849   0.091258
 H 0.588 0.218 0.3565   0.089591
 H 0.5097 0.0892 0.3914   0.089698
 H 0.4267 0.1472 0.3726   0.095199
 H 0.4956 0.6151 0.9012   0.091251
 H 0.588 0.6435 0.8615   0.089582
 H 0.5097 0.6086 0.6978   0.089692
 H 0.4267 0.6274 0.7746   0.095193
 H 0.0044 0.0988 0.7139   0.091251
 H 0.912 0.1385 0.782   0.089585
 H 0.9903 0.3022 0.9108   0.089694
 H 0.0733 0.2254 0.8528   0.095192
 H 0.0044 0.2861 0.3849   0.091258
 H 0.912 0.218 0.3565   0.089592
 H 0.9903 0.0892 0.3914   0.089699
 H 0.0733 0.1472 0.3726   0.0952
 H 0.0044 0.6151 0.9012   0.091251
 H 0.912 0.6435 0.8615   0.089583
 H 0.9903 0.6086 0.6978   0.089692
 H 0.0733 0.6274 0.7746   0.095194
 C 0.4488 0.4117 0.2691   -0.05962
 C 0.3855 0.472 0.3615   0.719537
 C 0.5336 0.4236 0.1459   -0.048534
 C 0.5979 0.4972 0.1352   0.702075
 C 0.4488 0.8574 0.5883   -0.05964
 C 0.3855 0.8895 0.528   0.719528
 C 0.5336 0.7223 0.5764   -0.048557
 C 0.5979 0.638 0.5028   0.702053
 C 0.4488 0.7309 0.1426   -0.059611
 C 0.3855 0.6385 0.1105   0.719537
 C 0.5336 0.8541 0.2777   -0.048537
 C 0.5979 0.8648 0.362   0.702059
 C 0.0512 0.4117 0.2691   -0.05962
 C 0.1145 0.472 0.3615   0.719537
 C 0.9664 0.4236 0.1459   -0.048535
 C 0.9021 0.4972 0.1352   0.702076
 C 0.0512 0.8574 0.5883   -0.05964
 C 0.1145 0.8895 0.528   0.719528
 C 0.9664 0.7223 0.5764   -0.048557
 C 0.9021 0.638 0.5028   0.702054
 C 0.0512 0.7309 0.1426   -0.059611
 C 0.1145 0.6385 0.1105   0.719537
 C 0.9664 0.8541 0.2777   -0.048537
 C 0.9021 0.8648 0.362   0.702061
 C 0.5512 0.1426 0.7309   -0.05962
 C 0.6145 0.1105 0.6385   0.719537
 C 0.4664 0.2777 0.8541   -0.048535
 C 0.4021 0.362 0.8648   0.702075
 C 0.5512 0.2691 0.4117   -0.05964
 C 0.6145 0.3615 0.472   0.719528
 C 0.4664 0.1459 0.4236   -0.048557
 C 0.4021 0.1352 0.4972   0.702053
 C 0.5512 0.5883 0.8574   -0.059612
 C 0.6145 0.528 0.8895   0.719537
 C 0.4664 0.5764 0.7223   -0.048537
 C 0.4021 0.5028 0.638   0.702059
 C 0.9488 0.1426 0.7309   -0.05962
 C 0.8855 0.1105 0.6385   0.719537
 C 0.0336 0.2777 0.8541   -0.048535
 C 0.0979 0.362 0.8648   0.702076
 C 0.9488 0.2691 0.4117   -0.059641
 C 0.8855 0.3615 0.472   0.719528
 C 0.0336 0.1459 0.4236   -0.048558
 C 0.0979 0.1352 0.4972   0.702054
 C 0.9488 0.5883 0.8574   -0.059612
 C 0.8855 0.528 0.8895   0.719537
 C 0.0336 0.5764 0.7223   -0.048538
 C 0.0979 0.5028 0.638   0.702061
 O 0.4792 0.4731 0.2343   -0.33235
 O 0.3782 0.5641 0.3954   -0.720437
 O 0.348 0.4227 0.3953   -0.604191
 O 0.5951 0.5861 0.2019   -0.67075
 O 0.6517 0.4592 0.0604   -0.603702
 O 0.4792 0.7612 0.5269   -0.332314
 O 0.3782 0.8313 0.4359   -0.720419
 O 0.348 0.9726 0.5773   -0.604185
 O 0.5951 0.6158 0.4139   -0.670708
 O 0.6517 0.6012 0.5408   -0.603691
 O 0.4792 0.7657 0.2388   -0.332354
 O 0.3782 0.6046 0.1687   -0.72043
 O 0.348 0.6047 0.0274   -0.604198
 O 0.5951 0.7981 0.3842   -0.67072
 O 0.6517 0.9396 0.3988   -0.603695
 O 0.0208 0.4731 0.2343   -0.33235
 O 0.1218 0.5641 0.3954   -0.720437
 O 0.152 0.4227 0.3953   -0.604191
 O 0.9049 0.5861 0.2019   -0.670751
 O 0.8483 0.4592 0.0604   -0.603703
 O 0.0208 0.7612 0.5269   -0.332314
 O 0.1218 0.8313 0.4359   -0.72042
 O 0.152 0.9726 0.5773   -0.604186
 O 0.9049 0.6158 0.4139   -0.670708
 O 0.8483 0.6012 0.5408   -0.603691
 O 0.0208 0.7657 0.2388   -0.332354
 O 0.1218 0.6046 0.1687   -0.720431
 O 0.152 0.6047 0.0274   -0.604199
 O 0.9049 0.7981 0.3842   -0.670721
 O 0.8483 0.9396 0.3988   -0.603696
 O 0.5208 0.2388 0.7657   -0.332349
 O 0.6218 0.1687 0.6046   -0.720437
 O 0.652 0.0274 0.6047   -0.604191
 O 0.4049 0.3842 0.7981   -0.67075
 O 0.3483 0.3988 0.9396   -0.603703
 O 0.5208 0.2343 0.4731   -0.332314
 O 0.6218 0.3954 0.5641   -0.720419
 O 0.652 0.3953 0.4227   -0.604186
 O 0.4049 0.2019 0.5861   -0.670708
 O 0.3483 0.0604 0.4592   -0.603691
 O 0.5208 0.5269 0.7612   -0.332354
 O 0.6218 0.4359 0.8313   -0.72043
 O 0.652 0.5773 0.9726   -0.604198
 O 0.4049 0.4139 0.6158   -0.67072
 O 0.3483 0.5408 0.6012   -0.603695
 O 0.9792 0.2388 0.7657   -0.33235
 O 0.8782 0.1687 0.6046   -0.720437
 O 0.848 0.0274 0.6047   -0.604192
 O 0.0951 0.3842 0.7981   -0.670751
 O 0.1517 0.3988 0.9396   -0.603703
 O 0.9792 0.2343 0.4731   -0.332314
 O 0.8782 0.3954 0.5641   -0.72042
 O 0.848 0.3953 0.4227   -0.604186
 O 0.0951 0.2019 0.5861   -0.670708
 O 0.1517 0.0604 0.4592   -0.603691
 O 0.9792 0.5269 0.7612   -0.332354
 O 0.8782 0.4359 0.8313   -0.720431
 O 0.848 0.5773 0.9726   -0.604199
 O 0.0951 0.4139 0.6158   -0.670721
 O 0.1517 0.5408 0.6012   -0.603695
