{'_ref': 'TBD', '_srcid': 'CAKYAQ_clean', 'submitters': [{'name': 'Dalar Nazarian Jeff Camp and David Sholl', 'email': 'dalar@gatech.edu jcamp6@gatech.edu'}], '_method': 'VASP DFT with PBE;DDEC'}
data_NdH12(C3O2)3
_symmetry_space_group_name_H-M   'P 1'
_cell_length_a   8.67420023
_cell_length_b   9.96859984
_cell_length_c   11.75600000
_cell_angle_alpha   74.80999988
_cell_angle_beta   69.69900211
_cell_angle_gamma   85.92999877
_symmetry_Int_Tables_number   1
_chemical_formula_structural   NdH12(C3O2)3
_chemical_formula_sum   'Nd2 H24 C18 O12'
_cell_volume   919.860086702
_cell_formula_units_Z   2
loop_
 _symmetry_equiv_pos_site_id
 _symmetry_equiv_pos_as_xyz
  1  'x, y, z'
loop_
 _atom_site_label
 _atom_site_fract_x
 _atom_site_fract_y
 _atom_site_fract_z
 _atom_site_charge
 Nd 0.25445 0.52242 0.48809   2.264293
 Nd 0.74555 0.47758 0.51191   2.264289
 H 0.7673 0.7002 0.1375   0.132892
 H 0.7954 0.5397 0.1627   0.130533
 H 0.6245 0.528 0.0431   0.067367
 H 0.6231 0.6908 0.0075   0.067409
 H 0.9149 0.5392 0.9393   0.061319
 H 0.9054 0.7016 0.8972   0.068155
 H 0.7345 0.5253 0.8287   0.136078
 H 0.7544 0.6865 0.7756   0.12474
 H 0.2784 0.0304 0.4009   0.110018
 H 0.2448 0.0158 0.2821   0.119865
 H 0.024 0.122 0.4005   0.064882
 H 0.9652 0.9788 0.3966   0.065484
 H 0.2327 0.2998 0.8625   0.132892
 H 0.2046 0.4603 0.8373   0.130533
 H 0.3755 0.472 0.9569   0.067365
 H 0.3769 0.3092 0.9925   0.067409
 H 0.0851 0.4608 0.0607   0.061321
 H 0.0946 0.2984 0.1028   0.068155
 H 0.2655 0.4747 0.1713   0.136078
 H 0.2456 0.3135 0.2244   0.124738
 H 0.7216 0.9696 0.5991   0.110014
 H 0.7552 0.9842 0.7179   0.119867
 H 0.976 0.878 0.5995   0.064882
 H 0.0348 0.0212 0.6034   0.065483
 C 0.5649 0.5874 0.2632   0.808284
 C 0.7175 0.6114 0.1486   -0.351257
 C 0.688 0.611 0.0284   -0.066823
 C 0.8458 0.6151 0.917   -0.061048
 C 0.8103 0.6033 0.8033   -0.355921
 C 0.9557 0.5843 0.6925   0.782471
 C 0.2387 0.8292 0.4071   0.742931
 C 0.2102 0.9831 0.3727   -0.315614
 C 0.033 0.0221 0.4281   -0.076801
 C 0.4351 0.4126 0.7368   0.808284
 C 0.2825 0.3886 0.8514   -0.351258
 C 0.312 0.389 0.9716   -0.066822
 C 0.1542 0.3849 0.083   -0.061049
 C 0.1897 0.3967 0.1967   -0.35592
 C 0.0443 0.4157 0.3075   0.782471
 C 0.7613 0.1708 0.5929   0.742931
 C 0.7898 0.0169 0.6273   -0.315613
 C 0.967 0.9779 0.5719   -0.076799
 O 0.4246 0.6073 0.2536   -0.658708
 O 0.5772 0.5443 0.372   -0.907152
 O 0.099 0.6164 0.6812   -0.658122
 O 0.9321 0.5352 0.6105   -0.866537
 O 0.1373 0.7471 0.4016   -0.730155
 O 0.3576 0.7816 0.441   -0.69858
 O 0.5754 0.3927 0.7464   -0.658708
 O 0.4228 0.4557 0.628   -0.907152
 O 0.901 0.3836 0.3188   -0.658122
 O 0.0679 0.4648 0.3895   -0.866537
 O 0.8627 0.2529 0.5984   -0.730155
 O 0.6424 0.2184 0.559   -0.69858
