{'_ref': 'TBD', '_srcid': 'CAKYAQ_clean', 'submitters': [{'name': 'Dalar Nazarian Jeff Camp and David Sholl', 'email': 'dalar@gatech.edu jcamp6@gatech.edu'}], '_method': 'VASP DFT with PBE;DDEC'}
data_V2P2H10C4O7
_symmetry_space_group_name_H-M   'P 1'
_cell_length_a   7.43619963
_cell_length_b   9.34460000
_cell_length_c   10.27108148
_cell_angle_alpha   90.00000000
_cell_angle_beta   111.22273108
_cell_angle_gamma   90.00000000
_symmetry_Int_Tables_number   1
_chemical_formula_structural   V2P2H10C4O7
_chemical_formula_sum   'V4 P4 H20 C8 O14'
_cell_volume   665.315792359
_cell_formula_units_Z   2
loop_
 _symmetry_equiv_pos_site_id
 _symmetry_equiv_pos_as_xyz
  1  'x, y, z'
loop_
 _atom_site_label
 _atom_site_fract_x
 _atom_site_fract_y
 _atom_site_fract_z
 _atom_site_charge
 V 0.05306 0.25 0.51778   1.014966
 V 0.94694 0.75 0.48222   1.014965
 V 0.46472 0.25 0.51778   1.015778
 V 0.53528 0.75 0.48222   1.015777
 P 0.18052 0.51552 0.36104   1.495271
 P 0.81948 0.01552 0.63896   1.495271
 P 0.18052 0.98448 0.36104   1.495271
 P 0.81948 0.48448 0.63896   1.495271
 H 0.985 0.3737 0.1846   0.132963
 H 0.9299 0.6019 0.0752   0.062952
 H 0.015 0.8737 0.8154   0.132963
 H 0.0701 0.1019 0.9248   0.062952
 H 0.1996 0.1263 0.1846   0.132797
 H 0.1453 0.8981 0.0752   0.062951
 H 0.8004 0.6263 0.8154   0.132797
 H 0.8547 0.3981 0.9248   0.062951
 H 0.015 0.6263 0.8154   0.132963
 H 0.0701 0.3981 0.9248   0.062954
 H 0.985 0.1263 0.1846   0.132963
 H 0.9299 0.8981 0.0752   0.062954
 H 0.8004 0.8737 0.8154   0.132797
 H 0.8547 0.1019 0.9248   0.062952
 H 0.1996 0.3737 0.1846   0.132797
 H 0.1453 0.6019 0.0752   0.062952
 H 0.63 0.807 0.26   0.469059
 H 0.37 0.307 0.74   0.469059
 H 0.63 0.693 0.26   0.469061
 H 0.37 0.193 0.74   0.469061
 C 0.09621 0.4359 0.19242   -0.571651
 C 0.03485 0.5399 0.0697   -0.008615
 C 0.90379 0.9359 0.80758   -0.571651
 C 0.96515 0.0399 0.9303   -0.008615
 C 0.09621 0.0641 0.19242   -0.57165
 C 0.03485 0.9601 0.0697   -0.008615
 C 0.90379 0.5641 0.80758   -0.57165
 C 0.96515 0.4601 0.9303   -0.008615
 O 0.01532 0.60042 0.37544   -0.810483
 O 0.98468 0.10042 0.62456   -0.810483
 O 0.36012 0.89958 0.37544   -0.81019
 O 0.63988 0.39958 0.62456   -0.81019
 O 0.98468 0.39958 0.62456   -0.810483
 O 0.01532 0.89958 0.37544   -0.810483
 O 0.63988 0.10042 0.62456   -0.81019
 O 0.36012 0.60042 0.37544   -0.81019
 O 0.23467 0.3901 0.46934   -0.814167
 O 0.76533 0.8901 0.53066   -0.814167
 O 0.23467 0.1099 0.46934   -0.814167
 O 0.76533 0.6099 0.53066   -0.814167
 O 0.6514 0.75 0.3028   -0.712524
 O 0.3486 0.25 0.6972   -0.712524
