{'_ref': 'TBD', '_srcid': 'CAKYAQ_clean', 'submitters': [{'name': 'Dalar Nazarian Jeff Camp and David Sholl', 'email': 'dalar@gatech.edu jcamp6@gatech.edu'}], '_method': 'VASP DFT with PBE;DDEC'}
data_NdH4C5O8
_symmetry_space_group_name_H-M   'P 1'
_cell_length_a   6.10919960
_cell_length_b   7.68660000
_cell_length_c   22.69870000
_cell_angle_alpha   90.00000000
_cell_angle_beta   91.65699933
_cell_angle_gamma   90.00000000
_symmetry_Int_Tables_number   1
_chemical_formula_structural   NdH4C5O8
_chemical_formula_sum   'Nd4 H16 C20 O32'
_cell_volume   1065.46193914
_cell_formula_units_Z   4
loop_
 _symmetry_equiv_pos_site_id
 _symmetry_equiv_pos_as_xyz
  1  'x, y, z'
loop_
 _atom_site_label
 _atom_site_fract_x
 _atom_site_fract_y
 _atom_site_fract_z
 _atom_site_charge
 Nd 0.45527 0.5032 0.85402   2.238375
 Nd 0.54473 0.0032 0.64598   2.238375
 Nd 0.54473 0.4968 0.14598   2.238375
 Nd 0.45527 0.9968 0.35402   2.238375
 H 0.302 0.723 0.761   0.376128
 H 0.423 0.633 0.612   0.447356
 H 0.0431 0.4784 0.7175   0.121219
 H 0.1225 0.5691 0.6244   0.12402
 H 0.698 0.223 0.739   0.376128
 H 0.577 0.133 0.888   0.447356
 H 0.9569 0.9784 0.7825   0.121219
 H 0.8775 0.0691 0.8756   0.12402
 H 0.698 0.277 0.239   0.376128
 H 0.577 0.367 0.388   0.447356
 H 0.9569 0.5216 0.2825   0.121219
 H 0.8775 0.4309 0.3756   0.12402
 H 0.302 0.777 0.261   0.376128
 H 0.423 0.867 0.112   0.447356
 H 0.0431 0.0216 0.2175   0.121219
 H 0.1225 0.9309 0.1244   0.12402
 C 0.3663 0.3948 0.7111   0.671381
 C 0.1849 0.5371 0.7147   0.083365
 C 0.1838 0.6423 0.6562   0.037456
 C 0.0467 0.8115 0.6595   0.691564
 C 0.5837 0.5759 0.9988   0.562646
 C 0.6337 0.8948 0.7889   0.671381
 C 0.8151 0.0371 0.7853   0.083365
 C 0.8162 0.1423 0.8438   0.037456
 C 0.9533 0.3115 0.8405   0.691564
 C 0.4163 0.0759 0.5012   0.562646
 C 0.6337 0.6052 0.2889   0.671381
 C 0.8151 0.4629 0.2853   0.083365
 C 0.8162 0.3577 0.3438   0.037456
 C 0.9533 0.1885 0.3405   0.691564
 C 0.4163 0.4241 0.0012   0.56264
 C 0.3663 0.1052 0.2111   0.671381
 C 0.1849 0.9629 0.2147   0.083365
 C 0.1838 0.8577 0.1562   0.037456
 C 0.0467 0.6885 0.1595   0.691564
 C 0.5837 0.9241 0.4988   0.56264
 O 0.5151 0.4011 0.7516   -0.69049
 O 0.3579 0.2858 0.6704   -0.671862
 O 0.2189 0.6408 0.7668   -0.638946
 O 0.405 0.6914 0.6417   -0.633196
 O 0.1488 0.9532 0.6539   -0.686535
 O 0.8453 0.7956 0.6662   -0.6892
 O 0.6234 0.6326 0.9472   -0.678009
 O 0.6644 0.6311 0.0471   -0.665268
 O 0.4849 0.9011 0.7484   -0.69049
 O 0.6421 0.7858 0.8296   -0.671863
 O 0.7811 0.1408 0.7332   -0.638946
 O 0.595 0.1914 0.8583   -0.633196
 O 0.8512 0.4532 0.8461   -0.686535
 O 0.1547 0.2956 0.8338   -0.6892
 O 0.3766 0.1326 0.5528   -0.678009
 O 0.3356 0.1311 0.4529   -0.665268
 O 0.4849 0.5989 0.2484   -0.69049
 O 0.6421 0.7142 0.3296   -0.671862
 O 0.7811 0.3592 0.2332   -0.638946
 O 0.595 0.3086 0.3583   -0.633196
 O 0.8512 0.0468 0.3461   -0.686535
 O 0.1547 0.2044 0.3338   -0.6892
 O 0.3766 0.3674 0.0528   -0.678008
 O 0.3356 0.3689 0.9529   -0.665268
 O 0.5151 0.0989 0.2516   -0.69049
 O 0.3579 0.2142 0.1704   -0.671863
 O 0.2189 0.8592 0.2668   -0.638946
 O 0.405 0.8086 0.1417   -0.633196
 O 0.1488 0.5468 0.1539   -0.686535
 O 0.8453 0.7044 0.1662   -0.6892
 O 0.6234 0.8674 0.4472   -0.678009
 O 0.6644 0.8689 0.5471   -0.665268
