{'_ref': 'TBD', '_srcid': 'CAKYAQ_clean', 'submitters': [{'name': 'Dalar Nazarian Jeff Camp and David Sholl', 'email': 'dalar@gatech.edu jcamp6@gatech.edu'}], '_method': 'VASP DFT with PBE;DDEC'}
data_Sm2Zn3H24(C4O5)6
_symmetry_space_group_name_H-M   'P 1'
_cell_length_a   14.81270000
_cell_length_b   14.81269957
_cell_length_c   15.61300000
_cell_angle_alpha   90.00000000
_cell_angle_beta   90.00000000
_cell_angle_gamma   120.00000096
_symmetry_Int_Tables_number   1
_chemical_formula_structural   Sm2Zn3H24(C4O5)6
_chemical_formula_sum   'Sm4 Zn6 H48 C48 O60'
_cell_volume   2966.78058956
_cell_formula_units_Z   2
loop_
 _symmetry_equiv_pos_site_id
 _symmetry_equiv_pos_as_xyz
  1  'x, y, z'
loop_
 _atom_site_label
 _atom_site_fract_x
 _atom_site_fract_y
 _atom_site_fract_z
 _atom_site_charge
 Sm 0.66667 0.33334 0.75   2.216313
 Sm 0.33333 0.66666 0.75   2.216313
 Sm 0.33333 0.66666 0.25   2.216312
 Sm 0.66667 0.33334 0.25   2.216312
 Zn 0.5 0.5 0.0   1.189077
 Zn 0.0 0.5 0.0   1.189073
 Zn 0.5 0.0 0.0   1.189078
 Zn 0.0 0.5 0.5   1.189077
 Zn 0.5 0.5 0.5   1.189073
 Zn 0.5 0.0 0.5   1.189078
 H 0.7195 0.63 0.7697   0.081468
 H 0.7973 0.6324 0.8391   0.097776
 H 0.9105 0.2805 0.7697   0.081457
 H 0.8351 0.2027 0.8391   0.09777
 H 0.37 0.0895 0.7697   0.081458
 H 0.3676 0.1649 0.8391   0.097762
 H 0.2805 0.37 0.7697   0.081468
 H 0.2027 0.3676 0.8391   0.097776
 H 0.0895 0.7195 0.7697   0.081457
 H 0.1649 0.7973 0.8391   0.097769
 H 0.63 0.9105 0.7697   0.081458
 H 0.6324 0.8351 0.8391   0.097762
 H 0.0895 0.37 0.7303   0.081467
 H 0.1649 0.3676 0.6609   0.097776
 H 0.63 0.7195 0.7303   0.081456
 H 0.6324 0.7973 0.6609   0.097769
 H 0.2805 0.9105 0.7303   0.081457
 H 0.2027 0.8351 0.6609   0.097762
 H 0.9105 0.63 0.7303   0.081467
 H 0.8351 0.6324 0.6609   0.097775
 H 0.37 0.2805 0.7303   0.081456
 H 0.3676 0.2027 0.6609   0.097769
 H 0.7195 0.0895 0.7303   0.081457
 H 0.7973 0.1649 0.6609   0.097761
 H 0.2805 0.37 0.2303   0.081468
 H 0.2027 0.3676 0.1609   0.097778
 H 0.0895 0.7195 0.2303   0.081457
 H 0.1649 0.7973 0.1609   0.097771
 H 0.63 0.9105 0.2303   0.081458
 H 0.6324 0.8351 0.1609   0.097764
 H 0.7195 0.63 0.2303   0.081468
 H 0.7973 0.6324 0.1609   0.097777
 H 0.9105 0.2805 0.2303   0.081457
 H 0.8351 0.2027 0.1609   0.09777
 H 0.37 0.0895 0.2303   0.081458
 H 0.3676 0.1649 0.1609   0.097763
 H 0.9105 0.63 0.2697   0.081467
 H 0.8351 0.6324 0.3391   0.097777
 H 0.37 0.2805 0.2697   0.081456
 H 0.3676 0.2027 0.3391   0.097771
 H 0.7195 0.0895 0.2697   0.081457
 H 0.7973 0.1649 0.3391   0.097763
 H 0.0895 0.37 0.2697   0.081467
 H 0.1649 0.3676 0.3391   0.097777
 H 0.63 0.7195 0.2697   0.081456
 H 0.6324 0.7973 0.3391   0.09777
 H 0.2805 0.9105 0.2697   0.081457
 H 0.2027 0.8351 0.3391   0.097763
 C 0.6484 0.5171 0.8597   0.734723
 C 0.7379 0.5868 0.8038   -0.053345
 C 0.8687 0.3516 0.8597   0.734731
 C 0.8489 0.2621 0.8038   -0.05332
 C 0.4829 0.1313 0.8597   0.734716
 C 0.4132 0.1511 0.8038   -0.053308
 C 0.3516 0.4829 0.8597   0.734722
 C 0.2621 0.4132 0.8038   -0.053345
 C 0.1313 0.6484 0.8597   0.73473
 C 0.1511 0.7379 0.8038   -0.053319
 C 0.5171 0.8687 0.8597   0.734716
 C 0.5868 0.8489 0.8038   -0.053307
 C 0.1313 0.4829 0.6403   0.734722
 C 0.1511 0.4132 0.6962   -0.053345
 C 0.5171 0.6484 0.6403   0.73473
 C 0.5868 0.7379 0.6962   -0.05332
 C 0.3516 0.8687 0.6403   0.734716
 C 0.2621 0.8489 0.6962   -0.053307
 C 0.8687 0.5171 0.6403   0.734722
 C 0.8489 0.5868 0.6962   -0.053344
 C 0.4829 0.3516 0.6403   0.73473
 C 0.4132 0.2621 0.6962   -0.053319
 C 0.6484 0.1313 0.6403   0.734715
 C 0.7379 0.1511 0.6962   -0.053307
 C 0.3516 0.4829 0.1403   0.734723
 C 0.2621 0.4132 0.1962   -0.053346
 C 0.1313 0.6484 0.1403   0.734731
 C 0.1511 0.7379 0.1962   -0.05332
 C 0.5171 0.8687 0.1403   0.734716
 C 0.5868 0.8489 0.1962   -0.053308
 C 0.6484 0.5171 0.1403   0.734723
 C 0.7379 0.5868 0.1962   -0.053345
 C 0.8687 0.3516 0.1403   0.734731
 C 0.8489 0.2621 0.1962   -0.05332
 C 0.4829 0.1313 0.1403   0.734716
 C 0.4132 0.1511 0.1962   -0.053308
 C 0.8687 0.5171 0.3597   0.734722
 C 0.8489 0.5868 0.3038   -0.053345
 C 0.4829 0.3516 0.3597   0.734731
 C 0.4132 0.2621 0.3038   -0.05332
 C 0.6484 0.1313 0.3597   0.734716
 C 0.7379 0.1511 0.3038   -0.053308
 C 0.1313 0.4829 0.3597   0.734722
 C 0.1511 0.4132 0.3038   -0.053345
 C 0.5171 0.6484 0.3597   0.73473
 C 0.5868 0.7379 0.3038   -0.05332
 C 0.3516 0.8687 0.3597   0.734716
 C 0.2621 0.8489 0.3038   -0.053308
 O 0.615 0.4202 0.8554   -0.71298
 O 0.6147 0.5603 0.9076   -0.641367
 O 0.8052 0.385 0.8554   -0.712995
 O 0.9456 0.3853 0.9076   -0.641374
 O 0.5798 0.1948 0.8554   -0.712965
 O 0.4397 0.0544 0.9076   -0.641375
 O 0.385 0.5798 0.8554   -0.71298
 O 0.3853 0.4397 0.9076   -0.641367
 O 0.1948 0.615 0.8554   -0.712995
 O 0.0544 0.6147 0.9076   -0.641374
 O 0.4202 0.8052 0.8554   -0.712965
 O 0.5603 0.9456 0.9076   -0.641375
 O 0.1948 0.5798 0.6446   -0.71298
 O 0.0544 0.4397 0.5924   -0.641367
 O 0.4202 0.615 0.6446   -0.712995
 O 0.5603 0.6147 0.5924   -0.641374
 O 0.385 0.8052 0.6446   -0.712965
 O 0.3853 0.9456 0.5924   -0.641375
 O 0.8052 0.4202 0.6446   -0.71298
 O 0.9456 0.5603 0.5924   -0.641367
 O 0.5798 0.385 0.6446   -0.712995
 O 0.4397 0.3853 0.5924   -0.641374
 O 0.615 0.1948 0.6446   -0.712965
 O 0.6147 0.0544 0.5924   -0.641375
 O 0.385 0.5798 0.1446   -0.71298
 O 0.3853 0.4397 0.0924   -0.641366
 O 0.1948 0.615 0.1446   -0.712995
 O 0.0544 0.6147 0.0924   -0.641373
 O 0.4202 0.8052 0.1446   -0.712965
 O 0.5603 0.9456 0.0924   -0.641375
 O 0.615 0.4202 0.1446   -0.71298
 O 0.6147 0.5603 0.0924   -0.641366
 O 0.8052 0.385 0.1446   -0.712995
 O 0.9456 0.3853 0.0924   -0.641373
 O 0.5798 0.1948 0.1446   -0.712965
 O 0.4397 0.0544 0.0924   -0.641375
 O 0.8052 0.4202 0.3554   -0.71298
 O 0.9456 0.5603 0.4076   -0.641367
 O 0.5798 0.385 0.3554   -0.712995
 O 0.4397 0.3853 0.4076   -0.641373
 O 0.615 0.1948 0.3554   -0.712965
 O 0.6147 0.0544 0.4076   -0.641375
 O 0.1948 0.5798 0.3554   -0.71298
 O 0.0544 0.4397 0.4076   -0.641367
 O 0.4202 0.615 0.3554   -0.712995
 O 0.5603 0.6147 0.4076   -0.641373
 O 0.385 0.8052 0.3554   -0.712965
 O 0.3853 0.9456 0.4076   -0.641375
 O 0.7646 0.5292 0.75   -0.345832
 O 0.7646 0.2354 0.75   -0.345878
 O 0.4708 0.2354 0.75   -0.345878
 O 0.2354 0.4708 0.75   -0.345832
 O 0.2354 0.7646 0.75   -0.345878
 O 0.5292 0.7646 0.75   -0.345878
 O 0.2354 0.4708 0.25   -0.345832
 O 0.2354 0.7646 0.25   -0.345878
 O 0.5292 0.7646 0.25   -0.345878
 O 0.7646 0.5292 0.25   -0.345832
 O 0.7646 0.2354 0.25   -0.345878
 O 0.4708 0.2354 0.25   -0.345878
