{'_ref': 'TBD', '_srcid': 'CAKYAQ_clean', 'submitters': [{'name': 'Dalar Nazarian Jeff Camp and David Sholl', 'email': 'dalar@gatech.edu jcamp6@gatech.edu'}], '_method': 'VASP DFT with PBE;DDEC'}
data_Zn5Si2H34(C28O9)2
_symmetry_space_group_name_H-M   'P 1'
_cell_length_a   13.93499983
_cell_length_b   14.19600016
_cell_length_c   14.67080000
_cell_angle_alpha   107.98799778
_cell_angle_beta   113.73500159
_cell_angle_gamma   100.29800017
_symmetry_Int_Tables_number   1
_chemical_formula_structural   Zn5Si2H34(C28O9)2
_chemical_formula_sum   'Zn5 Si2 H34 C56 O18'
_cell_volume   2368.83841571
_cell_formula_units_Z   1
loop_
 _symmetry_equiv_pos_site_id
 _symmetry_equiv_pos_as_xyz
  1  'x, y, z'
loop_
 _atom_site_label
 _atom_site_fract_x
 _atom_site_fract_y
 _atom_site_fract_z
 _atom_site_charge
 Zn 0.47125 0.79671 0.55655   1.086991
 Zn 0.6967 0.00416 0.7358   1.140713
 Zn 0.52875 0.20329 0.44345   1.086991
 Zn 0.3033 0.99584 0.2642   1.140713
 Zn 0.5 0.0 0.5   1.181903
 Si 0.76383 0.63431 0.12   0.873546
 Si 0.23617 0.36569 0.88   0.873546
 H 0.1143 0.7588 0.4585   0.114096
 H 0.9208 0.6915 0.346   0.087811
 H 0.9602 0.7077 0.0911   0.089127
 H 0.1517 0.7814 0.2046   0.086026
 H 0.5267 0.6164 0.7557   0.112226
 H 0.5891 0.5507 0.8873   0.066993
 H 0.8338 0.8328 0.1038   0.080204
 H 0.7822 0.8952 0.969   0.111054
 H 0.5215 0.2581 0.9178   0.097897
 H 0.5617 0.4393 0.0112   0.072787
 H 0.8836 0.497 0.0793   0.079248
 H 0.8409 0.3178 0.9781   0.108077
 H 0.5709 0.6147 0.3369   0.10909
 H 0.6421 0.5445 0.2221   0.081766
 H 0.7454 0.8311 0.2239   0.08287
 H 0.6774 0.9002 0.3388   0.113226
 H 0.519 0.987 0.683   0.428808
 H 0.8857 0.2412 0.5415   0.114096
 H 0.0792 0.3085 0.654   0.087811
 H 0.0398 0.2923 0.9089   0.089127
 H 0.8483 0.2186 0.7954   0.086026
 H 0.4733 0.3836 0.2443   0.112226
 H 0.4109 0.4493 0.1127   0.066993
 H 0.1662 0.1672 0.8962   0.080204
 H 0.2178 0.1048 0.031   0.111054
 H 0.4785 0.7419 0.0822   0.097897
 H 0.4383 0.5607 0.9888   0.072787
 H 0.1164 0.503 0.9207   0.079248
 H 0.1591 0.6822 0.0219   0.108078
 H 0.4291 0.3853 0.6631   0.10909
 H 0.3579 0.4555 0.7779   0.081767
 H 0.2546 0.1689 0.7761   0.08287
 H 0.3226 0.0998 0.6612   0.113226
 H 0.481 0.013 0.317   0.428808
 C 0.2775 0.8157 0.4128   0.720375
 C 0.154 0.7758 0.3428   -0.117848
 C 0.0832 0.7495 0.3842   -0.074486
 C 0.9675 0.7098 0.317   -0.000881
 C 0.9194 0.6964 0.2088   -0.347511
 C 0.9912 0.7204 0.1663   -0.00821
 C 0.1051 0.7618 0.2332   -0.093177
 C 0.6161 0.8062 0.7645   0.743217
 C 0.6489 0.763 0.8503   -0.132807
 C 0.5905 0.6598 0.8257   -0.070359
 C 0.6269 0.6218 0.905   0.004917
 C 0.7179 0.685 0.0107   -0.338743
 C 0.7728 0.7877 0.0325   -0.011185
 C 0.741 0.8258 0.9531   -0.058861
 C 0.6482 0.1576 0.8647   0.682797
 C 0.6765 0.2705 0.9344   -0.110815
 C 0.5943 0.3067 0.9477   -0.053416
 C 0.6191 0.415 0.0053   -0.014272
 C 0.7275 0.4883 0.0545   -0.348276
 C 0.8091 0.4496 0.0446   -0.009865
 C 0.7837 0.3421 0.9846   -0.068582
 C 0.5707 0.812 0.4212   0.704825
 C 0.6172 0.765 0.349   -0.130071
 C 0.6066 0.6586 0.314   -0.069454
 C 0.6488 0.6168 0.245   -0.015199
 C 0.7005 0.6793 0.2091   -0.349969
 C 0.7101 0.7865 0.2465   -0.004923
 C 0.6695 0.8276 0.3147   -0.049787
 C 0.7225 0.1843 0.5872   0.720375
 C 0.846 0.2242 0.6572   -0.117848
 C 0.9168 0.2505 0.6158   -0.074486
 C 0.0325 0.2902 0.683   -0.000881
 C 0.0806 0.3036 0.7912   -0.347511
 C 0.0088 0.2796 0.8337   -0.00821
 C 0.8949 0.2382 0.7668   -0.093177
 C 0.3839 0.1938 0.2355   0.743217
 C 0.3511 0.237 0.1497   -0.132807
 C 0.4095 0.3402 0.1743   -0.070359
 C 0.3731 0.3782 0.095   0.004917
 C 0.2821 0.315 0.9893   -0.338743
 C 0.2272 0.2123 0.9675   -0.011185
 C 0.259 0.1742 0.0469   -0.058861
 C 0.3518 0.8424 0.1353   0.682797
 C 0.3235 0.7295 0.0656   -0.110815
 C 0.4057 0.6933 0.0523   -0.053416
 C 0.3809 0.585 0.9947   -0.014272
 C 0.2725 0.5117 0.9455   -0.348276
 C 0.1909 0.5504 0.9554   -0.009865
 C 0.2163 0.6579 0.0154   -0.068582
 C 0.4293 0.188 0.5788   0.704824
 C 0.3828 0.235 0.651   -0.130071
 C 0.3934 0.3414 0.686   -0.069454
 C 0.3512 0.3832 0.755   -0.015199
 C 0.2995 0.3207 0.7909   -0.349969
 C 0.2899 0.2135 0.7535   -0.004923
 C 0.3305 0.1724 0.6853   -0.049787
 O 0.3143 0.7805 0.4866   -0.61706
 O 0.3362 0.8773 0.395   -0.640275
 O 0.6877 0.8895 0.7861   -0.668803
 O 0.5249 0.7557 0.6789   -0.590545
 O 0.7296 0.1358 0.8512   -0.657351
 O 0.5523 0.0928 0.8222   -0.565043
 O 0.5349 0.7566 0.4605   -0.634874
 O 0.573 0.9049 0.4374   -0.61143
 O 0.5358 0.9551 0.6256   -1.005561
 O 0.6857 0.2195 0.5134   -0.61706
 O 0.6638 0.1227 0.605   -0.640275
 O 0.3123 0.1105 0.2139   -0.668803
 O 0.4751 0.2443 0.3211   -0.590545
 O 0.2704 0.8642 0.1488   -0.657351
 O 0.4477 0.9072 0.1778   -0.565043
 O 0.4651 0.2434 0.5395   -0.634874
 O 0.427 0.0951 0.5626   -0.61143
 O 0.4642 0.0449 0.3744   -1.00556
