{'_ref': 'TBD', '_srcid': 'CAKYAQ_clean', 'submitters': [{'name': 'Dalar Nazarian Jeff Camp and David Sholl', 'email': 'dalar@gatech.edu jcamp6@gatech.edu'}], '_method': 'VASP DFT with PBE;DDEC'}
data_Zn6H59(C2N)24
_symmetry_space_group_name_H-M   'P 1'
_cell_length_a   14.72689958
_cell_length_b   14.72689952
_cell_length_c   14.72690000
_cell_angle_alpha   109.47099984
_cell_angle_beta   109.47099976
_cell_angle_gamma   109.47100001
_symmetry_Int_Tables_number   1
_chemical_formula_structural   Zn6H59(C2N)24
_chemical_formula_sum   'Zn6 H59 C48 N24'
_cell_volume   2458.75720684
_cell_formula_units_Z   1
loop_
 _symmetry_equiv_pos_site_id
 _symmetry_equiv_pos_as_xyz
  1  'x, y, z'
loop_
 _atom_site_label
 _atom_site_fract_x
 _atom_site_fract_y
 _atom_site_fract_z
 _atom_site_charge
 Zn 0.75 0.5 0.25   0.765028
 Zn 0.25 0.5 0.75   0.758226
 Zn 0.25 0.75 0.5   0.762197
 Zn 0.75 0.25 0.5   0.750502
 Zn 0.5 0.75 0.25   0.750182
 Zn 0.5 0.25 0.75   0.752332
 H 0.63956 0.52294 0.41901   0.103455
 H 0.10393 0.22055 0.58099   0.102637
 H 0.89607 0.47706 0.11662   0.100363
 H 0.36044 0.77945 0.88338   0.104479
 H 0.11662 0.89607 0.47706   0.101699
 H 0.88338 0.36044 0.77945   0.104007
 H 0.41901 0.63956 0.52294   0.103717
 H 0.58099 0.10393 0.22055   0.107815
 H 0.22055 0.58099 0.10393   0.101955
 H 0.52294 0.41901 0.63956   0.105463
 H 0.77945 0.88338 0.36044   0.104694
 H 0.47706 0.11662 0.89607   0.11598
 H 0.22055 0.10393 0.58099   0.1044
 H 0.52294 0.63956 0.41901   0.102456
 H 0.77945 0.36044 0.88338   0.101752
 H 0.47706 0.89607 0.11662   0.105309
 H 0.63956 0.41901 0.52294   0.102592
 H 0.10393 0.58099 0.22055   0.100479
 H 0.89607 0.11662 0.47706   0.103428
 H 0.36044 0.88338 0.77945   0.105151
 H 0.11662 0.47706 0.89607   0.102209
 H 0.88338 0.77945 0.36044   0.103372
 H 0.41901 0.52294 0.63956   0.103927
 H 0.7967 0.32218 0.24144   0.138224
 H 0.78575 0.23544 0.30902   0.140675
 H 0.90933 0.37672 0.38388   0.136668
 H 0.91357 0.4734 0.66294   0.143107
 H 0.02349 0.54046 0.63365   0.138722
 H 0.06294 0.54357 0.76907   0.137481
 H 0.91106 0.65095 0.47369   0.143485
 H 0.05217 0.77073 0.53717   0.134026
 H 0.03677 0.64398 0.54657   0.13949
 H 0.21425 0.44969 0.52328   0.140136
 H 0.2033 0.52548 0.44474   0.141386
 H 0.09067 0.4674 0.47455   0.135867
 H 0.53888 0.02015 0.63133   0.138025
 H 0.4735 0.91451 0.66597   0.143224
 H 0.54504 0.06534 0.76836   0.139553
 H 0.47624 0.09096 0.46578   0.142418
 H 0.52261 0.21664 0.45096   0.141558
 H 0.44372 0.20063 0.52583   0.14155
 H 0.22928 0.76222 0.27404   0.132706
 H 0.35607 0.83051 0.26669   0.144311
 H 0.34899 0.89904 0.39361   0.142007
 H 0.76202 0.07714 0.5527   0.139771
 H 0.68389 0.92232 0.4754   0.140477
 H 0.61975 0.000540000000001 0.52933   0.1378
 H 0.47739 0.69403 0.92835   0.140311
 H 0.52376 0.61472 0.98955   0.141056
 H 0.55627 0.75691 0.0821   0.142563
 H 0.31611 0.23843 0.79151   0.141356
 H 0.23798 0.31512 0.79069   0.141035
 H 0.38025 0.38079 0.90958   0.138684
 H 0.5265 0.441 0.19247   0.142709
 H 0.46112 0.48127 0.09245   0.137073
 H 0.45495 0.52029 0.22331   0.138876
 H 0.64393 0.47444 0.91062   0.145959
 H 0.77072 0.53294 0.04477   0.13489
 H 0.65101 0.55004 0.04462   0.144044
 C 0.67799 0.46715 0.41062   -0.063922
 C 0.05653 0.26737 0.58938   -0.065421
 C 0.94347 0.53285 0.21084   -0.067664
 C 0.32201 0.73263 0.78916   -0.066953
 C 0.21084 0.94347 0.53285   -0.063661
 C 0.78916 0.32201 0.73263   -0.066532
 C 0.41062 0.67799 0.46715   -0.064163
 C 0.58938 0.05653 0.26737   -0.066815
 C 0.26737 0.58938 0.05653   -0.059876
 C 0.46715 0.41062 0.67799   -0.068219
 C 0.73263 0.78916 0.32201   -0.069515
 C 0.53285 0.21084 0.94347   -0.112989
 C 0.26737 0.05653 0.58938   -0.067665
 C 0.46715 0.67799 0.41062   -0.069994
 C 0.73263 0.32201 0.78916   -0.063269
 C 0.53285 0.94347 0.21084   -0.068049
 C 0.67799 0.41062 0.46715   -0.068371
 C 0.05653 0.58938 0.26737   -0.062208
 C 0.94347 0.21084 0.53285   -0.068223
 C 0.32201 0.78916 0.73263   -0.063448
 C 0.21084 0.53285 0.94347   -0.070241
 C 0.78916 0.73263 0.32201   -0.060661
 C 0.41062 0.46715 0.67799   -0.064441
 C 0.58938 0.26737 0.05653   0.035443
 C 0.8158 0.3238 0.3238   -0.471223
 C 0.75766 0.37236 0.37236   0.452083
 C 0.0 0.492 0.6762   -0.474932
 C 0.0 0.3853 0.62764   0.439568
 C 0.0 0.6762 0.492   -0.473777
 C 0.0 0.62764 0.3853   0.443754
 C 0.1842 0.508 0.508   -0.473278
 C 0.24234 0.6147 0.6147   0.433838
 C 0.492 0.0 0.6762   -0.475472
 C 0.3853 0.0 0.62764   0.438694
 C 0.508 0.1842 0.508   -0.480049
 C 0.6147 0.24234 0.6147   0.438435
 C 0.3238 0.8158 0.3238   -0.478027
 C 0.37236 0.75766 0.37236   0.445659
 C 0.6762 0.0 0.492   -0.473331
 C 0.62764 0.0 0.3853   0.441296
 C 0.492 0.6762 0.0   -0.479507
 C 0.3853 0.62764 0.0   0.438175
 C 0.3238 0.3238 0.8158   -0.474794
 C 0.37236 0.37236 0.75766   0.443126
 C 0.508 0.508 0.1842   -0.474229
 C 0.6147 0.6147 0.24234   0.437912
 C 0.6762 0.492 0.0   -0.480418
 C 0.62764 0.3853 0.0   0.449492
 N 0.72854 0.44296 0.35038   -0.42797
 N 0.09258 0.37816 0.64962   -0.418702
 N 0.90742 0.55704 0.28558   -0.416409
 N 0.27146 0.62184 0.71442   -0.417469
 N 0.28558 0.90742 0.55704   -0.41871
 N 0.71442 0.27146 0.62184   -0.41584
 N 0.35038 0.72854 0.44296   -0.423066
 N 0.64962 0.09258 0.37816   -0.415022
 N 0.37816 0.64962 0.09258   -0.416174
 N 0.44296 0.35038 0.72854   -0.42271
 N 0.62184 0.71442 0.27146   -0.414867
 N 0.55704 0.28558 0.90742   -0.388807
 N 0.37816 0.09258 0.64962   -0.416705
 N 0.44296 0.72854 0.35038   -0.414608
 N 0.62184 0.27146 0.71442   -0.417966
 N 0.55704 0.90742 0.28558   -0.422504
 N 0.72854 0.35038 0.44296   -0.416909
 N 0.09258 0.64962 0.37816   -0.417303
 N 0.90742 0.28558 0.55704   -0.415559
 N 0.27146 0.71442 0.62184   -0.421785
 N 0.28558 0.55704 0.90742   -0.416969
 N 0.71442 0.62184 0.27146   -0.422728
 N 0.35038 0.44296 0.72854   -0.416761
 N 0.64962 0.37816 0.09258   -0.441628
