{'_ref': 'TBD', '_srcid': 'CAKYAQ_clean', 'submitters': [{'name': 'Dalar Nazarian Jeff Camp and David Sholl', 'email': 'dalar@gatech.edu jcamp6@gatech.edu'}], '_method': 'VASP DFT with PBE;DDEC'}
data_CdCuH22C26N4(ClO)2
_symmetry_space_group_name_H-M   'P 1'
_cell_length_a   7.21119969
_cell_length_b   14.46430037
_cell_length_c   15.58900518
_cell_angle_alpha   117.64033503
_cell_angle_beta   97.91365145
_cell_angle_gamma   90.00000124
_symmetry_Int_Tables_number   1
_chemical_formula_structural   CdCuH22C26N4(ClO)2
_chemical_formula_sum   'Cd2 Cu2 H44 C52 N8 Cl4 O4'
_cell_volume   1422.94270955
_cell_formula_units_Z   2
loop_
 _symmetry_equiv_pos_site_id
 _symmetry_equiv_pos_as_xyz
  1  'x, y, z'
loop_
 _atom_site_label
 _atom_site_fract_x
 _atom_site_fract_y
 _atom_site_fract_z
 _atom_site_charge
 Cd 0.25 0.94025 0.0   0.801258
 Cd 0.75 0.05975 0.0   0.801258
 Cu 0.5 0.5 0.5   0.766004
 Cu 0.0 0.0 0.5   0.73836
 H 0.4843 0.6917 0.3456   0.11566
 H 0.5366 0.8678 0.406   0.073087
 H 0.6271 0.976 0.57   0.084652
 H 0.6801 0.9053 0.6764   0.086067
 H 0.6853 0.7637 0.7098   0.058074
 H 0.7445 0.6548 0.765   0.066326
 H 0.6666 0.5372 0.7052   0.081888
 H 0.3295 0.492 0.702   0.101519
 H 0.0718 0.5408 0.7844   0.122989
 H 0.065 0.709 0.9044   0.067315
 H 0.5505 0.7852 0.8628   0.059907
 H 0.0157 0.3461 0.6544   0.1155
 H 0.9634 0.4618 0.594   0.072774
 H 0.8729 0.406 0.43   0.084553
 H 0.8199 0.2289 0.3236   0.086782
 H 0.8147 0.0539 0.2902   0.059629
 H 0.7555 0.8898 0.235   0.066529
 H 0.8334 0.832 0.2948   0.081922
 H 0.1705 0.79 0.298   0.101506
 H 0.4282 0.7564 0.2156   0.123607
 H 0.435 0.8046 0.0956   0.067598
 H 0.9495 0.9224 0.1372   0.059863
 H 0.5157 0.3083 0.6544   0.11566
 H 0.4634 0.1322 0.594   0.073088
 H 0.3729 0.024 0.43   0.084652
 H 0.3199 0.0947 0.3236   0.086067
 H 0.3147 0.2363 0.2902   0.058074
 H 0.2555 0.3452 0.235   0.066326
 H 0.3334 0.4628 0.2948   0.081888
 H 0.6705 0.508 0.298   0.101519
 H 0.9282 0.4592 0.2156   0.122989
 H 0.935 0.291 0.0956   0.067315
 H 0.4495 0.2148 0.1372   0.059907
 H 0.9843 0.6539 0.3456   0.115499
 H 0.0366 0.5382 0.406   0.072774
 H 0.1271 0.594 0.57   0.084553
 H 0.1801 0.7711 0.6764   0.086782
 H 0.1853 0.9461 0.7098   0.059629
 H 0.2445 0.1102 0.765   0.066529
 H 0.1666 0.168 0.7052   0.081921
 H 0.8295 0.21 0.702   0.101506
 H 0.5718 0.2436 0.7844   0.123607
 H 0.565 0.1954 0.9044   0.067598
 H 0.0505 0.0776 0.8628   0.059863
 C 0.5463 0.68534 0.47428   0.398797
 C 0.5224 0.7333 0.4126   -0.27584
 C 0.5537 0.8393 0.4488   0.028929
 C 0.6093 0.904 0.5464   -0.18558
 C 0.6391 0.8615 0.6102   0.007419
 C 0.6085 0.75243 0.57646   -0.232774
 C 0.6365 0.71478 0.64596   0.231995
 C 0.6371 0.60839 0.72178   0.046379
 C 0.4687 0.6341 0.7742   -0.038854
 C 0.3245 0.56037 0.75034   -0.014518
 C 0.1711 0.58961 0.79962   -0.184288
 C 0.1673 0.69069 0.87078   0.152756
 C 0.453 0.73499 0.84638   0.131642
 C 0.9537 0.21106 0.52572   0.39657
 C 0.9776 0.3207 0.5874   -0.27517
 C 0.9463 0.3905 0.5512   0.03054
 C 0.8907 0.3576 0.4536   -0.186412
 C 0.8609 0.2513 0.3898   0.007602
 C 0.8915 0.17597 0.42354   -0.23075
 C 0.8635 0.06882 0.35404   0.227899
 C 0.8629 0.88661 0.27822   0.045272
 C 0.0313 0.8599 0.2258   -0.040172
 C 0.1755 0.81003 0.24966   -0.014313
 C 0.3289 0.78999 0.20038   -0.184662
 C 0.3327 0.81991 0.12922   0.151895
 C 0.047 0.88861 0.15362   0.131587
 C 0.4537 0.31466 0.52572   0.398797
 C 0.4776 0.2667 0.5874   -0.275841
 C 0.4463 0.1607 0.5512   0.028929
 C 0.3907 0.096 0.4536   -0.185581
 C 0.3609 0.1385 0.3898   0.007419
 C 0.3915 0.24757 0.42354   -0.232774
 C 0.3635 0.28522 0.35404   0.231995
 C 0.3629 0.39161 0.27822   0.046379
 C 0.5313 0.3659 0.2258   -0.038853
 C 0.6755 0.43963 0.24966   -0.014518
 C 0.8289 0.41039 0.20038   -0.184288
 C 0.8327 0.30931 0.12922   0.152755
 C 0.547 0.26501 0.15362   0.131641
 C 0.0463 0.78894 0.47428   0.39657
 C 0.0224 0.6793 0.4126   -0.27517
 C 0.0537 0.6095 0.4488   0.03054
 C 0.1093 0.6424 0.5464   -0.186412
 C 0.1391 0.7487 0.6102   0.007602
 C 0.1085 0.82403 0.57646   -0.23075
 C 0.1365 0.93118 0.64596   0.227899
 C 0.1371 0.11339 0.72178   0.045272
 C 0.9687 0.1401 0.7742   -0.040172
 C 0.8245 0.18997 0.75034   -0.014312
 C 0.6711 0.21001 0.79962   -0.184662
 C 0.6673 0.18009 0.87078   0.151895
 C 0.953 0.11139 0.84638   0.131587
 N 0.6018 0.61946 0.63112   -0.388452
 N 0.3037 0.76407 0.89394   -0.322044
 N 0.8982 0.98834 0.36888   -0.37759
 N 0.1963 0.87013 0.10606   -0.320946
 N 0.3982 0.38054 0.36888   -0.388452
 N 0.6963 0.23593 0.10606   -0.322044
 N 0.1018 0.01166 0.63112   -0.37759
 N 0.8037 0.12987 0.89394   -0.320946
 Cl 0.09531 0.10924 0.1059   -0.509171
 Cl 0.40469 0.00334 0.8941   -0.508935
 Cl 0.90469 0.89076 0.8941   -0.509171
 Cl 0.59531 0.99666 0.1059   -0.508935
 O 0.5159 0.58429 0.43778   -0.549993
 O 0.9841 0.14651 0.56222   -0.540005
 O 0.4841 0.41571 0.56222   -0.549993
 O 0.0159 0.85349 0.43778   -0.540005
