{'_ref': 'TBD', '_srcid': 'CAKYAQ_clean', 'submitters': [{'name': 'Dalar Nazarian Jeff Camp and David Sholl', 'email': 'dalar@gatech.edu jcamp6@gatech.edu'}], '_method': 'VASP DFT with PBE;DDEC'}
data_CoPH11C12N3O4
_symmetry_space_group_name_H-M   'P 1'
_cell_length_a   5.19529993
_cell_length_b   10.52999993
_cell_length_c   14.26000000
_cell_angle_alpha   74.28999943
_cell_angle_beta   89.02000281
_cell_angle_gamma   82.29999931
_symmetry_Int_Tables_number   1
_chemical_formula_structural   CoPH11C12N3O4
_chemical_formula_sum   'Co2 P2 H22 C24 N6 O8'
_cell_volume   744.051481038
_cell_formula_units_Z   2
loop_
 _symmetry_equiv_pos_site_id
 _symmetry_equiv_pos_as_xyz
  1  'x, y, z'
loop_
 _atom_site_label
 _atom_site_fract_x
 _atom_site_fract_y
 _atom_site_fract_z
 _atom_site_charge
 Co 0.0 0.5 0.5   0.942117
 Co 0.5 0.0 0.5   0.964794
 P 0.91156 0.1973 0.47403   1.402602
 P 0.08844 0.8027 0.52597   1.402609
 H 0.371 0.9464 0.3292   0.41699
 H 0.0781 0.2808 0.275   0.102796
 H 0.9869 0.2277 0.1325   0.082356
 H 0.6876 0.0827 0.1337   0.142303
 H 0.0796 0.2453 0.7005   0.107296
 H 0.7816 0.2127 0.836   0.135192
 H 0.563 0.564 0.6536   0.106624
 H 0.2501 0.4944 0.7879   0.105619
 H 0.2904 0.3438 0.8462   0.083829
 H 0.7112 0.5767 0.8621   0.088905
 H 0.2084 0.3581 0.0029   0.088294
 H 0.629 0.0536 0.6708   0.416992
 H 0.9219 0.7192 0.725   0.102824
 H 0.0131 0.7723 0.8675   0.082358
 H 0.3124 0.9173 0.8663   0.1423
 H 0.9204 0.7547 0.2995   0.107297
 H 0.2184 0.7873 0.164   0.135191
 H 0.437 0.436 0.3464   0.106628
 H 0.7499 0.5056 0.2121   0.105631
 H 0.7096 0.6562 0.1538   0.083829
 H 0.2888 0.4233 0.1379   0.088912
 H 0.7916 0.6419 0.9971   0.088287
 C 0.8319 0.1674 0.3577   -0.007445
 C 0.9581 0.2229 0.2745   -0.15326
 C 0.9034 0.1911 0.1898   0.024665
 C 0.7253 0.1054 0.1901   -0.325315
 C 0.6039 0.0536 0.2763   0.5345
 C 0.9383 0.3058 0.7079   0.066444
 C 0.7747 0.2874 0.7828   -0.175627
 C 0.656 0.4808 0.6819   0.164657
 C 0.3746 0.4236 0.8267   -0.063055
 C 0.4458 0.4613 0.9172   0.036657
 C 0.6211 0.5444 0.9186   -0.122235
 C 0.3286 0.4171 0.9997   -0.111886
 C 0.1681 0.8326 0.6423   -0.007442
 C 0.0419 0.7771 0.7255   -0.153272
 C 0.0966 0.8089 0.8102   0.024681
 C 0.2747 0.8946 0.8099   -0.325306
 C 0.3961 0.9464 0.7237   0.534499
 C 0.0617 0.6942 0.2921   0.066444
 C 0.2253 0.7126 0.2172   -0.175627
 C 0.344 0.5192 0.3181   0.164655
 C 0.6254 0.5764 0.1733   -0.063058
 C 0.5542 0.5387 0.0828   0.03664
 C 0.3789 0.4556 0.0814   -0.122159
 C 0.6714 0.5829 0.000300000000003   -0.111818
 N 0.6516 0.0849 0.35853   -0.365162
 N 0.8631 0.4292 0.64348   -0.413773
 N 0.596 0.3995 0.7663   0.048357
 N 0.3484 0.9151 0.64147   -0.365163
 N 0.1369 0.5708 0.35652   -0.413773
 N 0.404 0.6005 0.2337   0.048357
 O 0.8285 0.34445 0.46493   -0.830421
 O 0.754 0.10629 0.54753   -0.778329
 O 0.2039 0.16184 0.48837   -0.797164
 O 0.4364 0.9683 0.27549   -0.547963
 O 0.1715 0.65555 0.53507   -0.830422
 O 0.246 0.89371 0.45247   -0.77833
 O 0.7961 0.83816 0.51163   -0.797165
 O 0.5636 0.0317 0.72451   -0.547964
