{'_ref': 'TBD', '_srcid': 'CAKYAQ_clean', 'submitters': [{'name': 'Dalar Nazarian Jeff Camp and David Sholl', 'email': 'dalar@gatech.edu jcamp6@gatech.edu'}], '_method': 'VASP DFT with PBE;DDEC'}
data_Ag2PH12C6SN3
_symmetry_space_group_name_H-M   'P 1'
_cell_length_a   9.54749992
_cell_length_b   11.44000000
_cell_length_c   13.20920000
_cell_angle_alpha   90.00000000
_cell_angle_beta   109.97400180
_cell_angle_gamma   90.00000000
_symmetry_Int_Tables_number   1
_chemical_formula_structural   Ag2PH12C6SN3
_chemical_formula_sum   'Ag8 P4 H48 C24 S4 N12'
_cell_volume   1355.9687925
_cell_formula_units_Z   4
loop_
 _symmetry_equiv_pos_site_id
 _symmetry_equiv_pos_as_xyz
  1  'x, y, z'
loop_
 _atom_site_label
 _atom_site_fract_x
 _atom_site_fract_y
 _atom_site_fract_z
 _atom_site_charge
 Ag 0.98325 0.27836 0.62728   -0.107346
 Ag 0.44741 0.22008 0.85547   -0.285048
 Ag 0.41368 0.7298 0.39374   -0.172895
 Ag 0.07082 0.14702 0.91383   -0.174779
 Ag 0.01675 0.77836 0.37272   -0.107143
 Ag 0.55259 0.72008 0.14453   -0.285333
 Ag 0.58632 0.2298 0.60626   -0.172979
 Ag 0.92918 0.64702 0.08617   -0.174778
 P 0.19736 0.44898 0.88594   0.564898
 P 0.18829 0.48041 0.38441   0.577678
 P 0.80264 0.94898 0.11406   0.564904
 P 0.81171 0.98041 0.61559   0.577686
 H 0.0416 0.5502 0.7344   0.096771
 H 0.2125 0.5626 0.7418   0.116367
 H 0.4522 0.499 0.9438   0.097544
 H 0.4096 0.4501 0.0436   0.122976
 H 0.0946 0.4253 0.0235   0.120804
 H 0.9663 0.4614 0.913   0.106435
 H 0.2711 0.5705 0.1256   0.057048
 H 0.2455 0.7065 0.0976   0.048652
 H 0.0481 0.7634 0.9247   0.063101
 H 0.9497 0.6627 0.8498   0.060914
 H 0.3763 0.6908 0.8747   0.058274
 H 0.3109 0.7823 0.9385   0.047303
 H 0.9798 0.4704 0.4409   0.096665
 H 0.1253 0.5061 0.5405   0.127879
 H 0.4206 0.4811 0.5262   0.116749
 H 0.4405 0.4303 0.4185   0.09115
 H 0.1755 0.3626 0.2368   0.12213
 H 0.0131 0.3757 0.2464   0.103407
 H 0.279 0.2257 0.603   0.041091
 H 0.3091 0.3618 0.6282   0.045761
 H 0.949 0.2666 0.3772   0.053652
 H 0.0565 0.1666 0.4464   0.067593
 H 0.3063 0.146 0.4329   0.043278
 H 0.3545 0.2347 0.3572   0.053835
 H 0.9584 0.0502 0.2656   0.09678
 H 0.7875 0.0626 0.2582   0.116394
 H 0.5478 0.999 0.0562   0.097536
 H 0.5904 0.9501 0.9564   0.122987
 H 0.9054 0.9253 0.9765   0.120827
 H 0.0337 0.9614 0.087   0.106453
 H 0.7289 0.0705 0.8744   0.057047
 H 0.7545 0.2065 0.9024   0.048658
 H 0.9519 0.2634 0.0753   0.063157
 H 0.0503 0.1627 0.1502   0.060914
 H 0.6237 0.1908 0.1253   0.058348
 H 0.6891 0.2823 0.0615   0.047279
 H 0.0202 0.9704 0.5591   0.09671
 H 0.8747 0.0061 0.4595   0.127898
 H 0.5794 0.9811 0.4738   0.116767
 H 0.5595 0.9303 0.5815   0.091159
 H 0.8245 0.8626 0.7632   0.122146
 H 0.9869 0.8757 0.7536   0.103429
 H 0.721 0.7257 0.397   0.041114
 H 0.6909 0.8618 0.3718   0.045763
 H 0.051 0.7666 0.6228   0.053686
 H 0.9435 0.6666 0.5536   0.067644
 H 0.6937 0.646 0.5671   0.043271
 H 0.6455 0.7347 0.6428   0.053884
 C 0.1447 0.563 0.7842   -0.218866
 C 0.3758 0.5007 0.979   -0.248738
 C 0.0703 0.4771 0.9597   -0.273479
 C 0.2424 0.6278 0.0658   0.038157
 C 0.0507 0.682 0.8999   0.075598
 C 0.3057 0.7 0.9143   0.090826
 C 0.0872 0.454 0.4771   -0.26618
 C 0.3759 0.4293 0.4633   -0.252995
 C 0.1201 0.3635 0.2879   -0.237749
 C 0.2699 0.304 0.5695   0.047865
 C 0.054 0.2473 0.4187   0.081493
 C 0.2967 0.2276 0.4065   0.084942
 C 0.8553 0.063 0.2158   -0.218881
 C 0.6242 0.000700000000002 0.021   -0.248738
 C 0.9297 0.9771 0.0403   -0.273495
 C 0.7576 0.1278 0.9342   0.038155
 C 0.9493 0.182 0.1001   0.075582
 C 0.6943 0.2 0.0857   0.090811
 C 0.9128 0.954 0.5229   -0.266202
 C 0.6241 0.9293 0.5367   -0.253006
 C 0.8799 0.8635 0.7121   -0.237765
 C 0.7301 0.804 0.4305   0.047857
 C 0.946 0.7473 0.5813   0.081468
 C 0.7033 0.7276 0.5935   0.084929
 S 0.19045 0.28596 0.82719   -0.252631
 S 0.16997 0.63589 0.31111   -0.303165
 S 0.80955 0.78596 0.17281   -0.252624
 S 0.83003 0.13589 0.68889   -0.303147
 N 0.1554 0.6759 0.8411   -0.256832
 N 0.3533 0.6229 0.01003   -0.053303
 N 0.0868 0.6028 0.9945   -0.05544
 N 0.1093 0.329 0.51178   -0.072958
 N 0.3628 0.3075 0.5003   -0.046943
 N 0.1409 0.2515 0.3466   -0.241597
 N 0.8446 0.1759 0.1589   -0.256821
 N 0.6467 0.1229 0.98997   -0.053312
 N 0.9132 0.1028 0.0055   -0.05543
 N 0.8907 0.829 0.48822   -0.072957
 N 0.6372 0.8075 0.4997   -0.04694
 N 0.8591 0.7515 0.6534   -0.241585
