{'_ref': 'TBD', '_srcid': 'CAKYAQ_clean', 'submitters': [{'name': 'Dalar Nazarian Jeff Camp and David Sholl', 'email': 'dalar@gatech.edu jcamp6@gatech.edu'}], '_method': 'VASP DFT with PBE;DDEC'}
data_AgPH12C6SN3
_symmetry_space_group_name_H-M   'P 1'
_cell_length_a   8.02900000
_cell_length_b   9.85490000
_cell_length_c   14.37760000
_cell_angle_alpha   90.00000000
_cell_angle_beta   90.00000000
_cell_angle_gamma   90.00000000
_symmetry_Int_Tables_number   1
_chemical_formula_structural   AgPH12C6SN3
_chemical_formula_sum   'Ag4 P4 H48 C24 S4 N12'
_cell_volume   1137.62748642
_cell_formula_units_Z   4
loop_
 _symmetry_equiv_pos_site_id
 _symmetry_equiv_pos_as_xyz
  1  'x, y, z'
loop_
 _atom_site_label
 _atom_site_fract_x
 _atom_site_fract_y
 _atom_site_fract_z
 _atom_site_charge
 Ag 0.83562 0.20932 0.83698   -0.289735
 Ag 0.66438 0.79068 0.33698   -0.289736
 Ag 0.16438 0.70932 0.66302   -0.289735
 Ag 0.33562 0.29068 0.16302   -0.289736
 P 0.74465 0.99018 0.02471   0.611622
 P 0.75535 0.00982 0.52471   0.611614
 P 0.25535 0.49018 0.47529   0.611611
 P 0.24465 0.50982 0.97529   0.611603
 H 0.8538 0.9661 0.1745   0.086123
 H 0.8352 0.8225 0.1279   0.11283
 H 0.5746 0.1793 0.0036   0.090246
 H 0.6843 0.1988 0.0931   0.125118
 H 0.6354 0.7896 0.9616   0.126292
 H 0.5441 0.9156 0.9177   0.085764
 H 0.4398 0.0037 0.2435   0.059298
 H 0.6103 0.08 0.2356   0.075708
 H 0.336 0.035 0.0062   0.07988
 H 0.2678 0.9751 0.0997   0.045111
 H 0.4111 0.778 0.1682   0.072041
 H 0.5655 0.7173 0.1162   0.059361
 H 0.6462 0.0339 0.6745   0.08609
 H 0.6648 0.1775 0.6279   0.112827
 H 0.9254 0.8207 0.5036   0.090246
 H 0.8157 0.8012 0.5931   0.125118
 H 0.8646 0.2104 0.4616   0.126289
 H 0.9559 0.0844 0.4177   0.085713
 H 0.0602 0.9963 0.7435   0.059284
 H 0.8897 0.92 0.7356   0.075701
 H 0.164 0.965 0.5062   0.079876
 H 0.2322 0.0249 0.5997   0.045111
 H 0.0889 0.222 0.6682   0.072041
 H 0.9345 0.2827 0.6162   0.05936
 H 0.1462 0.4661 0.3255   0.086121
 H 0.1648 0.3225 0.3721   0.112805
 H 0.4254 0.6793 0.4964   0.090239
 H 0.3157 0.6988 0.4069   0.125076
 H 0.3646 0.2896 0.5384   0.126269
 H 0.4559 0.4156 0.5823   0.08574
 H 0.5602 0.5037 0.2565   0.05928
 H 0.3897 0.58 0.2644   0.075682
 H 0.664 0.535 0.4938   0.079862
 H 0.7322 0.4751 0.4003   0.045106
 H 0.5889 0.278 0.3318   0.071992
 H 0.4345 0.2173 0.3838   0.059348
 H 0.3538 0.5339 0.8255   0.086088
 H 0.3352 0.6775 0.8721   0.112802
 H 0.0746 0.3207 0.9964   0.090239
 H 0.1843 0.3012 0.9069   0.125075
 H 0.1354 0.7104 0.0384   0.126266
 H 0.0441 0.5844 0.0823   0.08569
 H 0.9398 0.4963 0.7565   0.059266
 H 0.1103 0.42 0.7644   0.075675
 H 0.836 0.465 0.9938   0.079859
 H 0.7678 0.5249 0.9003   0.045106
 H 0.9111 0.722 0.8318   0.071992
 H 0.0655 0.7827 0.8838   0.059347
 C 0.7811 0.90955 0.13701   -0.268667
 C 0.6169 0.13423 0.05877   -0.253613
 C 0.587 0.8776 0.9752   -0.203373
 C 0.5344 0.01988 0.2031   0.046639
 C 0.3684 0.99265 0.06435   0.079014
 C 0.5074 0.80102 0.13064   0.078577
 C 0.7189 0.09045 0.63701   -0.268653
 C 0.8831 0.86577 0.55877   -0.253611
 C 0.913 0.1224 0.4752   -0.203352
 C 0.9656 0.98012 0.7031   0.046646
 C 0.1316 0.00735 0.56435   0.079016
 C 0.9926 0.19898 0.63064   0.078578
 C 0.2189 0.40955 0.36299   -0.268655
 C 0.3831 0.63423 0.44123   -0.253592
 C 0.413 0.3776 0.5248   -0.203354
 C 0.4656 0.51988 0.2969   0.046654
 C 0.6316 0.49265 0.43565   0.079022
 C 0.4926 0.30102 0.36936   0.078597
 C 0.2811 0.59045 0.86299   -0.26864
 C 0.1169 0.36577 0.94123   -0.253591
 C 0.087 0.6224 0.0248   -0.203334
 C 0.0344 0.48012 0.7969   0.046661
 C 0.8684 0.50735 0.93565   0.079024
 C 0.0074 0.69898 0.86936   0.078598
 S 0.94743 0.03613 0.95491   -0.408852
 S 0.55257 0.96387 0.45491   -0.408851
 S 0.05257 0.53613 0.54509   -0.408851
 S 0.44743 0.46387 0.04509   -0.40885
 N 0.61953 0.88974 0.18585   -0.070773
 N 0.47528 0.08881 0.11759   -0.066001
 N 0.45044 0.8629 0.04395   -0.272468
 N 0.88047 0.11026 0.68585   -0.070778
 N 0.02472 0.91119 0.61759   -0.066004
 N 0.04956 0.1371 0.54395   -0.272472
 N 0.38047 0.38974 0.31415   -0.070783
 N 0.52472 0.58881 0.38241   -0.066011
 N 0.54956 0.3629 0.45605   -0.272477
 N 0.11953 0.61026 0.81415   -0.070788
 N 0.97528 0.41119 0.88241   -0.066013
 N 0.95044 0.6371 0.95605   -0.272482
