{'_ref': 'TBD', '_srcid': 'CAKYAQ_clean', 'submitters': [{'name': 'Dalar Nazarian Jeff Camp and David Sholl', 'email': 'dalar@gatech.edu jcamp6@gatech.edu'}], '_method': 'VASP DFT with PBE;DDEC'}
data_ZnH3C8O5
_symmetry_space_group_name_H-M   'P 1'
_cell_length_a   12.92560000
_cell_length_b   14.55500000
_cell_length_c   16.78399984
_cell_angle_alpha   108.56500089
_cell_angle_beta   90.00000000
_cell_angle_gamma   90.00000000
_symmetry_Int_Tables_number   1
_chemical_formula_structural   ZnH3C8O5
_chemical_formula_sum   'Zn8 H24 C64 O40'
_cell_volume   2993.29697513
_cell_formula_units_Z   8
loop_
 _symmetry_equiv_pos_site_id
 _symmetry_equiv_pos_as_xyz
  1  'x, y, z'
loop_
 _atom_site_label
 _atom_site_fract_x
 _atom_site_fract_y
 _atom_site_fract_z
 _atom_site_charge
 Zn 0.51378 0.81972 0.8179   1.062938
 Zn 0.44707 0.09925 0.34551   1.044001
 Zn 0.01378 0.68028 0.1821   1.062938
 Zn 0.94707 0.40075 0.65449   1.044001
 Zn 0.48622 0.18028 0.1821   1.062938
 Zn 0.55293 0.90075 0.65449   1.044001
 Zn 0.98622 0.31972 0.8179   1.062938
 Zn 0.05293 0.59925 0.34551   1.044001
 H 0.3308 0.7167 0.5015   0.139087
 H 0.0746 0.5644 0.5091   0.125856
 H 0.2619 0.6482 0.7104   0.12445
 H 0.2375 0.7801 0.0428   0.117478
 H 0.2728 0.9843 0.2676   0.125349
 H 0.4405 0.9964 0.0692   0.127989
 H 0.8308 0.7833 0.4985   0.139087
 H 0.5746 0.9356 0.4909   0.125856
 H 0.7619 0.8518 0.2896   0.12445
 H 0.7375 0.7199 0.9572   0.117478
 H 0.7728 0.5157 0.7324   0.125349
 H 0.9405 0.5036 0.9308   0.127989
 H 0.6692 0.2833 0.4985   0.139086
 H 0.9254 0.4356 0.4909   0.125856
 H 0.7381 0.3518 0.2896   0.12445
 H 0.7625 0.2199 0.9572   0.117478
 H 0.7272 0.0157 0.7324   0.125349
 H 0.5595 0.0036 0.9308   0.127989
 H 0.1692 0.2167 0.5015   0.139086
 H 0.4254 0.0644 0.5091   0.125856
 H 0.2381 0.1482 0.7104   0.12445
 H 0.2625 0.2801 0.0428   0.117478
 H 0.2272 0.4843 0.2676   0.125349
 H 0.0595 0.4964 0.0692   0.127989
 C 0.4005 0.7506 0.6571   0.730898
 C 0.3092 0.6941 0.6135   -0.14526
 C 0.286 0.6886 0.5305   -0.080734
 C 0.1968 0.6417 0.4905   0.355927
 C 0.134 0.5966 0.5347   -0.117383
 C 0.1574 0.5983 0.6154   -0.10839
 C 0.0943 0.5413 0.6593   0.65859
 C 0.2457 0.6471 0.6561   0.077569
 C 0.3782 0.8357 0.9526   0.644688
 C 0.3443 0.8825 0.0423   -0.09469
 C 0.2694 0.8363 0.0764   0.023573
 C 0.2432 0.8749 0.1605   -0.091499
 C 0.1623 0.8244 0.1966   0.660791
 C 0.2911 0.9588 0.2112   -0.155686
 C 0.3663 0.0047 0.1777   0.3629
 C 0.3914 0.9657 0.0924   -0.127487
 C 0.9005 0.7494 0.3429   0.730898
 C 0.8092 0.8059 0.3865   -0.14526
 C 0.786 0.8114 0.4695   -0.080734
 C 0.6968 0.8583 0.5095   0.355927
 C 0.634 0.9034 0.4653   -0.117383
 C 0.6574 0.9017 0.3846   -0.10839
 C 0.5943 0.9587 0.3407   0.658589
 C 0.7457 0.8529 0.3439   0.077569
 C 0.8782 0.6643 0.0474   0.644688
 C 0.8443 0.6175 0.9577   -0.09469
 C 0.7694 0.6637 0.9236   0.023572
 C 0.7432 0.6251 0.8395   -0.091499
 C 0.6623 0.6756 0.8034   0.66079
 C 0.7911 0.5412 0.7888   -0.155686
 C 0.8663 0.4953 0.8223   0.3629
 C 0.8914 0.5343 0.9076   -0.127487
 C 0.5995 0.2494 0.3429   0.730898
 C 0.6908 0.3059 0.3865   -0.145261
 C 0.714 0.3114 0.4695   -0.080734
 C 0.8032 0.3583 0.5095   0.355927
 C 0.866 0.4034 0.4653   -0.117382
 C 0.8426 0.4017 0.3846   -0.10839
 C 0.9057 0.4587 0.3407   0.65859
 C 0.7543 0.3529 0.3439   0.077569
 C 0.6218 0.1643 0.0474   0.644688
 C 0.6557 0.1175 0.9577   -0.09469
 C 0.7306 0.1637 0.9236   0.023572
 C 0.7568 0.1251 0.8395   -0.091499
 C 0.8377 0.1756 0.8034   0.66079
 C 0.7089 0.0412 0.7888   -0.155687
 C 0.6337 0.9953 0.8223   0.3629
 C 0.6086 0.0343 0.9076   -0.127487
 C 0.0995 0.2506 0.6571   0.730898
 C 0.1908 0.1941 0.6135   -0.145261
 C 0.214 0.1886 0.5305   -0.080734
 C 0.3032 0.1417 0.4905   0.355927
 C 0.366 0.0966 0.5347   -0.117383
 C 0.3426 0.0983 0.6154   -0.10839
 C 0.4057 0.0413 0.6593   0.658589
 C 0.2543 0.1471 0.6561   0.077568
 C 0.1218 0.3357 0.9526   0.644688
 C 0.1557 0.3825 0.0423   -0.09469
 C 0.2306 0.3363 0.0764   0.023571
 C 0.2568 0.3749 0.1605   -0.091499
 C 0.3377 0.3244 0.1966   0.66079
 C 0.2089 0.4588 0.2112   -0.155687
 C 0.1337 0.5047 0.1777   0.3629
 C 0.1086 0.4657 0.0924   -0.127487
 O 0.4578 0.789 0.616   -0.615697
 O 0.4141 0.7553 0.7318   -0.593756
 O 0.1771 0.6416 0.4119   -0.466608
 O 0.0118 0.5041 0.6222   -0.612115
 O 0.1239 0.5322 0.7257   -0.500865
 O 0.442 0.8829 0.9236   -0.566281
 O 0.3464 0.7542 0.9115   -0.436978
 O 0.1177 0.753 0.145   -0.585564
 O 0.1405 0.8542 0.2712   -0.481129
 O 0.4152 0.0858 0.2275   -0.601961
 O 0.9578 0.711 0.384   -0.615697
 O 0.9141 0.7447 0.2682   -0.593756
 O 0.6771 0.8584 0.5881   -0.466608
 O 0.5118 0.9959 0.3778   -0.612115
 O 0.6239 0.9678 0.2743   -0.500865
 O 0.942 0.6171 0.0764   -0.566281
 O 0.8464 0.7458 0.0885   -0.436978
 O 0.6177 0.747 0.855   -0.585564
 O 0.6405 0.6458 0.7288   -0.481129
 O 0.9152 0.4142 0.7725   -0.601961
 O 0.5422 0.211 0.384   -0.615697
 O 0.5859 0.2447 0.2682   -0.593756
 O 0.8229 0.3584 0.5881   -0.466608
 O 0.9882 0.4959 0.3778   -0.612115
 O 0.8761 0.4678 0.2743   -0.500865
 O 0.558 0.1171 0.0764   -0.566281
 O 0.6536 0.2458 0.0885   -0.436978
 O 0.8823 0.247 0.855   -0.585564
 O 0.8595 0.1458 0.7288   -0.481129
 O 0.5848 0.9142 0.7725   -0.601961
 O 0.0422 0.289 0.616   -0.615697
 O 0.0859 0.2553 0.7318   -0.593756
 O 0.3229 0.1416 0.4119   -0.466608
 O 0.4882 0.0041 0.6222   -0.612115
 O 0.3761 0.0322 0.7257   -0.500865
 O 0.058 0.3829 0.9236   -0.566281
 O 0.1536 0.2542 0.9115   -0.436978
 O 0.3823 0.253 0.145   -0.585564
 O 0.3595 0.3542 0.2712   -0.481129
 O 0.0848 0.5858 0.2275   -0.601961
