{'_ref': 'TBD', '_srcid': 'CAKYAQ_clean', 'submitters': [{'name': 'Dalar Nazarian Jeff Camp and David Sholl', 'email': 'dalar@gatech.edu jcamp6@gatech.edu'}], '_method': 'VASP DFT with PBE;DDEC'}
data_ZnH6(C3O)4
_symmetry_space_group_name_H-M   'P 1'
_cell_length_a   10.67299959
_cell_length_b   12.10060000
_cell_length_c   12.10060000
_cell_angle_alpha   83.89350005
_cell_angle_beta   75.42919771
_cell_angle_gamma   75.42900089
_symmetry_Int_Tables_number   1
_chemical_formula_structural   ZnH6(C3O)4
_chemical_formula_sum   'Zn4 H24 C48 O16'
_cell_volume   1462.32835414
_cell_formula_units_Z   4
loop_
 _symmetry_equiv_pos_site_id
 _symmetry_equiv_pos_as_xyz
  1  'x, y, z'
loop_
 _atom_site_label
 _atom_site_fract_x
 _atom_site_fract_y
 _atom_site_fract_z
 _atom_site_charge
 Zn 0.25 0.88612 0.11388   1.006586
 Zn 0.75 0.11388 0.88612   1.006586
 Zn 0.0 0.0 0.0   1.123212
 Zn 0.5 0.0 0.0   1.12321
 H 0.9108 0.1848 0.1846   0.089222
 H 0.7736 0.3602 0.212   0.115677
 H 0.2322 0.3219 0.0927   0.111437
 H 0.1982 0.5347 0.0991   0.111482
 H 0.8271 0.7315 0.1571   0.09947
 H 0.7379 0.5731 0.1987   0.122264
 H 0.5892 0.8154 0.8152   0.089221
 H 0.7264 0.788 0.6398   0.115675
 H 0.2678 0.9073 0.6781   0.111442
 H 0.3018 0.9009 0.4653   0.111483
 H 0.6729 0.8429 0.2685   0.099467
 H 0.7621 0.8013 0.4269   0.122266
 H 0.0892 0.8152 0.8154   0.089221
 H 0.2264 0.6398 0.788   0.115677
 H 0.7678 0.6781 0.9073   0.111436
 H 0.8018 0.4653 0.9009   0.111482
 H 0.1729 0.2685 0.8429   0.09947
 H 0.2621 0.4269 0.8013   0.122263
 H 0.4108 0.1846 0.1848   0.08922
 H 0.2736 0.212 0.3602   0.115674
 H 0.7322 0.0927 0.3219   0.111442
 H 0.6982 0.0991 0.5347   0.111482
 H 0.3271 0.1571 0.7315   0.099467
 H 0.2379 0.1987 0.5731   0.122266
 C 0.1794 0.1205 0.1039   0.717003
 C 0.0887 0.2363 0.1315   -0.165914
 C 0.9467 0.2497 0.1707   -0.019959
 C 0.866 0.3532 0.1876   -0.148541
 C 0.9171 0.453 0.1696   0.0746
 C 0.0551 0.442 0.1364   0.010648
 C 0.1395 0.3303 0.1165   -0.053152
 C 0.1057 0.5417 0.1195   -0.06089
 C 0.0729 0.7546 0.112   0.701135
 C 0.023 0.6468 0.132   -0.143515
 C 0.884 0.6581 0.1561   -0.032365
 C 0.8307 0.5643 0.1781   -0.15283
 C 0.3206 0.8961 0.8795   0.716987
 C 0.4113 0.8685 0.7637   -0.165911
 C 0.5533 0.8293 0.7503   -0.019949
 C 0.634 0.8124 0.6468   -0.148538
 C 0.5829 0.8304 0.547   0.074575
 C 0.4449 0.8636 0.558   0.010667
 C 0.3605 0.8835 0.6697   -0.053175
 C 0.3943 0.8805 0.4583   -0.060892
 C 0.4271 0.888 0.2454   0.701144
 C 0.477 0.868 0.3532   -0.143523
 C 0.616 0.8439 0.3419   -0.032357
 C 0.6693 0.8219 0.4357   -0.152816
 C 0.8206 0.8795 0.8961   0.717003
 C 0.9113 0.7637 0.8685   -0.165914
 C 0.0533 0.7503 0.8293   -0.019959
 C 0.134 0.6468 0.8124   -0.148542
 C 0.0829 0.547 0.8304   0.0746
 C 0.9449 0.558 0.8636   0.010648
 C 0.8605 0.6697 0.8835   -0.053152
 C 0.8943 0.4583 0.8805   -0.06089
 C 0.9271 0.2454 0.888   0.701135
 C 0.977 0.3532 0.868   -0.143515
 C 0.116 0.3419 0.8439   -0.032365
 C 0.1693 0.4357 0.8219   -0.15283
 C 0.6794 0.1039 0.1205   0.716987
 C 0.5887 0.1315 0.2363   -0.165911
 C 0.4467 0.1707 0.2497   -0.019949
 C 0.366 0.1876 0.3532   -0.148538
 C 0.4171 0.1696 0.453   0.074575
 C 0.5551 0.1364 0.442   0.010667
 C 0.6395 0.1165 0.3303   -0.053175
 C 0.6057 0.1195 0.5417   -0.060892
 C 0.5729 0.112 0.7546   0.701144
 C 0.523 0.132 0.6468   -0.143523
 C 0.384 0.1561 0.6581   -0.032357
 C 0.3307 0.1781 0.5643   -0.152816
 O 0.1203 0.0365 0.1161   -0.663662
 O 0.1878 0.7458 0.121   -0.56885
 O 0.9924 0.847 0.0904   -0.629952
 O 0.3007 0.1099 0.0749   -0.578204
 O 0.3797 0.8839 0.9635   -0.663654
 O 0.3122 0.879 0.2542   -0.568854
 O 0.5076 0.9096 0.153   -0.62995
 O 0.1993 0.9251 0.8901   -0.578201
 O 0.8797 0.9635 0.8839   -0.663662
 O 0.8122 0.2542 0.879   -0.56885
 O 0.0076 0.153 0.9096   -0.629953
 O 0.6993 0.8901 0.9251   -0.578204
 O 0.6203 0.1161 0.0365   -0.663654
 O 0.6878 0.121 0.7458   -0.568854
 O 0.4924 0.0904 0.847   -0.629951
 O 0.8007 0.0749 0.1099   -0.578201
