{'_ref': 'TBD', '_srcid': 'CAKYAQ_clean', 'submitters': [{'name': 'Dalar Nazarian Jeff Camp and David Sholl', 'email': 'dalar@gatech.edu jcamp6@gatech.edu'}], '_method': 'VASP DFT with PBE;DDEC'}
data_Mn3H10C22(NO2)4
_symmetry_space_group_name_H-M   'P 1'
_cell_length_a   14.23240017
_cell_length_b   15.47770000
_cell_length_c   15.47770008
_cell_angle_alpha   111.04329970
_cell_angle_beta   107.84900180
_cell_angle_gamma   107.84929875
_symmetry_Int_Tables_number   1
_chemical_formula_structural   Mn3H10C22(NO2)4
_chemical_formula_sum   'Mn9 H30 C66 N12 O24'
_cell_volume   2675.31370172
_cell_formula_units_Z   3
loop_
 _symmetry_equiv_pos_site_id
 _symmetry_equiv_pos_as_xyz
  1  'x, y, z'
loop_
 _atom_site_label
 _atom_site_fract_x
 _atom_site_fract_y
 _atom_site_fract_z
 _atom_site_charge
 Mn 0.51056 0.72516 0.24303   1.097009
 Mn 0.7854 0.51787 0.27484   1.097378
 Mn 0.26753 0.75697 0.48213   1.097506
 Mn 0.48944 0.27484 0.75697   1.097009
 Mn 0.2146 0.48213 0.72516   1.097378
 Mn 0.73247 0.24303 0.51787   1.097506
 Mn 0.0 0.0 0.5   1.258069
 Mn 0.0 0.5 0.0   1.258941
 Mn 0.5 0.5 0.5   1.261418
 H 0.4947 0.0814 0.4594   0.090067
 H 0.3156 0.0639 0.4088   0.098467
 H 0.1777 0.9477 0.237   0.099709
 H 0.2154 0.8417 0.1189   0.102409
 H 0.3945 0.8599 0.1682   0.096346
 H 0.4133 0.378 0.9186   0.089691
 H 0.2517 0.3449 0.9361   0.099375
 H 0.23 0.2893 0.0523   0.100299
 H 0.3737 0.2772 0.1583   0.102473
 H 0.5346 0.3083 0.1401   0.096592
 H 0.0353 0.5406 0.622   0.089063
 H 0.9068 0.5912 0.6551   0.098991
 H 0.9407 0.763 0.7107   0.099839
 H 0.0965 0.8811 0.7228   0.102725
 H 0.2263 0.8318 0.6917   0.096534
 H 0.5053 0.9186 0.5406   0.090067
 H 0.6844 0.9361 0.5912   0.098467
 H 0.8223 0.0523 0.763   0.099707
 H 0.7846 0.1583 0.8811   0.102409
 H 0.6055 0.1401 0.8318   0.096345
 H 0.5867 0.622 0.0814   0.089691
 H 0.7483 0.6551 0.0639   0.099375
 H 0.77 0.7107 0.9477   0.100296
 H 0.6263 0.7228 0.8417   0.102473
 H 0.4654 0.6917 0.8599   0.096591
 H 0.9647 0.4594 0.378   0.089063
 H 0.0932 0.4088 0.3449   0.098991
 H 0.0593 0.237 0.2893   0.099837
 H 0.9035 0.1189 0.2772   0.102725
 H 0.7737 0.1682 0.3083   0.096533
 C 0.87138 0.13331 0.49392   0.691193
 C 0.75567 0.04693 0.42289   -0.021676
 C 0.70835 0.93914 0.35854   -0.01857
 C 0.7533 0.86389 0.33071   0.684264
 C 0.57607 0.98117 0.3496   0.452601
 C 0.46311 0.97185 0.31893   -0.083923
 C 0.43899 0.03347 0.39087   -0.073717
 C 0.33165 0.02333 0.36033   -0.082573
 C 0.24872 0.95281 0.25775   -0.096802
 C 0.27178 0.89075 0.18709   -0.084293
 C 0.37912 0.90093 0.21699   -0.074518
 C 0.73807 0.36061 0.86669   0.691503
 C 0.70874 0.37596 0.95307   -0.022954
 C 0.76921 0.4194 0.06086   -0.016597
 C 0.88941 0.46682 0.13611   0.682291
 C 0.5949 0.36843 0.01883   0.45374
 C 0.49126 0.34708 0.02815   -0.084933
 C 0.40552 0.3574 0.96653   -0.072671
 C 0.30832 0.337 0.97667   -0.084217
 C 0.29591 0.30494 0.04719   -0.096378
 C 0.38103 0.29634 0.10925   -0.085573
 C 0.47819 0.31606 0.09907   -0.073768
 C 0.37746 0.50608 0.63939   0.692533
 C 0.33278 0.57711 0.62404   -0.022871
 C 0.34981 0.64146 0.5806   -0.018456
 C 0.42259 0.66929 0.53318   0.684836
 C 0.22647 0.6504 0.63157   0.452706
 C 0.14418 0.68107 0.65292   -0.084701
 C 0.04812 0.60913 0.6426   -0.071379
 C 0.97132 0.63967 0.663   -0.084396
 C 0.99097 0.74225 0.69506   -0.095934
 C 0.08469 0.81291 0.70366   -0.085759
 C 0.16213 0.78301 0.68394   -0.073589
 C 0.12862 0.86669 0.50608   0.691194
 C 0.24433 0.95307 0.57711   -0.021676
 C 0.29165 0.06086 0.64146   -0.01857
 C 0.2467 0.13611 0.66929   0.684265
 C 0.42393 0.01883 0.6504   0.452601
 C 0.53689 0.02815 0.68107   -0.083924
 C 0.56101 0.96653 0.60913   -0.073716
 C 0.66835 0.97667 0.63967   -0.082574
 C 0.75128 0.04719 0.74225   -0.096801
 C 0.72822 0.10925 0.81291   -0.084293
 C 0.62088 0.09907 0.78301   -0.074518
 C 0.26193 0.63939 0.13331   0.691503
 C 0.29126 0.62404 0.04693   -0.022954
 C 0.23079 0.5806 0.93914   -0.016597
 C 0.11059 0.53318 0.86389   0.682291
 C 0.4051 0.63157 0.98117   0.453741
 C 0.50874 0.65292 0.97185   -0.084933
 C 0.59448 0.6426 0.03347   -0.072671
 C 0.69168 0.663 0.02333   -0.084217
 C 0.70409 0.69506 0.95281   -0.096377
 C 0.61897 0.70366 0.89075   -0.085574
 C 0.52181 0.68394 0.90093   -0.073768
 C 0.62254 0.49392 0.36061   0.692534
 C 0.66722 0.42289 0.37596   -0.022871
 C 0.65019 0.35854 0.4194   -0.018456
 C 0.57741 0.33071 0.46682   0.684836
 C 0.77353 0.3496 0.36843   0.452706
 C 0.85582 0.31893 0.34708   -0.084702
 C 0.95188 0.39087 0.3574   -0.071379
 C 0.02868 0.36033 0.337   -0.084396
 C 0.00903 0.25775 0.30494   -0.095933
 C 0.91531 0.18709 0.29634   -0.085759
 C 0.83787 0.21699 0.31606   -0.073589
 N 0.5944 0.89828 0.31318   -0.49689
 N 0.67032 0.07262 0.41631   -0.510757
 N 0.69612 0.4149 0.10172   -0.497822
 N 0.5977 0.34369 0.92738   -0.510533
 N 0.28122 0.68682 0.5851   -0.496525
 N 0.25401 0.58369 0.65631   -0.510696
 N 0.4056 0.10172 0.68682   -0.49689
 N 0.32968 0.92738 0.58369   -0.510757
 N 0.30388 0.5851 0.89828   -0.497822
 N 0.4023 0.65631 0.07262   -0.510533
 N 0.71878 0.31318 0.4149   -0.496525
 N 0.74599 0.41631 0.34369   -0.510696
 O 0.95529 0.11977 0.50926   -0.647178
 O 0.88035 0.22416 0.53852   -0.61186
 O 0.8546 0.89608 0.35381   -0.646366
 O 0.6841 0.76838 0.28123   -0.59376
 O 0.83552 0.38949 0.88023   -0.646851
 O 0.65619 0.31436 0.77584   -0.611667
 O 0.95852 0.45773 0.10392   -0.645653
 O 0.91572 0.51285 0.23162   -0.593118
 O 0.44603 0.49074 0.61051   -0.647548
 O 0.34183 0.46148 0.68564   -0.61168
 O 0.50079 0.64619 0.54227   -0.646642
 O 0.40287 0.71877 0.48715   -0.593557
 O 0.04471 0.88023 0.49074   -0.647178
 O 0.11965 0.77584 0.46148   -0.61186
 O 0.1454 0.10392 0.64619   -0.646366
 O 0.3159 0.23162 0.71877   -0.593761
 O 0.16448 0.61051 0.11977   -0.646851
 O 0.34381 0.68564 0.22416   -0.611668
 O 0.04148 0.54227 0.89608   -0.645653
 O 0.08428 0.48715 0.76838   -0.593118
 O 0.55397 0.50926 0.38949   -0.647548
 O 0.65817 0.53852 0.31436   -0.61168
 O 0.49921 0.35381 0.45773   -0.646642
 O 0.59713 0.28123 0.51285   -0.593557
