{'_ref': 'TBD', '_srcid': 'CAKYAQ_clean', 'submitters': [{'name': 'Dalar Nazarian Jeff Camp and David Sholl', 'email': 'dalar@gatech.edu jcamp6@gatech.edu'}], '_method': 'VASP DFT with PBE;DDEC'}
data_CdH36C48N12(ClO4)2
_symmetry_space_group_name_H-M   'P 1'
_cell_length_a   15.83180000
_cell_length_b   15.83180000
_cell_length_c   21.95700000
_cell_angle_alpha   90.00000000
_cell_angle_beta   90.00000000
_cell_angle_gamma   90.00000000
_symmetry_Int_Tables_number   1
_chemical_formula_structural   CdH36C48N12(ClO4)2
_chemical_formula_sum   'Cd4 H144 C192 N48 Cl8 O32'
_cell_volume   5503.43183396
_cell_formula_units_Z   4
loop_
 _symmetry_equiv_pos_site_id
 _symmetry_equiv_pos_as_xyz
  1  'x, y, z'
loop_
 _atom_site_label
 _atom_site_fract_x
 _atom_site_fract_y
 _atom_site_fract_z
 _atom_site_charge
 Cd 0.94259 0.05741 0.75   0.798138
 Cd 0.05741 0.94259 0.25   0.798138
 Cd 0.44259 0.44259 0.5   0.798138
 Cd 0.55741 0.55741 0.0   0.798138
 H 0.465 0.3885 0.6497   0.081475
 H 0.4178 0.2855 0.7126   0.134369
 H 0.2168 0.2588 0.6043   0.130243
 H 0.2735 0.3603 0.542   0.070063
 H 0.3471 0.2042 0.7797   0.077664
 H 0.2957 0.0919 0.8333   0.112333
 H 0.1983 0.0016 0.7927   0.092687
 H 0.2056 0.1349 0.6366   0.113438
 H 0.958 0.8822 0.5399   0.106674
 H 0.938 0.7711 0.4727   0.111065
 H 0.0403 0.6696 0.4609   0.106279
 H 0.1739 0.7764 0.5949   0.097524
 H 0.1557 0.6051 0.4371   0.13185
 H 0.2665 0.5119 0.4276   0.061696
 H 0.3373 0.5564 0.5936   0.059408
 H 0.2325 0.6505 0.6077   0.136118
 H 0.2575 0.9767 0.609   0.320033
 H 0.2606 0.9004 0.6457   0.311532
 H 0.535 0.6115 0.1497   0.081475
 H 0.5822 0.7145 0.2126   0.134369
 H 0.7832 0.7412 0.1043   0.130243
 H 0.7265 0.6397 0.042   0.070063
 H 0.6529 0.7958 0.2797   0.077664
 H 0.7043 0.9081 0.3333   0.112333
 H 0.8017 0.9984 0.2927   0.092687
 H 0.7944 0.8651 0.1366   0.113438
 H 0.042 0.1178 0.0399   0.106674
 H 0.062 0.2289 0.9727   0.111065
 H 0.9597 0.3304 0.9609   0.106279
 H 0.8261 0.2236 0.0949   0.097524
 H 0.8443 0.3949 0.9371   0.13185
 H 0.7335 0.4881 0.9276   0.061696
 H 0.6627 0.4436 0.0936   0.059408
 H 0.7675 0.3495 0.1077   0.136118
 H 0.7425 0.0233 0.109   0.320033
 H 0.7394 0.0996 0.1457   0.311532
 H 0.1115 0.965 0.3997   0.081475
 H 0.2145 0.9178 0.4626   0.134369
 H 0.2412 0.7168 0.3543   0.130243
 H 0.1397 0.7735 0.292   0.070063
 H 0.2958 0.8471 0.5297   0.077664
 H 0.4081 0.7957 0.5833   0.112333
 H 0.4984 0.6983 0.5427   0.092687
 H 0.3651 0.7056 0.3866   0.113438
 H 0.6178 0.458 0.2899   0.106674
 H 0.7289 0.438 0.2227   0.111065
 H 0.8304 0.5403 0.2109   0.106279
 H 0.7236 0.6739 0.3449   0.097524
 H 0.8949 0.6557 0.1871   0.131851
 H 0.9881 0.7665 0.1776   0.061696
 H 0.9436 0.8373 0.3436   0.059408
 H 0.8495 0.7325 0.3577   0.136118
 H 0.5233 0.7575 0.359   0.320033
 H 0.5996 0.7606 0.3957   0.311531
 H 0.8885 0.035 0.8997   0.081475
 H 0.7855 0.0822 0.9626   0.134369
 H 0.7588 0.2832 0.8543   0.130243
 H 0.8603 0.2265 0.792   0.070063
 H 0.7042 0.1529 0.0297   0.077664
 H 0.5919 0.2043 0.0833   0.112333
 H 0.5016 0.3017 0.0427   0.092687
 H 0.6349 0.2944 0.8866   0.113438
 H 0.3822 0.542 0.7899   0.106674
 H 0.2711 0.562 0.7227   0.111065
 H 0.1696 0.4597 0.7109   0.106279
 H 0.2764 0.3261 0.8449   0.097524
 H 0.1051 0.3443 0.6871   0.131851
 H 0.0119 0.2335 0.6776   0.061696
 H 0.0564 0.1627 0.8436   0.059408
 H 0.1505 0.2675 0.8577   0.136118
 H 0.4767 0.2425 0.859   0.320033
 H 0.4004 0.2394 0.8957   0.311531
 H 0.035 0.8885 0.1003   0.081475
 H 0.0822 0.7855 0.0374   0.134369
 H 0.2832 0.7588 0.1457   0.130243
 H 0.2265 0.8603 0.208   0.070063
 H 0.1529 0.7042 0.9703   0.077664
 H 0.2043 0.5919 0.9167   0.112333
 H 0.3017 0.5016 0.9573   0.092687
 H 0.2944 0.6349 0.1134   0.113438
 H 0.542 0.3822 0.2101   0.106674
 H 0.562 0.2711 0.2773   0.111065
 H 0.4597 0.1696 0.2891   0.106279
 H 0.3261 0.2764 0.1551   0.097524
 H 0.3443 0.1051 0.3129   0.13185
 H 0.2335 0.0119 0.3224   0.061696
 H 0.1627 0.0564 0.1564   0.059408
 H 0.2675 0.1505 0.1423   0.136118
 H 0.2425 0.4767 0.141   0.320033
 H 0.2394 0.4004 0.1043   0.311532
 H 0.965 0.1115 0.6003   0.081475
 H 0.9178 0.2145 0.5374   0.134369
 H 0.7168 0.2412 0.6457   0.130243
 H 0.7735 0.1397 0.708   0.070063
 H 0.8471 0.2958 0.4703   0.077664
 H 0.7957 0.4081 0.4167   0.112333
 H 0.6983 0.4984 0.4573   0.092687
 H 0.7056 0.3651 0.6134   0.113438
 H 0.458 0.6178 0.7101   0.106674
 H 0.438 0.7289 0.7773   0.111065
 H 0.5403 0.8304 0.7891   0.106279
 H 0.6739 0.7236 0.6551   0.097524
 H 0.6557 0.8949 0.8129   0.13185
 H 0.7665 0.9881 0.8224   0.061696
 H 0.8373 0.9436 0.6564   0.059408
 H 0.7325 0.8495 0.6423   0.136118
 H 0.7575 0.5233 0.641   0.320033
 H 0.7606 0.5996 0.6043   0.311532
 H 0.3885 0.465 0.3503   0.081475
 H 0.2855 0.4178 0.2874   0.134369
 H 0.2588 0.2168 0.3957   0.130243
 H 0.3603 0.2735 0.458   0.070063
 H 0.2042 0.3471 0.2203   0.077664
 H 0.0919 0.2957 0.1667   0.112332
 H 0.0016 0.1983 0.2073   0.092687
 H 0.1349 0.2056 0.3634   0.113438
 H 0.8822 0.958 0.4601   0.106674
 H 0.7711 0.938 0.5273   0.111065
 H 0.6696 0.0403 0.5391   0.106279
 H 0.7764 0.1739 0.4051   0.097524
 H 0.6051 0.1557 0.5629   0.13185
 H 0.5119 0.2665 0.5724   0.061696
 H 0.5564 0.3373 0.4064   0.059408
 H 0.6505 0.2325 0.3923   0.136118
 H 0.9767 0.2575 0.391   0.320033
 H 0.9004 0.2606 0.3543   0.311531
 H 0.6115 0.535 0.8503   0.081475
 H 0.7145 0.5822 0.7874   0.134369
 H 0.7412 0.7832 0.8957   0.130243
 H 0.6397 0.7265 0.958   0.070063
 H 0.7958 0.6529 0.7203   0.077664
 H 0.9081 0.7043 0.6667   0.112332
 H 0.9984 0.8017 0.7073   0.092687
 H 0.8651 0.7944 0.8634   0.113438
 H 0.1178 0.042 0.9601   0.106674
 H 0.2289 0.062 0.0273   0.111065
 H 0.3304 0.9597 0.0391   0.106279
 H 0.2236 0.8261 0.9051   0.097524
 H 0.3949 0.8443 0.0629   0.13185
 H 0.4881 0.7335 0.0724   0.061696
 H 0.4436 0.6627 0.9064   0.059408
 H 0.3495 0.7675 0.8923   0.136118
 H 0.0233 0.7425 0.891   0.320033
 H 0.0996 0.7394 0.8543   0.311531
 C 0.4162 0.3593 0.639   0.16583
 C 0.3876 0.2982 0.6774   -0.188839
 C 0.3129 0.2542 0.6645   0.109767
 C 0.2694 0.2818 0.6135   -0.197954
 C 0.3037 0.3435 0.5762   0.150274
 C 0.2814 0.1826 0.702   0.005171
 C 0.308 0.1682 0.7617   -0.068117
 C 0.2767 0.1009 0.7937   -0.074653
 C 0.2187 0.0467 0.7698   -0.057834
 C 0.19 0.0603 0.7096   -0.052236
 C 0.2229 0.127 0.6767   -0.118018
 C 0.1278 0.004 0.6807   0.251859
 C 0.0767 0.9088 0.6179   0.26367
 C 0.0692 0.84 0.5745   -0.01455
 C 0.9977 0.8391 0.5373   -0.070794
 C 0.9866 0.7732 0.4964   -0.060966
 C 0.0465 0.7112 0.4904   -0.101012
 C 0.1156 0.7107 0.5283   0.008253
 C 0.1265 0.7762 0.5698   -0.105068
 C 0.1828 0.643 0.5227   0.112629
 C 0.193 0.5976 0.4693   -0.216459
 C 0.2598 0.5405 0.4643   0.180531
 C 0.3009 0.5671 0.5612   0.171714
 C 0.2384 0.6241 0.5701   -0.189144
 C 0.5838 0.6407 0.139   0.16583
 C 0.6124 0.7018 0.1774   -0.188839
 C 0.6871 0.7458 0.1645   0.109767
 C 0.7306 0.7182 0.1135   -0.197954
 C 0.6963 0.6565 0.0762   0.150274
 C 0.7186 0.8174 0.202   0.005171
 C 0.692 0.8318 0.2617   -0.068117
 C 0.7233 0.8991 0.2937   -0.074653
 C 0.7813 0.9533 0.2698   -0.057834
 C 0.81 0.9397 0.2096   -0.052236
 C 0.7771 0.873 0.1767   -0.118018
 C 0.8722 0.996 0.1807   0.251859
 C 0.9233 0.0912 0.1179   0.26367
 C 0.9308 0.16 0.0745   -0.01455
 C 0.0023 0.1609 0.0373   -0.070794
 C 0.0134 0.2268 0.9964   -0.060966
 C 0.9535 0.2888 0.9904   -0.101012
 C 0.8844 0.2893 0.0283   0.008253
 C 0.8735 0.2238 0.0698   -0.105068
 C 0.8172 0.357 0.0227   0.112629
 C 0.807 0.4024 0.9693   -0.216459
 C 0.7402 0.4595 0.9643   0.180531
 C 0.6991 0.4329 0.0612   0.171714
 C 0.7616 0.3759 0.0701   -0.189144
 C 0.1407 0.9162 0.389   0.16583
 C 0.2018 0.8876 0.4274   -0.188839
 C 0.2458 0.8129 0.4145   0.109768
 C 0.2182 0.7694 0.3635   -0.197954
 C 0.1565 0.8037 0.3262   0.150274
 C 0.3174 0.7814 0.452   0.005171
 C 0.3318 0.808 0.5117   -0.068117
 C 0.3991 0.7767 0.5437   -0.074652
 C 0.4533 0.7187 0.5198   -0.057835
 C 0.4397 0.69 0.4596   -0.052236
 C 0.373 0.7229 0.4267   -0.118018
 C 0.496 0.6278 0.4307   0.251859
 C 0.5912 0.5767 0.3679   0.26367
 C 0.66 0.5692 0.3245   -0.01455
 C 0.6609 0.4977 0.2873   -0.070794
 C 0.7268 0.4866 0.2464   -0.060966
 C 0.7888 0.5465 0.2404   -0.101012
 C 0.7893 0.6156 0.2783   0.008253
 C 0.7238 0.6265 0.3198   -0.105068
 C 0.857 0.6828 0.2727   0.112629
 C 0.9024 0.693 0.2193   -0.216459
 C 0.9595 0.7598 0.2143   0.180531
 C 0.9329 0.8009 0.3112   0.171714
 C 0.8759 0.7384 0.3201   -0.189144
 C 0.8593 0.0838 0.889   0.16583
 C 0.7982 0.1124 0.9274   -0.188839
 C 0.7542 0.1871 0.9145   0.109768
 C 0.7818 0.2306 0.8635   -0.197954
 C 0.8435 0.1963 0.8262   0.150274
 C 0.6826 0.2186 0.952   0.005171
 C 0.6682 0.192 0.0117   -0.068117
 C 0.6009 0.2233 0.0437   -0.074652
 C 0.5467 0.2813 0.0198   -0.057835
 C 0.5603 0.31 0.9596   -0.052236
 C 0.627 0.2771 0.9267   -0.118018
 C 0.504 0.3722 0.9307   0.251859
 C 0.4088 0.4233 0.8679   0.26367
 C 0.34 0.4308 0.8245   -0.01455
 C 0.3391 0.5023 0.7873   -0.070794
 C 0.2732 0.5134 0.7464   -0.060966
 C 0.2112 0.4535 0.7404   -0.101012
 C 0.2107 0.3844 0.7783   0.008253
 C 0.2762 0.3735 0.8198   -0.105068
 C 0.143 0.3172 0.7727   0.112629
 C 0.0976 0.307 0.7193   -0.216459
 C 0.0405 0.2402 0.7143   0.180531
 C 0.0671 0.1991 0.8112   0.171714
 C 0.1241 0.2616 0.8201   -0.189144
 C 0.0838 0.8593 0.111   0.16583
 C 0.1124 0.7982 0.0726   -0.188839
 C 0.1871 0.7542 0.0855   0.109767
 C 0.2306 0.7818 0.1365   -0.197953
 C 0.1963 0.8435 0.1738   0.150274
 C 0.2186 0.6826 0.048   0.005171
 C 0.192 0.6682 0.9883   -0.068117
 C 0.2233 0.6009 0.9563   -0.074653
 C 0.2813 0.5467 0.9802   -0.057834
 C 0.31 0.5603 0.0404   -0.052236
 C 0.2771 0.627 0.0733   -0.118018
 C 0.3722 0.504 0.0693   0.251859
 C 0.4233 0.4088 0.1321   0.26367
 C 0.4308 0.34 0.1755   -0.01455
 C 0.5023 0.3391 0.2127   -0.070794
 C 0.5134 0.2732 0.2536   -0.060966
 C 0.4535 0.2112 0.2596   -0.101012
 C 0.3844 0.2107 0.2217   0.008253
 C 0.3735 0.2762 0.1802   -0.105068
 C 0.3172 0.143 0.2273   0.112629
 C 0.307 0.0976 0.2807   -0.216459
 C 0.2402 0.0405 0.2857   0.180531
 C 0.1991 0.0671 0.1888   0.171714
 C 0.2616 0.1241 0.1799   -0.189144
 C 0.9162 0.1407 0.611   0.16583
 C 0.8876 0.2018 0.5726   -0.188839
 C 0.8129 0.2458 0.5855   0.109767
 C 0.7694 0.2182 0.6365   -0.197953
 C 0.8037 0.1565 0.6738   0.150274
 C 0.7814 0.3174 0.548   0.005171
 C 0.808 0.3318 0.4883   -0.068117
 C 0.7767 0.3991 0.4563   -0.074653
 C 0.7187 0.4533 0.4802   -0.057834
 C 0.69 0.4397 0.5404   -0.052236
 C 0.7229 0.373 0.5733   -0.118018
 C 0.6278 0.496 0.5693   0.251859
 C 0.5767 0.5912 0.6321   0.26367
 C 0.5692 0.66 0.6755   -0.01455
 C 0.4977 0.6609 0.7127   -0.070794
 C 0.4866 0.7268 0.7536   -0.060966
 C 0.5465 0.7888 0.7596   -0.101012
 C 0.6156 0.7893 0.7217   0.008253
 C 0.6265 0.7238 0.6802   -0.105068
 C 0.6828 0.857 0.7273   0.112629
 C 0.693 0.9024 0.7807   -0.216459
 C 0.7598 0.9595 0.7857   0.180531
 C 0.8009 0.9329 0.6888   0.171714
 C 0.7384 0.8759 0.6799   -0.189144
 C 0.3593 0.4162 0.361   0.16583
 C 0.2982 0.3876 0.3226   -0.188839
 C 0.2542 0.3129 0.3355   0.109768
 C 0.2818 0.2694 0.3865   -0.197954
 C 0.3435 0.3037 0.4238   0.150274
 C 0.1826 0.2814 0.298   0.005171
 C 0.1682 0.308 0.2383   -0.068117
 C 0.1009 0.2767 0.2063   -0.074652
 C 0.0467 0.2187 0.2302   -0.057835
 C 0.0603 0.19 0.2904   -0.052236
 C 0.127 0.2229 0.3233   -0.118018
 C 0.004 0.1278 0.3193   0.251859
 C 0.9088 0.0767 0.3821   0.26367
 C 0.84 0.0692 0.4255   -0.01455
 C 0.8391 0.9977 0.4627   -0.070794
 C 0.7732 0.9866 0.5036   -0.060966
 C 0.7112 0.0465 0.5096   -0.101012
 C 0.7107 0.1156 0.4717   0.008253
 C 0.7762 0.1265 0.4302   -0.105068
 C 0.643 0.1828 0.4773   0.112629
 C 0.5976 0.193 0.5307   -0.21646
 C 0.5405 0.2598 0.5357   0.180531
 C 0.5671 0.3009 0.4388   0.171714
 C 0.6241 0.2384 0.4299   -0.189144
 C 0.6407 0.5838 0.861   0.16583
 C 0.7018 0.6124 0.8226   -0.188839
 C 0.7458 0.6871 0.8355   0.109768
 C 0.7182 0.7306 0.8865   -0.197954
 C 0.6565 0.6963 0.9238   0.150274
 C 0.8174 0.7186 0.798   0.005171
 C 0.8318 0.692 0.7383   -0.068117
 C 0.8991 0.7233 0.7063   -0.074652
 C 0.9533 0.7813 0.7302   -0.057835
 C 0.9397 0.81 0.7904   -0.052236
 C 0.873 0.7771 0.8233   -0.118018
 C 0.996 0.8722 0.8193   0.251859
 C 0.0912 0.9233 0.8821   0.26367
 C 0.16 0.9308 0.9255   -0.01455
 C 0.1609 0.0023 0.9627   -0.070794
 C 0.2268 0.0134 0.0036   -0.060966
 C 0.2888 0.9535 0.0096   -0.101012
 C 0.2893 0.8844 0.9717   0.008253
 C 0.2238 0.8735 0.9302   -0.105068
 C 0.357 0.8172 0.9773   0.112629
 C 0.4024 0.807 0.0307   -0.21646
 C 0.4595 0.7402 0.0357   0.180531
 C 0.4329 0.6991 0.9388   0.171714
 C 0.3759 0.7616 0.9299   -0.189144
 N 0.3781 0.3796 0.5871   -0.350755
 N 0.0467 0.0056 0.6854   -0.236372
 N 0.0137 0.9448 0.6457   -0.312255
 N 0.1504 0.9447 0.6389   0.088962
 N 0.2317 0.9281 0.6173   -0.557503
 N 0.3143 0.5246 0.5089   -0.3676
 N 0.6219 0.6204 0.0871   -0.350755
 N 0.9533 0.9944 0.1854   -0.236372
 N 0.9863 0.0552 0.1457   -0.312255
 N 0.8496 0.0553 0.1389   0.088962
 N 0.7683 0.0719 0.1173   -0.557503
 N 0.6857 0.4754 0.0089   -0.3676
 N 0.1204 0.8781 0.3371   -0.350755
 N 0.4944 0.5467 0.4354   -0.236372
 N 0.5552 0.5137 0.3957   -0.312255
 N 0.5553 0.6504 0.3889   0.088962
 N 0.5719 0.7317 0.3673   -0.557502
 N 0.9754 0.8143 0.2589   -0.3676
 N 0.8796 0.1219 0.8371   -0.350755
 N 0.5056 0.4533 0.9354   -0.236372
 N 0.4448 0.4863 0.8957   -0.312255
 N 0.4447 0.3496 0.8889   0.088962
 N 0.4281 0.2683 0.8673   -0.557502
 N 0.0246 0.1857 0.7589   -0.3676
 N 0.1219 0.8796 0.1629   -0.350755
 N 0.4533 0.5056 0.0646   -0.236372
 N 0.4863 0.4448 0.1043   -0.312255
 N 0.3496 0.4447 0.1111   0.088962
 N 0.2683 0.4281 0.1327   -0.557503
 N 0.1857 0.0246 0.2411   -0.3676
 N 0.8781 0.1204 0.6629   -0.350755
 N 0.5467 0.4944 0.5646   -0.236372
 N 0.5137 0.5552 0.6043   -0.312255
 N 0.6504 0.5553 0.6111   0.088962
 N 0.7317 0.5719 0.6327   -0.557503
 N 0.8143 0.9754 0.7411   -0.3676
 N 0.3796 0.3781 0.4129   -0.350755
 N 0.0056 0.0467 0.3146   -0.236372
 N 0.9448 0.0137 0.3543   -0.312255
 N 0.9447 0.1504 0.3611   0.088962
 N 0.9281 0.2317 0.3827   -0.557502
 N 0.5246 0.3143 0.4911   -0.3676
 N 0.6204 0.6219 0.9129   -0.350755
 N 0.9944 0.9533 0.8146   -0.236372
 N 0.0552 0.9863 0.8543   -0.312255
 N 0.0553 0.8496 0.8611   0.088962
 N 0.0719 0.7683 0.8827   -0.557502
 N 0.4754 0.6857 0.9911   -0.3676
 Cl 0.87948 0.87948 0.0   1.803704
 Cl 0.2693 0.2693 0.0   1.233603
 Cl 0.12052 0.12052 0.5   1.803704
 Cl 0.7307 0.7307 0.5   1.233603
 Cl 0.62052 0.37948 0.75   1.803704
 Cl 0.2307 0.7693 0.75   1.233603
 Cl 0.37948 0.62052 0.25   1.803704
 Cl 0.7693 0.2307 0.25   1.233603
 O 0.8238 0.886 0.9548   -0.67476
 O 0.9454 0.8655 0.968   -0.647147
 O 0.886 0.8238 0.0452   -0.67476
 O 0.8655 0.9454 0.032   -0.647147
 O 0.2294 0.2464 0.9513   -0.487402
 O 0.2138 0.33 0.016   -0.531398
 O 0.2464 0.2294 0.0487   -0.487402
 O 0.33 0.2138 0.984   -0.531398
 O 0.1762 0.114 0.4548   -0.67476
 O 0.0546 0.1345 0.468   -0.647147
 O 0.114 0.1762 0.5452   -0.67476
 O 0.1345 0.0546 0.532   -0.647147
 O 0.7706 0.7536 0.4513   -0.487402
 O 0.7862 0.67 0.516   -0.531398
 O 0.7536 0.7706 0.5487   -0.487402
 O 0.67 0.7862 0.484   -0.531398
 O 0.614 0.3238 0.7048   -0.67476
 O 0.6345 0.4454 0.718   -0.647147
 O 0.6762 0.386 0.7952   -0.67476
 O 0.5546 0.3655 0.782   -0.647147
 O 0.2536 0.7294 0.7013   -0.487402
 O 0.17 0.7138 0.766   -0.531398
 O 0.2706 0.7464 0.7987   -0.487402
 O 0.2862 0.83 0.734   -0.531398
 O 0.386 0.6762 0.2048   -0.67476
 O 0.3655 0.5546 0.218   -0.647147
 O 0.3238 0.614 0.2952   -0.67476
 O 0.4454 0.6345 0.282   -0.647147
 O 0.7464 0.2706 0.2013   -0.487402
 O 0.83 0.2862 0.266   -0.531398
 O 0.7294 0.2536 0.2987   -0.487402
 O 0.7138 0.17 0.234   -0.531398
