{'_ref': 'TBD', '_srcid': 'CAKYAQ_clean', 'submitters': [{'name': 'Dalar Nazarian Jeff Camp and David Sholl', 'email': 'dalar@gatech.edu jcamp6@gatech.edu'}], '_method': 'VASP DFT with PBE;DDEC'}
data_CdH36C48N12(ClO4)2
_symmetry_space_group_name_H-M   'P 1'
_cell_length_a   15.93700000
_cell_length_b   15.93700000
_cell_length_c   21.88400000
_cell_angle_alpha   90.00000000
_cell_angle_beta   90.00000000
_cell_angle_gamma   90.00000000
_symmetry_Int_Tables_number   1
_chemical_formula_structural   CdH36C48N12(ClO4)2
_chemical_formula_sum   'Cd4 H144 C192 N48 Cl8 O32'
_cell_volume   5558.2727136
_cell_formula_units_Z   4
loop_
 _symmetry_equiv_pos_site_id
 _symmetry_equiv_pos_as_xyz
  1  'x, y, z'
loop_
 _atom_site_label
 _atom_site_fract_x
 _atom_site_fract_y
 _atom_site_fract_z
 _atom_site_charge
 Cd 0.94265 0.05735 0.25   0.795814
 Cd 0.05735 0.94265 0.75   0.795814
 Cd 0.44265 0.44265 0.5   0.795814
 Cd 0.55735 0.55735 0.0   0.795814
 H 0.4636 0.39 0.3507   0.080127
 H 0.4163 0.2849 0.2853   0.138038
 H 0.2153 0.2592 0.3962   0.123695
 H 0.2736 0.3579 0.4604   0.072837
 H 0.3493 0.2018 0.2208   0.080702
 H 0.2944 0.0928 0.1647   0.114444
 H 0.1992 0.9979 0.2082   0.093631
 H 0.2036 0.1361 0.3642   0.108469
 H 0.9557 0.8787 0.4591   0.108794
 H 0.9379 0.7699 0.5284   0.119532
 H 0.0377 0.6655 0.5384   0.108853
 H 0.1757 0.7762 0.4041   0.098036
 H 0.2335 0.6516 0.3912   0.136279
 H 0.3402 0.5557 0.4054   0.064698
 H 0.2658 0.511 0.5736   0.072436
 H 0.155 0.6037 0.5626   0.127033
 H 0.2601 0.9736 0.3884   0.324814
 H 0.259 0.8921 0.3553   0.308676
 H 0.5364 0.61 0.8507   0.080127
 H 0.5837 0.7151 0.7853   0.138038
 H 0.7847 0.7408 0.8962   0.123695
 H 0.7264 0.6421 0.9604   0.072837
 H 0.6507 0.7982 0.7208   0.080702
 H 0.7056 0.9072 0.6647   0.114444
 H 0.8008 0.0021 0.7082   0.093631
 H 0.7964 0.8639 0.8642   0.108469
 H 0.0443 0.1213 0.9591   0.108794
 H 0.0621 0.2301 0.0284   0.119532
 H 0.9623 0.3345 0.0384   0.108853
 H 0.8243 0.2238 0.9041   0.098036
 H 0.7665 0.3484 0.8912   0.136279
 H 0.6598 0.4443 0.9054   0.064698
 H 0.7342 0.489 0.0736   0.072436
 H 0.845 0.3963 0.0626   0.127033
 H 0.7399 0.0264 0.8884   0.324814
 H 0.741 0.1079 0.8553   0.308676
 H 0.11 0.9636 0.6007   0.080127
 H 0.2151 0.9163 0.5353   0.138038
 H 0.2408 0.7153 0.6462   0.123695
 H 0.1421 0.7736 0.7104   0.072837
 H 0.2982 0.8493 0.4708   0.080702
 H 0.4072 0.7944 0.4147   0.114444
 H 0.5021 0.6992 0.4582   0.093631
 H 0.3639 0.7036 0.6142   0.108469
 H 0.6213 0.4557 0.7091   0.108794
 H 0.7301 0.4379 0.7784   0.119532
 H 0.8345 0.5377 0.7884   0.108853
 H 0.7238 0.6757 0.6541   0.098036
 H 0.8484 0.7335 0.6412   0.136279
 H 0.9443 0.8402 0.6554   0.064698
 H 0.989 0.7658 0.8236   0.072436
 H 0.8963 0.655 0.8126   0.127033
 H 0.5264 0.7601 0.6384   0.324814
 H 0.6079 0.759 0.6053   0.308676
 H 0.89 0.0364 0.1007   0.080127
 H 0.7849 0.0837 0.0353   0.138038
 H 0.7592 0.2847 0.1462   0.123695
 H 0.8579 0.2264 0.2104   0.072837
 H 0.7018 0.1507 0.9708   0.080702
 H 0.5928 0.2056 0.9147   0.114444
 H 0.4979 0.3008 0.9582   0.093631
 H 0.6361 0.2964 0.1142   0.108469
 H 0.3787 0.5443 0.2091   0.108794
 H 0.2699 0.5621 0.2784   0.119532
 H 0.1655 0.4623 0.2884   0.108853
 H 0.2762 0.3243 0.1541   0.098036
 H 0.1516 0.2665 0.1412   0.136279
 H 0.0557 0.1598 0.1554   0.064698
 H 0.011 0.2342 0.3236   0.072436
 H 0.1037 0.345 0.3126   0.127033
 H 0.4736 0.2399 0.1384   0.324814
 H 0.3921 0.241 0.1053   0.308676
 H 0.0364 0.89 0.8993   0.080127
 H 0.0837 0.7849 0.9647   0.138038
 H 0.2847 0.7592 0.8538   0.123695
 H 0.2264 0.8579 0.7896   0.072837
 H 0.1507 0.7018 0.0292   0.080702
 H 0.2056 0.5928 0.0853   0.114444
 H 0.3008 0.4979 0.0418   0.093631
 H 0.2964 0.6361 0.8858   0.108469
 H 0.5443 0.3787 0.7909   0.108793
 H 0.5621 0.2699 0.7216   0.119532
 H 0.4623 0.1655 0.7116   0.108853
 H 0.3243 0.2762 0.8459   0.098036
 H 0.2665 0.1516 0.8588   0.136279
 H 0.1598 0.0557 0.8446   0.064698
 H 0.2342 0.011 0.6764   0.072436
 H 0.345 0.1037 0.6874   0.127033
 H 0.2399 0.4736 0.8616   0.324814
 H 0.241 0.3921 0.8947   0.308676
 H 0.9636 0.11 0.3993   0.080127
 H 0.9163 0.2151 0.4647   0.138038
 H 0.7153 0.2408 0.3538   0.123695
 H 0.7736 0.1421 0.2896   0.072837
 H 0.8493 0.2982 0.5292   0.080702
 H 0.7944 0.4072 0.5853   0.114444
 H 0.6992 0.5021 0.5418   0.093631
 H 0.7036 0.3639 0.3858   0.108469
 H 0.4557 0.6213 0.2909   0.108793
 H 0.4379 0.7301 0.2216   0.119532
 H 0.5377 0.8345 0.2116   0.108853
 H 0.6757 0.7238 0.3459   0.098036
 H 0.7335 0.8484 0.3588   0.136279
 H 0.8402 0.9443 0.3446   0.064698
 H 0.7658 0.989 0.1764   0.072436
 H 0.655 0.8963 0.1874   0.127033
 H 0.7601 0.5264 0.3616   0.324814
 H 0.759 0.6079 0.3947   0.308676
 H 0.39 0.4636 0.6493   0.080127
 H 0.2849 0.4163 0.7147   0.138038
 H 0.2592 0.2153 0.6038   0.123695
 H 0.3579 0.2736 0.5396   0.072837
 H 0.2018 0.3493 0.7792   0.080702
 H 0.0928 0.2944 0.8353   0.114444
 H 0.9979 0.1992 0.7918   0.093631
 H 0.1361 0.2036 0.6358   0.108469
 H 0.8787 0.9557 0.5409   0.108793
 H 0.7699 0.9379 0.4716   0.119532
 H 0.6655 0.0377 0.4616   0.108853
 H 0.7762 0.1757 0.5959   0.098036
 H 0.6516 0.2335 0.6088   0.136279
 H 0.5557 0.3402 0.5946   0.064698
 H 0.511 0.2658 0.4264   0.072436
 H 0.6037 0.155 0.4374   0.127033
 H 0.9736 0.2601 0.6116   0.324814
 H 0.8921 0.259 0.6447   0.308676
 H 0.61 0.5364 0.1493   0.080127
 H 0.7151 0.5837 0.2147   0.138038
 H 0.7408 0.7847 0.1038   0.123695
 H 0.6421 0.7264 0.0396   0.072837
 H 0.7982 0.6507 0.2792   0.080702
 H 0.9072 0.7056 0.3353   0.114444
 H 0.0021 0.8008 0.2918   0.093631
 H 0.8639 0.7964 0.1358   0.108469
 H 0.1213 0.0443 0.0409   0.108793
 H 0.2301 0.0621 0.9716   0.119532
 H 0.3345 0.9623 0.9616   0.108853
 H 0.2238 0.8243 0.0959   0.098036
 H 0.3484 0.7665 0.1088   0.136279
 H 0.4443 0.6598 0.0946   0.064698
 H 0.489 0.7342 0.9264   0.072436
 H 0.3963 0.845 0.9374   0.127033
 H 0.0264 0.7399 0.1116   0.324814
 H 0.1079 0.741 0.1447   0.308676
 C 0.4141 0.3603 0.3615   0.171593
 C 0.3859 0.2974 0.3215   -0.191569
 C 0.312 0.253 0.3357   0.105181
 C 0.269 0.2817 0.3869   -0.189115
 C 0.3032 0.3424 0.4244   0.132179
 C 0.2814 0.1813 0.298   0.014013
 C 0.3083 0.1661 0.2387   -0.073397
 C 0.2766 0.1005 0.2057   -0.072414
 C 0.2188 0.0448 0.2308   -0.066024
 C 0.1901 0.0602 0.2909   -0.049652
 C 0.2222 0.1269 0.3235   -0.119089
 C 0.1275 0.0036 0.3207   0.24305
 C 0.0765 0.9085 0.3817   0.25162
 C 0.0686 0.8393 0.4257   -0.02167
 C 0.9972 0.8361 0.4624   -0.067848
 C 0.9867 0.7713 0.5035   -0.062513
 C 0.0452 0.7088 0.5091   -0.109019
 C 0.1174 0.7091 0.4705   0.009318
 C 0.1276 0.775 0.4297   -0.108295
 C 0.1825 0.642 0.4768   0.11179
 C 0.239 0.624 0.4294   -0.187283
 C 0.3027 0.5664 0.4382   0.169737
 C 0.2591 0.5401 0.536   0.166254
 C 0.1933 0.5964 0.5297   -0.205147
 C 0.5859 0.6397 0.8615   0.171593
 C 0.6141 0.7026 0.8215   -0.191569
 C 0.688 0.747 0.8357   0.105181
 C 0.731 0.7183 0.8869   -0.189115
 C 0.6968 0.6576 0.9244   0.132179
 C 0.7186 0.8187 0.798   0.014013
 C 0.6917 0.8339 0.7387   -0.073397
 C 0.7234 0.8995 0.7057   -0.072414
 C 0.7812 0.9552 0.7308   -0.066024
 C 0.8099 0.9398 0.7909   -0.049652
 C 0.7778 0.8731 0.8235   -0.119089
 C 0.8725 0.9964 0.8207   0.24305
 C 0.9235 0.0915 0.8817   0.25162
 C 0.9314 0.1607 0.9257   -0.02167
 C 0.0028 0.1639 0.9624   -0.067848
 C 0.0133 0.2287 0.0035   -0.062513
 C 0.9548 0.2912 0.0091   -0.109019
 C 0.8826 0.2909 0.9705   0.009318
 C 0.8724 0.225 0.9297   -0.108295
 C 0.8175 0.358 0.9768   0.11179
 C 0.761 0.376 0.9294   -0.187283
 C 0.6973 0.4336 0.9382   0.169737
 C 0.7409 0.4599 0.036   0.166254
 C 0.8067 0.4036 0.0297   -0.205147
 C 0.1397 0.9141 0.6115   0.171593
 C 0.2026 0.8859 0.5715   -0.191569
 C 0.247 0.812 0.5857   0.105181
 C 0.2183 0.769 0.6369   -0.189115
 C 0.1576 0.8032 0.6744   0.132179
 C 0.3187 0.7814 0.548   0.014014
 C 0.3339 0.8083 0.4887   -0.073397
 C 0.3995 0.7766 0.4557   -0.072414
 C 0.4552 0.7188 0.4808   -0.066024
 C 0.4398 0.6901 0.5409   -0.049652
 C 0.3731 0.7222 0.5735   -0.119089
 C 0.4964 0.6275 0.5707   0.24305
 C 0.5915 0.5765 0.6317   0.25162
 C 0.6607 0.5686 0.6757   -0.02167
 C 0.6639 0.4972 0.7124   -0.067848
 C 0.7287 0.4867 0.7535   -0.062514
 C 0.7912 0.5452 0.7591   -0.109019
 C 0.7909 0.6174 0.7205   0.009318
 C 0.725 0.6276 0.6797   -0.108295
 C 0.858 0.6825 0.7268   0.11179
 C 0.876 0.739 0.6794   -0.187283
 C 0.9336 0.8027 0.6882   0.169737
 C 0.9599 0.7591 0.786   0.166254
 C 0.9036 0.6933 0.7797   -0.205147
 C 0.8603 0.0859 0.1115   0.171593
 C 0.7974 0.1141 0.0715   -0.191569
 C 0.753 0.188 0.0857   0.105181
 C 0.7817 0.231 0.1369   -0.189115
 C 0.8424 0.1968 0.1744   0.132179
 C 0.6813 0.2186 0.048   0.014014
 C 0.6661 0.1917 0.9887   -0.073397
 C 0.6005 0.2234 0.9557   -0.072414
 C 0.5448 0.2812 0.9808   -0.066024
 C 0.5602 0.3099 0.0409   -0.049652
 C 0.6269 0.2778 0.0735   -0.119089
 C 0.5036 0.3725 0.0707   0.24305
 C 0.4085 0.4235 0.1317   0.25162
 C 0.3393 0.4314 0.1757   -0.02167
 C 0.3361 0.5028 0.2124   -0.067848
 C 0.2713 0.5133 0.2535   -0.062514
 C 0.2088 0.4548 0.2591   -0.109019
 C 0.2091 0.3826 0.2205   0.009318
 C 0.275 0.3724 0.1797   -0.108295
 C 0.142 0.3175 0.2268   0.11179
 C 0.124 0.261 0.1794   -0.187283
 C 0.0664 0.1973 0.1882   0.169737
 C 0.0401 0.2409 0.286   0.166254
 C 0.0964 0.3067 0.2797   -0.205147
 C 0.0859 0.8603 0.8885   0.171593
 C 0.1141 0.7974 0.9285   -0.191569
 C 0.188 0.753 0.9143   0.105181
 C 0.231 0.7817 0.8631   -0.189115
 C 0.1968 0.8424 0.8256   0.132179
 C 0.2186 0.6813 0.952   0.014014
 C 0.1917 0.6661 0.0113   -0.073398
 C 0.2234 0.6005 0.0443   -0.072414
 C 0.2812 0.5448 0.0192   -0.066024
 C 0.3099 0.5602 0.9591   -0.049652
 C 0.2778 0.6269 0.9265   -0.119089
 C 0.3725 0.5036 0.9293   0.24305
 C 0.4235 0.4085 0.8683   0.25162
 C 0.4314 0.3393 0.8243   -0.02167
 C 0.5028 0.3361 0.7876   -0.067848
 C 0.5133 0.2713 0.7465   -0.062513
 C 0.4548 0.2088 0.7409   -0.109019
 C 0.3826 0.2091 0.7795   0.009318
 C 0.3724 0.275 0.8203   -0.108295
 C 0.3175 0.142 0.7732   0.11179
 C 0.261 0.124 0.8206   -0.187283
 C 0.1973 0.0664 0.8118   0.169737
 C 0.2409 0.0401 0.714   0.166254
 C 0.3067 0.0964 0.7203   -0.205147
 C 0.9141 0.1397 0.3885   0.171593
 C 0.8859 0.2026 0.4285   -0.191569
 C 0.812 0.247 0.4143   0.105181
 C 0.769 0.2183 0.3631   -0.189115
 C 0.8032 0.1576 0.3256   0.132179
 C 0.7814 0.3187 0.452   0.014014
 C 0.8083 0.3339 0.5113   -0.073398
 C 0.7766 0.3995 0.5443   -0.072414
 C 0.7188 0.4552 0.5192   -0.066024
 C 0.6901 0.4398 0.4591   -0.049652
 C 0.7222 0.3731 0.4265   -0.119089
 C 0.6275 0.4964 0.4293   0.24305
 C 0.5765 0.5915 0.3683   0.25162
 C 0.5686 0.6607 0.3243   -0.02167
 C 0.4972 0.6639 0.2876   -0.067848
 C 0.4867 0.7287 0.2465   -0.062513
 C 0.5452 0.7912 0.2409   -0.109019
 C 0.6174 0.7909 0.2795   0.009318
 C 0.6276 0.725 0.3203   -0.108295
 C 0.6825 0.858 0.2732   0.11179
 C 0.739 0.876 0.3206   -0.187283
 C 0.8027 0.9336 0.3118   0.169737
 C 0.7591 0.9599 0.214   0.166254
 C 0.6933 0.9036 0.2203   -0.205147
 C 0.3603 0.4141 0.6385   0.171593
 C 0.2974 0.3859 0.6785   -0.191569
 C 0.253 0.312 0.6643   0.105181
 C 0.2817 0.269 0.6131   -0.189115
 C 0.3424 0.3032 0.5756   0.132179
 C 0.1813 0.2814 0.702   0.014014
 C 0.1661 0.3083 0.7613   -0.073398
 C 0.1005 0.2766 0.7943   -0.072414
 C 0.0448 0.2188 0.7692   -0.066024
 C 0.0602 0.1901 0.7091   -0.049652
 C 0.1269 0.2222 0.6765   -0.119089
 C 0.0036 0.1275 0.6793   0.24305
 C 0.9085 0.0765 0.6183   0.25162
 C 0.8393 0.0686 0.5743   -0.02167
 C 0.8361 0.9972 0.5376   -0.067848
 C 0.7713 0.9867 0.4965   -0.062514
 C 0.7088 0.0452 0.4909   -0.109019
 C 0.7091 0.1174 0.5295   0.009318
 C 0.775 0.1276 0.5703   -0.108295
 C 0.642 0.1825 0.5232   0.11179
 C 0.624 0.239 0.5706   -0.187283
 C 0.5664 0.3027 0.5618   0.169737
 C 0.5401 0.2591 0.464   0.166254
 C 0.5964 0.1933 0.4703   -0.205147
 C 0.6397 0.5859 0.1385   0.171593
 C 0.7026 0.6141 0.1785   -0.191569
 C 0.747 0.688 0.1643   0.105181
 C 0.7183 0.731 0.1131   -0.189115
 C 0.6576 0.6968 0.0756   0.132179
 C 0.8187 0.7186 0.202   0.014014
 C 0.8339 0.6917 0.2613   -0.073398
 C 0.8995 0.7234 0.2943   -0.072414
 C 0.9552 0.7812 0.2692   -0.066024
 C 0.9398 0.8099 0.2091   -0.049652
 C 0.8731 0.7778 0.1765   -0.119089
 C 0.9964 0.8725 0.1793   0.24305
 C 0.0915 0.9235 0.1183   0.25162
 C 0.1607 0.9314 0.0743   -0.02167
 C 0.1639 0.0028 0.0376   -0.067848
 C 0.2287 0.0133 0.9965   -0.062514
 C 0.2912 0.9548 0.9909   -0.109019
 C 0.2909 0.8826 0.0295   0.009318
 C 0.225 0.8724 0.0703   -0.108295
 C 0.358 0.8175 0.0232   0.11179
 C 0.376 0.761 0.0706   -0.187283
 C 0.4336 0.6973 0.0618   0.169737
 C 0.4599 0.7409 0.964   0.166254
 C 0.4036 0.8067 0.9703   -0.205147
 N 0.377 0.3805 0.412   -0.344791
 N 0.0139 0.9448 0.3548   -0.300613
 N 0.0458 0.0059 0.3165   -0.234639
 N 0.1496 0.9436 0.361   0.092745
 N 0.2314 0.9248 0.3828   -0.55935
 N 0.3139 0.5254 0.4904   -0.367551
 N 0.623 0.6195 0.912   -0.344791
 N 0.9861 0.0552 0.8548   -0.300613
 N 0.9542 0.9941 0.8165   -0.234639
 N 0.8504 0.0564 0.861   0.092745
 N 0.7686 0.0752 0.8828   -0.55935
 N 0.6861 0.4746 0.9904   -0.367551
 N 0.1195 0.877 0.662   -0.344791
 N 0.5552 0.5139 0.6048   -0.300613
 N 0.4941 0.5458 0.5665   -0.234639
 N 0.5564 0.6496 0.611   0.092745
 N 0.5752 0.7314 0.6328   -0.55935
 N 0.9746 0.8139 0.7404   -0.367551
 N 0.8805 0.123 0.162   -0.344791
 N 0.4448 0.4861 0.1048   -0.300613
 N 0.5059 0.4542 0.0665   -0.234639
 N 0.4436 0.3504 0.111   0.092745
 N 0.4248 0.2686 0.1328   -0.55935
 N 0.0254 0.1861 0.2404   -0.367551
 N 0.123 0.8805 0.838   -0.344791
 N 0.4861 0.4448 0.8952   -0.300613
 N 0.4542 0.5059 0.9335   -0.234639
 N 0.3504 0.4436 0.889   0.092745
 N 0.2686 0.4248 0.8672   -0.55935
 N 0.1861 0.0254 0.7596   -0.367551
 N 0.877 0.1195 0.338   -0.344791
 N 0.5139 0.5552 0.3952   -0.300613
 N 0.5458 0.4941 0.4335   -0.234639
 N 0.6496 0.5564 0.389   0.092745
 N 0.7314 0.5752 0.3672   -0.55935
 N 0.8139 0.9746 0.2596   -0.367551
 N 0.3805 0.377 0.588   -0.344791
 N 0.9448 0.0139 0.6452   -0.300613
 N 0.0059 0.0458 0.6835   -0.234639
 N 0.9436 0.1496 0.639   0.092745
 N 0.9248 0.2314 0.6172   -0.55935
 N 0.5254 0.3139 0.5096   -0.367551
 N 0.6195 0.623 0.088   -0.344791
 N 0.0552 0.9861 0.1452   -0.300613
 N 0.9941 0.9542 0.1835   -0.234639
 N 0.0564 0.8504 0.139   0.092745
 N 0.0752 0.7686 0.1172   -0.55935
 N 0.4746 0.6861 0.0096   -0.367551
 Cl 0.87939 0.87939 0.0   1.622692
 Cl 0.26804 0.26804 0.0   1.455485
 Cl 0.12061 0.12061 0.5   1.622692
 Cl 0.73196 0.73196 0.5   1.455485
 Cl 0.62061 0.37939 0.25   1.622692
 Cl 0.23196 0.76804 0.25   1.455485
 Cl 0.37939 0.62061 0.75   1.622692
 Cl 0.76804 0.23196 0.75   1.455485
 O 0.8207 0.9017 0.0487   -0.668117
 O 0.9404 0.8592 0.0341   -0.554526
 O 0.9017 0.8207 0.9513   -0.668117
 O 0.8592 0.9404 0.9659   -0.554526
 O 0.2357 0.2284 0.0494   -0.635678
 O 0.337 0.217 0.9986   -0.497271
 O 0.2284 0.2357 0.9506   -0.635678
 O 0.217 0.337 0.0014   -0.497271
 O 0.1793 0.0983 0.5487   -0.668117
 O 0.0596 0.1408 0.5341   -0.554526
 O 0.0983 0.1793 0.4513   -0.668117
 O 0.1408 0.0596 0.4659   -0.554526
 O 0.7643 0.7716 0.5494   -0.635678
 O 0.663 0.783 0.4986   -0.497271
 O 0.7716 0.7643 0.4506   -0.635678
 O 0.783 0.663 0.5014   -0.497271
 O 0.5983 0.3207 0.2987   -0.668117
 O 0.6408 0.4404 0.2841   -0.554526
 O 0.6793 0.4017 0.2013   -0.668117
 O 0.5596 0.3592 0.2159   -0.554526
 O 0.2716 0.7357 0.2994   -0.635678
 O 0.283 0.837 0.2486   -0.497271
 O 0.2643 0.7284 0.2006   -0.635678
 O 0.163 0.717 0.2514   -0.497271
 O 0.4017 0.6793 0.7987   -0.668117
 O 0.3592 0.5596 0.7841   -0.554526
 O 0.3207 0.5983 0.7013   -0.668117
 O 0.4404 0.6408 0.7159   -0.554526
 O 0.7284 0.2643 0.7994   -0.635678
 O 0.717 0.163 0.7486   -0.497271
 O 0.7357 0.2716 0.7006   -0.635678
 O 0.837 0.283 0.7514   -0.497271
