{'_ref': 'TBD', '_srcid': 'CAKYAQ_clean', 'submitters': [{'name': 'Dalar Nazarian Jeff Camp and David Sholl', 'email': 'dalar@gatech.edu jcamp6@gatech.edu'}], '_method': 'VASP DFT with PBE;DDEC'}
data_CdH36C48N12(ClO4)2
_symmetry_space_group_name_H-M   'P 1'
_cell_length_a   15.82710000
_cell_length_b   15.82710000
_cell_length_c   21.85600000
_cell_angle_alpha   90.00000000
_cell_angle_beta   90.00000000
_cell_angle_gamma   90.00000000
_symmetry_Int_Tables_number   1
_chemical_formula_structural   CdH36C48N12(ClO4)2
_chemical_formula_sum   'Cd4 H144 C192 N48 Cl8 O32'
_cell_volume   5474.86449542
_cell_formula_units_Z   4
loop_
 _symmetry_equiv_pos_site_id
 _symmetry_equiv_pos_as_xyz
  1  'x, y, z'
loop_
 _atom_site_label
 _atom_site_fract_x
 _atom_site_fract_y
 _atom_site_fract_z
 _atom_site_charge
 Cd 0.9423 0.0577 0.75   0.797102
 Cd 0.0577 0.9423 0.25   0.797102
 Cd 0.4423 0.4423 0.5   0.797102
 Cd 0.5577 0.5577 0.0   0.797102
 H 0.4647 0.388 0.6499   0.080425
 H 0.4166 0.2859 0.7136   0.133212
 H 0.2159 0.2598 0.605   0.128718
 H 0.2729 0.3601 0.5415   0.071558
 H 0.3476 0.2042 0.7796   0.077492
 H 0.297 0.0916 0.834   0.112078
 H 0.1988 0.000599999999999 0.7925   0.091259
 H 0.2042 0.1358 0.6371   0.112645
 H 0.9575 0.8817 0.5405   0.107846
 H 0.9386 0.772 0.4711   0.116442
 H 0.0394 0.6683 0.4615   0.105819
 H 0.1737 0.7762 0.5952   0.095728
 H 0.1549 0.604 0.4372   0.130105
 H 0.2652 0.5112 0.4275   0.061793
 H 0.3388 0.5573 0.5933   0.060188
 H 0.233 0.6509 0.6078   0.13825
 H 0.2574 0.9756 0.6091   0.322415
 H 0.2605 0.8993 0.6458   0.305326
 H 0.5353 0.612 0.1499   0.080425
 H 0.5834 0.7141 0.2136   0.133212
 H 0.7841 0.7402 0.105   0.128718
 H 0.7271 0.6399 0.0415   0.071558
 H 0.6524 0.7958 0.2796   0.077492
 H 0.703 0.9084 0.334   0.112078
 H 0.8012 0.9994 0.2925   0.091259
 H 0.7958 0.8642 0.1371   0.112645
 H 0.0425 0.1183 0.0405   0.107846
 H 0.0614 0.228 0.9711   0.116442
 H 0.9606 0.3317 0.9615   0.105819
 H 0.8263 0.2238 0.0952   0.095728
 H 0.8451 0.396 0.9372   0.130105
 H 0.7348 0.4888 0.9275   0.061793
 H 0.6612 0.4427 0.0933   0.060188
 H 0.767 0.3491 0.1078   0.13825
 H 0.7426 0.0244 0.1091   0.322415
 H 0.7395 0.1007 0.1458   0.305326
 H 0.112 0.9647 0.3999   0.080425
 H 0.2141 0.9166 0.4636   0.133212
 H 0.2402 0.7159 0.355   0.128718
 H 0.1399 0.7729 0.2915   0.071558
 H 0.2958 0.8476 0.5296   0.077492
 H 0.4084 0.797 0.584   0.112077
 H 0.4994 0.6988 0.5425   0.091259
 H 0.3642 0.7042 0.3871   0.112645
 H 0.6183 0.4575 0.2905   0.107846
 H 0.728 0.4386 0.2211   0.116442
 H 0.8317 0.5394 0.2115   0.105819
 H 0.7238 0.6737 0.3452   0.095728
 H 0.896 0.6549 0.1872   0.130105
 H 0.9888 0.7652 0.1775   0.061793
 H 0.9427 0.8388 0.3433   0.060188
 H 0.8491 0.733 0.3578   0.13825
 H 0.5244 0.7574 0.3591   0.322415
 H 0.6007 0.7605 0.3958   0.305325
 H 0.888 0.0353 0.8999   0.080425
 H 0.7859 0.0834 0.9636   0.133212
 H 0.7598 0.2841 0.855   0.128718
 H 0.8601 0.2271 0.7915   0.071558
 H 0.7042 0.1524 0.0296   0.077492
 H 0.5916 0.203 0.084   0.112077
 H 0.5006 0.3012 0.0425   0.091259
 H 0.6358 0.2958 0.8871   0.112645
 H 0.3817 0.5425 0.7905   0.107846
 H 0.272 0.5614 0.7211   0.116442
 H 0.1683 0.4606 0.7115   0.105819
 H 0.2762 0.3263 0.8452   0.095728
 H 0.104 0.3451 0.6872   0.130105
 H 0.0112 0.2348 0.6775   0.061793
 H 0.0573 0.1612 0.8433   0.060188
 H 0.1509 0.267 0.8578   0.13825
 H 0.4756 0.2426 0.8591   0.322415
 H 0.3993 0.2395 0.8958   0.305325
 H 0.0353 0.888 0.1001   0.080425
 H 0.0834 0.7859 0.0364   0.133212
 H 0.2841 0.7598 0.145   0.128718
 H 0.2271 0.8601 0.2085   0.071558
 H 0.1524 0.7042 0.9704   0.077492
 H 0.203 0.5916 0.916   0.112078
 H 0.3012 0.5006 0.9575   0.091259
 H 0.2958 0.6358 0.1129   0.112645
 H 0.5425 0.3817 0.2095   0.107845
 H 0.5614 0.272 0.2789   0.116442
 H 0.4606 0.1683 0.2885   0.105819
 H 0.3263 0.2762 0.1548   0.095728
 H 0.3451 0.104 0.3128   0.130105
 H 0.2348 0.0112 0.3225   0.061793
 H 0.1612 0.0573 0.1567   0.060188
 H 0.267 0.1509 0.1422   0.13825
 H 0.2426 0.4756 0.1409   0.322415
 H 0.2395 0.3993 0.1042   0.305326
 H 0.9647 0.112 0.6001   0.080425
 H 0.9166 0.2141 0.5364   0.133212
 H 0.7159 0.2402 0.645   0.128718
 H 0.7729 0.1399 0.7085   0.071558
 H 0.8476 0.2958 0.4704   0.077492
 H 0.797 0.4084 0.416   0.112078
 H 0.6988 0.4994 0.4575   0.091259
 H 0.7042 0.3642 0.6129   0.112645
 H 0.4575 0.6183 0.7095   0.107845
 H 0.4386 0.728 0.7789   0.116442
 H 0.5394 0.8317 0.7885   0.105819
 H 0.6737 0.7238 0.6548   0.095728
 H 0.6549 0.896 0.8128   0.130105
 H 0.7652 0.9888 0.8225   0.061793
 H 0.8388 0.9427 0.6567   0.060188
 H 0.733 0.8491 0.6422   0.13825
 H 0.7574 0.5244 0.6409   0.322415
 H 0.7605 0.6007 0.6042   0.305326
 H 0.388 0.4647 0.3501   0.080425
 H 0.2859 0.4166 0.2864   0.133212
 H 0.2598 0.2159 0.395   0.128718
 H 0.3601 0.2729 0.4585   0.071558
 H 0.2042 0.3476 0.2204   0.077492
 H 0.0916 0.297 0.166   0.112077
 H 0.000599999999999 0.1988 0.2075   0.091259
 H 0.1358 0.2042 0.3629   0.112645
 H 0.8817 0.9575 0.4595   0.107845
 H 0.772 0.9386 0.5289   0.116442
 H 0.6683 0.0394 0.5385   0.105819
 H 0.7762 0.1737 0.4048   0.095728
 H 0.604 0.1549 0.5628   0.130105
 H 0.5112 0.2652 0.5725   0.061793
 H 0.5573 0.3388 0.4067   0.060188
 H 0.6509 0.233 0.3922   0.13825
 H 0.9756 0.2574 0.3909   0.322415
 H 0.8993 0.2605 0.3542   0.305325
 H 0.612 0.5353 0.8501   0.080425
 H 0.7141 0.5834 0.7864   0.133212
 H 0.7402 0.7841 0.895   0.128718
 H 0.6399 0.7271 0.9585   0.071558
 H 0.7958 0.6524 0.7204   0.077492
 H 0.9084 0.703 0.666   0.112077
 H 0.9994 0.8012 0.7075   0.091259
 H 0.8642 0.7958 0.8629   0.112645
 H 0.1183 0.0425 0.9595   0.107845
 H 0.228 0.0614 0.0289   0.116442
 H 0.3317 0.9606 0.0385   0.105819
 H 0.2238 0.8263 0.9048   0.095728
 H 0.396 0.8451 0.0628   0.130105
 H 0.4888 0.7348 0.0725   0.061793
 H 0.4427 0.6612 0.9067   0.060188
 H 0.3491 0.767 0.8922   0.13825
 H 0.0244 0.7426 0.8909   0.322415
 H 0.1007 0.7395 0.8542   0.305325
 C 0.4155 0.3593 0.6394   0.166804
 C 0.3866 0.2983 0.6782   -0.186031
 C 0.3125 0.2543 0.665   0.107537
 C 0.2688 0.2824 0.6139   -0.193903
 C 0.3028 0.3437 0.5761   0.146328
 C 0.2813 0.1822 0.7023   0.008359
 C 0.3084 0.1679 0.7618   -0.069683
 C 0.2777 0.1007 0.7943   -0.072494
 C 0.2189 0.046 0.7698   -0.056267
 C 0.19 0.0601 0.7101   -0.052678
 C 0.2223 0.1272 0.6771   -0.119655
 C 0.1275 0.0041 0.6805   0.245469
 C 0.0768 0.909 0.6183   0.260154
 C 0.0689 0.8394 0.5744   -0.016255
 C 0.9974 0.8389 0.5374   -0.069476
 C 0.9865 0.7733 0.4957   -0.062506
 C 0.046 0.7107 0.4906   -0.103048
 C 0.1157 0.7105 0.5286   0.007996
 C 0.1264 0.7758 0.57   -0.101683
 C 0.1823 0.6425 0.5226   0.11229
 C 0.1925 0.5968 0.4695   -0.214762
 C 0.2589 0.54 0.4643   0.179255
 C 0.3017 0.5672 0.5611   0.169537
 C 0.2386 0.6242 0.5701   -0.187457
 C 0.5845 0.6407 0.1394   0.166804
 C 0.6134 0.7017 0.1782   -0.186031
 C 0.6875 0.7457 0.165   0.107537
 C 0.7312 0.7176 0.1139   -0.193903
 C 0.6972 0.6563 0.0761   0.146328
 C 0.7187 0.8178 0.2023   0.008359
 C 0.6916 0.8321 0.2618   -0.069683
 C 0.7223 0.8993 0.2943   -0.072494
 C 0.7811 0.954 0.2698   -0.056267
 C 0.81 0.9399 0.2101   -0.052678
 C 0.7777 0.8728 0.1771   -0.119655
 C 0.8725 0.9959 0.1805   0.245469
 C 0.9232 0.091 0.1183   0.260154
 C 0.9311 0.1606 0.0744   -0.016255
 C 0.0026 0.1611 0.0374   -0.069476
 C 0.0135 0.2267 0.9957   -0.062506
 C 0.954 0.2893 0.9906   -0.103048
 C 0.8843 0.2895 0.0286   0.007996
 C 0.8736 0.2242 0.07   -0.101683
 C 0.8177 0.3575 0.0226   0.11229
 C 0.8075 0.4032 0.9695   -0.214762
 C 0.7411 0.46 0.9643   0.179255
 C 0.6983 0.4328 0.0611   0.169537
 C 0.7614 0.3758 0.0701   -0.187457
 C 0.1407 0.9155 0.3894   0.166804
 C 0.2017 0.8866 0.4282   -0.186031
 C 0.2457 0.8125 0.415   0.107537
 C 0.2176 0.7688 0.3639   -0.193903
 C 0.1563 0.8028 0.3261   0.146328
 C 0.3178 0.7813 0.4523   0.008359
 C 0.3321 0.8084 0.5118   -0.069683
 C 0.3993 0.7777 0.5443   -0.072494
 C 0.454 0.7189 0.5198   -0.056267
 C 0.4399 0.69 0.4601   -0.052678
 C 0.3728 0.7223 0.4271   -0.119655
 C 0.4959 0.6275 0.4305   0.245469
 C 0.591 0.5768 0.3683   0.260154
 C 0.6606 0.5689 0.3244   -0.016255
 C 0.6611 0.4974 0.2874   -0.069476
 C 0.7267 0.4865 0.2457   -0.062506
 C 0.7893 0.546 0.2406   -0.103048
 C 0.7895 0.6157 0.2786   0.007996
 C 0.7242 0.6264 0.32   -0.101683
 C 0.8575 0.6823 0.2726   0.11229
 C 0.9032 0.6925 0.2195   -0.214762
 C 0.96 0.7589 0.2143   0.179255
 C 0.9328 0.8017 0.3111   0.169537
 C 0.8758 0.7386 0.3201   -0.187457
 C 0.8593 0.0845 0.8894   0.166804
 C 0.7983 0.1134 0.9282   -0.186031
 C 0.7543 0.1875 0.915   0.107537
 C 0.7824 0.2312 0.8639   -0.193903
 C 0.8437 0.1972 0.8261   0.146328
 C 0.6822 0.2187 0.9523   0.008359
 C 0.6679 0.1916 0.0118   -0.069683
 C 0.6007 0.2223 0.0443   -0.072494
 C 0.546 0.2811 0.0198   -0.056267
 C 0.5601 0.31 0.9601   -0.052678
 C 0.6272 0.2777 0.9271   -0.119655
 C 0.5041 0.3725 0.9305   0.245469
 C 0.409 0.4232 0.8683   0.260154
 C 0.3394 0.4311 0.8244   -0.016255
 C 0.3389 0.5026 0.7874   -0.069476
 C 0.2733 0.5135 0.7457   -0.062506
 C 0.2107 0.454 0.7406   -0.103048
 C 0.2105 0.3843 0.7786   0.007996
 C 0.2758 0.3736 0.82   -0.101683
 C 0.1425 0.3177 0.7726   0.11229
 C 0.0968 0.3075 0.7195   -0.214762
 C 0.04 0.2411 0.7143   0.179255
 C 0.0672 0.1983 0.8111   0.169537
 C 0.1242 0.2614 0.8201   -0.187457
 C 0.0845 0.8593 0.1106   0.166804
 C 0.1134 0.7983 0.0718   -0.186031
 C 0.1875 0.7543 0.085   0.107537
 C 0.2312 0.7824 0.1361   -0.193903
 C 0.1972 0.8437 0.1739   0.146328
 C 0.2187 0.6822 0.0477   0.008359
 C 0.1916 0.6679 0.9882   -0.069683
 C 0.2223 0.6007 0.9557   -0.072494
 C 0.2811 0.546 0.9802   -0.056267
 C 0.31 0.5601 0.0399   -0.052678
 C 0.2777 0.6272 0.0729   -0.119655
 C 0.3725 0.5041 0.0695   0.245469
 C 0.4232 0.409 0.1317   0.260154
 C 0.4311 0.3394 0.1756   -0.016255
 C 0.5026 0.3389 0.2126   -0.069476
 C 0.5135 0.2733 0.2543   -0.062506
 C 0.454 0.2107 0.2594   -0.103048
 C 0.3843 0.2105 0.2214   0.007996
 C 0.3736 0.2758 0.18   -0.101683
 C 0.3177 0.1425 0.2274   0.11229
 C 0.3075 0.0968 0.2805   -0.214762
 C 0.2411 0.04 0.2857   0.179255
 C 0.1983 0.0672 0.1889   0.169537
 C 0.2614 0.1242 0.1799   -0.187457
 C 0.9155 0.1407 0.6106   0.166804
 C 0.8866 0.2017 0.5718   -0.186031
 C 0.8125 0.2457 0.585   0.107537
 C 0.7688 0.2176 0.6361   -0.193903
 C 0.8028 0.1563 0.6739   0.146328
 C 0.7813 0.3178 0.5477   0.008359
 C 0.8084 0.3321 0.4882   -0.069683
 C 0.7777 0.3993 0.4557   -0.072494
 C 0.7189 0.454 0.4802   -0.056267
 C 0.69 0.4399 0.5399   -0.052678
 C 0.7223 0.3728 0.5729   -0.119655
 C 0.6275 0.4959 0.5695   0.245469
 C 0.5768 0.591 0.6317   0.260154
 C 0.5689 0.6606 0.6756   -0.016255
 C 0.4974 0.6611 0.7126   -0.069476
 C 0.4865 0.7267 0.7543   -0.062506
 C 0.546 0.7893 0.7594   -0.103048
 C 0.6157 0.7895 0.7214   0.007996
 C 0.6264 0.7242 0.68   -0.101683
 C 0.6823 0.8575 0.7274   0.11229
 C 0.6925 0.9032 0.7805   -0.214762
 C 0.7589 0.96 0.7857   0.179255
 C 0.8017 0.9328 0.6889   0.169537
 C 0.7386 0.8758 0.6799   -0.187457
 C 0.3593 0.4155 0.3606   0.166804
 C 0.2983 0.3866 0.3218   -0.186031
 C 0.2543 0.3125 0.335   0.107537
 C 0.2824 0.2688 0.3861   -0.193903
 C 0.3437 0.3028 0.4239   0.146328
 C 0.1822 0.2813 0.2977   0.008359
 C 0.1679 0.3084 0.2382   -0.069683
 C 0.1007 0.2777 0.2057   -0.072494
 C 0.046 0.2189 0.2302   -0.056267
 C 0.0601 0.19 0.2899   -0.052678
 C 0.1272 0.2223 0.3229   -0.119655
 C 0.0041 0.1275 0.3195   0.245469
 C 0.909 0.0768 0.3817   0.260154
 C 0.8394 0.0689 0.4256   -0.016255
 C 0.8389 0.9974 0.4626   -0.069476
 C 0.7733 0.9865 0.5043   -0.062506
 C 0.7107 0.046 0.5094   -0.103048
 C 0.7105 0.1157 0.4714   0.007996
 C 0.7758 0.1264 0.43   -0.101683
 C 0.6425 0.1823 0.4774   0.11229
 C 0.5968 0.1925 0.5305   -0.214763
 C 0.54 0.2589 0.5357   0.179255
 C 0.5672 0.3017 0.4389   0.169537
 C 0.6242 0.2386 0.4299   -0.187457
 C 0.6407 0.5845 0.8606   0.166804
 C 0.7017 0.6134 0.8218   -0.186031
 C 0.7457 0.6875 0.835   0.107537
 C 0.7176 0.7312 0.8861   -0.193903
 C 0.6563 0.6972 0.9239   0.146328
 C 0.8178 0.7187 0.7977   0.008359
 C 0.8321 0.6916 0.7382   -0.069683
 C 0.8993 0.7223 0.7057   -0.072494
 C 0.954 0.7811 0.7302   -0.056267
 C 0.9399 0.81 0.7899   -0.052678
 C 0.8728 0.7777 0.8229   -0.119655
 C 0.9959 0.8725 0.8195   0.245469
 C 0.091 0.9232 0.8817   0.260154
 C 0.1606 0.9311 0.9256   -0.016255
 C 0.1611 0.0026 0.9626   -0.069476
 C 0.2267 0.0135 0.0043   -0.062506
 C 0.2893 0.954 0.0094   -0.103048
 C 0.2895 0.8843 0.9714   0.007996
 C 0.2242 0.8736 0.93   -0.101683
 C 0.3575 0.8177 0.9774   0.11229
 C 0.4032 0.8075 0.0305   -0.214763
 C 0.46 0.7411 0.0357   0.179255
 C 0.4328 0.6983 0.9389   0.169537
 C 0.3758 0.7614 0.9299   -0.187457
 N 0.3774 0.3801 0.5875   -0.35146
 N 0.046 0.0061 0.685   -0.234272
 N 0.0133 0.9451 0.6456   -0.307951
 N 0.1501 0.9442 0.63919   0.090355
 N 0.2316 0.927 0.6174   -0.55228
 N 0.3139 0.5242 0.5087   -0.36695
 N 0.6226 0.6199 0.0875   -0.35146
 N 0.954 0.9939 0.185   -0.234272
 N 0.9867 0.0549 0.1456   -0.307951
 N 0.8499 0.0558 0.13919   0.090355
 N 0.7684 0.073 0.1174   -0.55228
 N 0.6861 0.4758 0.0087   -0.36695
 N 0.1199 0.8774 0.3375   -0.35146
 N 0.4939 0.546 0.435   -0.234272
 N 0.5549 0.5133 0.3956   -0.307951
 N 0.5558 0.6501 0.38919   0.090355
 N 0.573 0.7316 0.3674   -0.55228
 N 0.9758 0.8139 0.2587   -0.36695
 N 0.8801 0.1226 0.8375   -0.35146
 N 0.5061 0.454 0.935   -0.234272
 N 0.4451 0.4867 0.8956   -0.307951
 N 0.4442 0.3499 0.88919   0.090355
 N 0.427 0.2684 0.8674   -0.55228
 N 0.0242 0.1861 0.7587   -0.36695
 N 0.1226 0.8801 0.1625   -0.35146
 N 0.454 0.5061 0.065   -0.234272
 N 0.4867 0.4451 0.1044   -0.307951
 N 0.3499 0.4442 0.11081   0.090355
 N 0.2684 0.427 0.1326   -0.55228
 N 0.1861 0.0242 0.2413   -0.36695
 N 0.8774 0.1199 0.6625   -0.35146
 N 0.546 0.4939 0.565   -0.234272
 N 0.5133 0.5549 0.6044   -0.307951
 N 0.6501 0.5558 0.61081   0.090355
 N 0.7316 0.573 0.6326   -0.55228
 N 0.8139 0.9758 0.7413   -0.36695
 N 0.3801 0.3774 0.4125   -0.35146
 N 0.0061 0.046 0.315   -0.234272
 N 0.9451 0.0133 0.3544   -0.307951
 N 0.9442 0.1501 0.36081   0.090355
 N 0.927 0.2316 0.3826   -0.55228
 N 0.5242 0.3139 0.4913   -0.36695
 N 0.6199 0.6226 0.9125   -0.35146
 N 0.9939 0.954 0.815   -0.234272
 N 0.0549 0.9867 0.8544   -0.307951
 N 0.0558 0.8499 0.86081   0.090355
 N 0.073 0.7684 0.8826   -0.55228
 N 0.4758 0.6861 0.9913   -0.36695
 Cl 0.87906 0.87906 0.0   1.831756
 Cl 0.26881 0.26881 0.0   1.292791
 Cl 0.12094 0.12094 0.5   1.831756
 Cl 0.73119 0.73119 0.5   1.292791
 Cl 0.62094 0.37906 0.75   1.831756
 Cl 0.23119 0.76881 0.75   1.292791
 Cl 0.37906 0.62094 0.25   1.831756
 Cl 0.76881 0.23119 0.25   1.292791
 O 0.8227 0.886 0.9563   -0.677308
 O 0.9447 0.8644 0.9678   -0.657864
 O 0.886 0.8227 0.0437   -0.677308
 O 0.8644 0.9447 0.0322   -0.657864
 O 0.2331 0.2372 0.9501   -0.541004
 O 0.2118 0.3325 0.002   -0.51122
 O 0.2372 0.2331 0.0499   -0.541004
 O 0.3325 0.2118 0.998   -0.51122
 O 0.1773 0.114 0.4563   -0.677308
 O 0.0553 0.1356 0.4678   -0.657864
 O 0.114 0.1773 0.5437   -0.677308
 O 0.1356 0.0553 0.5322   -0.657864
 O 0.7669 0.7628 0.4501   -0.541004
 O 0.7882 0.6675 0.502   -0.51122
 O 0.7628 0.7669 0.5499   -0.541004
 O 0.6675 0.7882 0.498   -0.51122
 O 0.614 0.3227 0.7063   -0.677308
 O 0.6356 0.4447 0.7178   -0.657864
 O 0.6773 0.386 0.7937   -0.677308
 O 0.5553 0.3644 0.7822   -0.657864
 O 0.2628 0.7331 0.7001   -0.541004
 O 0.1675 0.7118 0.752   -0.51122
 O 0.2669 0.7372 0.7999   -0.541004
 O 0.2882 0.8325 0.748   -0.51122
 O 0.386 0.6773 0.2063   -0.677308
 O 0.3644 0.5553 0.2178   -0.657864
 O 0.3227 0.614 0.2937   -0.677308
 O 0.4447 0.6356 0.2822   -0.657864
 O 0.7372 0.2669 0.2001   -0.541004
 O 0.8325 0.2882 0.252   -0.51122
 O 0.7331 0.2628 0.2999   -0.541004
 O 0.7118 0.1675 0.248   -0.51122
