{'_ref': 'TBD', '_srcid': 'CAKYAQ_clean', 'submitters': [{'name': 'Dalar Nazarian Jeff Camp and David Sholl', 'email': 'dalar@gatech.edu jcamp6@gatech.edu'}], '_method': 'VASP DFT with PBE;DDEC'}
data_CdH36C48N12ClO4
_symmetry_space_group_name_H-M   'P 1'
_cell_length_a   15.84960000
_cell_length_b   15.84960000
_cell_length_c   21.70900000
_cell_angle_alpha   90.00000000
_cell_angle_beta   90.00000000
_cell_angle_gamma   90.00000000
_symmetry_Int_Tables_number   1
_chemical_formula_structural   CdH36C48N12ClO4
_chemical_formula_sum   'Cd4 H144 C192 N48 Cl4 O16'
_cell_volume   5453.51398585
_cell_formula_units_Z   4
loop_
 _symmetry_equiv_pos_site_id
 _symmetry_equiv_pos_as_xyz
  1  'x, y, z'
loop_
 _atom_site_label
 _atom_site_fract_x
 _atom_site_fract_y
 _atom_site_fract_z
 _atom_site_charge
 Cd 0.94121 0.05879 0.75   0.788092
 Cd 0.05879 0.94121 0.25   0.788092
 Cd 0.44121 0.44121 0.5   0.788092
 Cd 0.55879 0.55879 0.0   0.788092
 H 0.4642 0.3867 0.6493   0.076924
 H 0.4152 0.2865 0.7152   0.130146
 H 0.2124 0.2609 0.6042   0.129339
 H 0.2698 0.3611 0.5409   0.068426
 H 0.3473 0.2045 0.7804   0.073679
 H 0.2957 0.0904 0.8356   0.094292
 H 0.1973 0.999 0.7926   0.086211
 H 0.1977 0.1398 0.6373   0.11548
 H 0.9561 0.8812 0.5408   0.102915
 H 0.935 0.7696 0.4731   0.096703
 H 0.0374 0.6656 0.4617   0.102874
 H 0.1754 0.7765 0.5956   0.087496
 H 0.1504 0.6017 0.4373   0.127344
 H 0.2596 0.5044 0.4279   0.063167
 H 0.3424 0.5599 0.5923   0.048989
 H 0.2352 0.6541 0.6083   0.117066
 H 0.2597 0.8976 0.6477   0.30597
 H 0.2578 0.9753 0.6094   0.326595
 H 0.5358 0.6133 0.1493   0.076924
 H 0.5848 0.7135 0.2152   0.130146
 H 0.7876 0.7391 0.1042   0.129339
 H 0.7302 0.6389 0.0409   0.068426
 H 0.6527 0.7955 0.2804   0.073679
 H 0.7043 0.9096 0.3356   0.094292
 H 0.8027 0.000999999999998 0.2926   0.086211
 H 0.8023 0.8602 0.1373   0.11548
 H 0.0439 0.1188 0.0408   0.102915
 H 0.065 0.2304 0.9731   0.096703
 H 0.9626 0.3344 0.9617   0.102874
 H 0.8246 0.2235 0.0956   0.087496
 H 0.8496 0.3983 0.9373   0.127344
 H 0.7404 0.4956 0.9279   0.063167
 H 0.6576 0.4401 0.0923   0.048989
 H 0.7648 0.3459 0.1083   0.117066
 H 0.7403 0.1024 0.1477   0.30597
 H 0.7422 0.0247 0.1094   0.326595
 H 0.1133 0.9642 0.3993   0.076924
 H 0.2135 0.9152 0.4652   0.130146
 H 0.2391 0.7124 0.3542   0.129339
 H 0.1389 0.7698 0.2909   0.068426
 H 0.2955 0.8473 0.5304   0.073679
 H 0.4096 0.7957 0.5856   0.094291
 H 0.501 0.6973 0.5426   0.086211
 H 0.3602 0.6977 0.3873   0.11548
 H 0.6188 0.4561 0.2908   0.102915
 H 0.7304 0.435 0.2231   0.096706
 H 0.8344 0.5374 0.2117   0.102874
 H 0.7235 0.6754 0.3456   0.087496
 H 0.8983 0.6504 0.1873   0.127344
 H 0.9956 0.7596 0.1779   0.063167
 H 0.9401 0.8424 0.3423   0.048989
 H 0.8459 0.7352 0.3583   0.117069
 H 0.6024 0.7597 0.3977   0.305971
 H 0.5247 0.7578 0.3594   0.326594
 H 0.8867 0.0358 0.8993   0.076924
 H 0.7865 0.0848 0.9652   0.130146
 H 0.7609 0.2876 0.8542   0.129339
 H 0.8611 0.2302 0.7909   0.068426
 H 0.7045 0.1527 0.0304   0.073679
 H 0.5904 0.2043 0.0856   0.094291
 H 0.499 0.3027 0.0426   0.086211
 H 0.6398 0.3023 0.8873   0.11548
 H 0.3812 0.5439 0.7908   0.102915
 H 0.2696 0.565 0.7231   0.096706
 H 0.1656 0.4626 0.7117   0.102874
 H 0.2765 0.3246 0.8456   0.087496
 H 0.1017 0.3496 0.6873   0.127344
 H 0.0044 0.2404 0.6779   0.063167
 H 0.0599 0.1576 0.8423   0.048989
 H 0.1541 0.2648 0.8583   0.117069
 H 0.3976 0.2403 0.8977   0.305971
 H 0.4753 0.2422 0.8594   0.326594
 H 0.0358 0.8867 0.1007   0.076924
 H 0.0848 0.7865 0.0348   0.130146
 H 0.2876 0.7609 0.1458   0.129339
 H 0.2302 0.8611 0.2091   0.068426
 H 0.1527 0.7045 0.9696   0.073679
 H 0.2043 0.5904 0.9144   0.094291
 H 0.3027 0.499 0.9574   0.086212
 H 0.3023 0.6398 0.1127   0.11548
 H 0.5439 0.3812 0.2092   0.102915
 H 0.565 0.2696 0.2769   0.096706
 H 0.4626 0.1656 0.2883   0.102874
 H 0.3246 0.2765 0.1544   0.087496
 H 0.3496 0.1017 0.3127   0.127344
 H 0.2404 0.0044 0.3221   0.063167
 H 0.1576 0.0599 0.1577   0.048989
 H 0.2648 0.1541 0.1417   0.117067
 H 0.2403 0.3976 0.1023   0.305972
 H 0.2422 0.4753 0.1406   0.326595
 H 0.9642 0.1133 0.6007   0.076924
 H 0.9152 0.2135 0.5348   0.130146
 H 0.7124 0.2391 0.6458   0.129339
 H 0.7698 0.1389 0.7091   0.068426
 H 0.8473 0.2955 0.4696   0.073679
 H 0.7957 0.4096 0.4144   0.094291
 H 0.6973 0.501 0.4574   0.086212
 H 0.6977 0.3602 0.6127   0.11548
 H 0.4561 0.6188 0.7092   0.102915
 H 0.435 0.7304 0.7769   0.096706
 H 0.5374 0.8344 0.7883   0.102874
 H 0.6754 0.7235 0.6544   0.087496
 H 0.6504 0.8983 0.8127   0.127344
 H 0.7596 0.9956 0.8221   0.063167
 H 0.8424 0.9401 0.6577   0.048989
 H 0.7352 0.8459 0.6417   0.117067
 H 0.7597 0.6024 0.6023   0.305972
 H 0.7578 0.5247 0.6406   0.326595
 H 0.3867 0.4642 0.3507   0.076924
 H 0.2865 0.4152 0.2848   0.130146
 H 0.2609 0.2124 0.3958   0.129339
 H 0.3611 0.2698 0.4591   0.068426
 H 0.2045 0.3473 0.2196   0.073679
 H 0.0904 0.2957 0.1644   0.094291
 H 0.999 0.1973 0.2074   0.086212
 H 0.1398 0.1977 0.3627   0.11548
 H 0.8812 0.9561 0.4592   0.102915
 H 0.7696 0.935 0.5269   0.096709
 H 0.6656 0.0374 0.5383   0.102874
 H 0.7765 0.1754 0.4044   0.087497
 H 0.6017 0.1504 0.5627   0.127344
 H 0.5044 0.2596 0.5721   0.063167
 H 0.5599 0.3424 0.4077   0.048989
 H 0.6541 0.2352 0.3917   0.117069
 H 0.8976 0.2597 0.3523   0.305973
 H 0.9753 0.2578 0.3906   0.326594
 H 0.6133 0.5358 0.8507   0.076924
 H 0.7135 0.5848 0.7848   0.130146
 H 0.7391 0.7876 0.8958   0.129339
 H 0.6389 0.7302 0.9591   0.068426
 H 0.7955 0.6527 0.7196   0.073679
 H 0.9096 0.7043 0.6644   0.094291
 H 0.000999999999998 0.8027 0.7074   0.086212
 H 0.8602 0.8023 0.8627   0.11548
 H 0.1188 0.0439 0.9592   0.102915
 H 0.2304 0.065 0.0269   0.096709
 H 0.3344 0.9626 0.0383   0.102874
 H 0.2235 0.8246 0.9044   0.087497
 H 0.3983 0.8496 0.0627   0.127344
 H 0.4956 0.7404 0.0721   0.063167
 H 0.4401 0.6576 0.9077   0.048989
 H 0.3459 0.7648 0.8917   0.117069
 H 0.1024 0.7403 0.8523   0.305973
 H 0.0247 0.7422 0.8906   0.326594
 C 0.4132 0.3585 0.639   0.15406
 C 0.3845 0.2989 0.6787   -0.200856
 C 0.3093 0.2556 0.6657   0.086777
 C 0.2663 0.2838 0.6138   -0.205839
 C 0.3007 0.3441 0.5763   0.14187
 C 0.2785 0.1837 0.7027   0.021051
 C 0.3067 0.1682 0.7622   -0.089607
 C 0.2761 0.1001 0.7949   -0.089028
 C 0.2176 0.0459 0.7697   -0.117299
 C 0.1886 0.0608 0.7101   -0.049364
 C 0.2185 0.1294 0.6777   -0.12966
 C 0.1267 0.0051 0.6803   0.242292
 C 0.0756 0.9086 0.6186   0.239676
 C 0.0676 0.839 0.5742   0.003952
 C 0.9967 0.8373 0.5379   -0.097686
 C 0.9848 0.7717 0.4974   -0.088982
 C 0.0446 0.7089 0.4916   -0.122418
 C 0.1155 0.7091 0.5295   0.020863
 C 0.1266 0.775 0.5701   -0.134407
 C 0.1812 0.642 0.5233   0.093433
 C 0.1894 0.5947 0.4701   -0.215198
 C 0.2555 0.5366 0.4647   0.168264
 C 0.3028 0.5686 0.5601   0.171939
 C 0.2395 0.6257 0.5699   -0.227058
 C 0.5868 0.6415 0.139   0.15406
 C 0.6155 0.7011 0.1787   -0.200856
 C 0.6907 0.7444 0.1657   0.086777
 C 0.7337 0.7162 0.1138   -0.205839
 C 0.6993 0.6559 0.0763   0.14187
 C 0.7215 0.8163 0.2027   0.021051
 C 0.6933 0.8318 0.2622   -0.089607
 C 0.7239 0.8999 0.2949   -0.089028
 C 0.7824 0.9541 0.2697   -0.117299
 C 0.8114 0.9392 0.2101   -0.049364
 C 0.7815 0.8706 0.1777   -0.12966
 C 0.8733 0.9949 0.1803   0.242292
 C 0.9244 0.0914 0.1186   0.239676
 C 0.9324 0.161 0.0742   0.003952
 C 0.0033 0.1627 0.0379   -0.097686
 C 0.0152 0.2283 0.9974   -0.088982
 C 0.9554 0.2911 0.9916   -0.122418
 C 0.8845 0.2909 0.0295   0.020863
 C 0.8734 0.225 0.0701   -0.134407
 C 0.8188 0.358 0.0233   0.093433
 C 0.8106 0.4053 0.9701   -0.215198
 C 0.7445 0.4634 0.9647   0.168264
 C 0.6972 0.4314 0.0601   0.171939
 C 0.7605 0.3743 0.0699   -0.227058
 C 0.1415 0.9132 0.389   0.154059
 C 0.2011 0.8845 0.4287   -0.200856
 C 0.2444 0.8093 0.4157   0.086777
 C 0.2162 0.7663 0.3638   -0.205839
 C 0.1559 0.8007 0.3263   0.14187
 C 0.3163 0.7785 0.4527   0.021051
 C 0.3318 0.8067 0.5122   -0.089607
 C 0.3999 0.7761 0.5449   -0.089028
 C 0.4541 0.7176 0.5197   -0.117299
 C 0.4392 0.6886 0.4601   -0.049364
 C 0.3706 0.7185 0.4277   -0.129659
 C 0.4949 0.6267 0.4303   0.242292
 C 0.5914 0.5756 0.3686   0.239676
 C 0.661 0.5676 0.3242   0.003951
 C 0.6627 0.4967 0.2879   -0.097686
 C 0.7283 0.4848 0.2474   -0.088983
 C 0.7911 0.5446 0.2416   -0.122418
 C 0.7909 0.6155 0.2795   0.020863
 C 0.725 0.6266 0.3201   -0.134407
 C 0.858 0.6812 0.2733   0.093433
 C 0.9053 0.6894 0.2201   -0.215198
 C 0.9634 0.7555 0.2147   0.168265
 C 0.9314 0.8028 0.3101   0.17194
 C 0.8743 0.7395 0.3199   -0.227058
 C 0.8585 0.0868 0.889   0.154059
 C 0.7989 0.1155 0.9287   -0.200856
 C 0.7556 0.1907 0.9157   0.086777
 C 0.7838 0.2337 0.8638   -0.205839
 C 0.8441 0.1993 0.8263   0.14187
 C 0.6837 0.2215 0.9527   0.021051
 C 0.6682 0.1933 0.0122   -0.089607
 C 0.6001 0.2239 0.0449   -0.089028
 C 0.5459 0.2824 0.0197   -0.117299
 C 0.5608 0.3114 0.9601   -0.049364
 C 0.6294 0.2815 0.9277   -0.129659
 C 0.5051 0.3733 0.9303   0.242292
 C 0.4086 0.4244 0.8686   0.239676
 C 0.339 0.4324 0.8242   0.003951
 C 0.3373 0.5033 0.7879   -0.097686
 C 0.2717 0.5152 0.7474   -0.088983
 C 0.2089 0.4554 0.7416   -0.122418
 C 0.2091 0.3845 0.7795   0.020863
 C 0.275 0.3734 0.8201   -0.134407
 C 0.142 0.3188 0.7733   0.093433
 C 0.0947 0.3106 0.7201   -0.215198
 C 0.0366 0.2445 0.7147   0.168265
 C 0.0686 0.1972 0.8101   0.17194
 C 0.1257 0.2605 0.8199   -0.227058
 C 0.0868 0.8585 0.111   0.15406
 C 0.1155 0.7989 0.0713   -0.200856
 C 0.1907 0.7556 0.0843   0.086777
 C 0.2337 0.7838 0.1362   -0.205839
 C 0.1993 0.8441 0.1737   0.14187
 C 0.2215 0.6837 0.0473   0.021051
 C 0.1933 0.6682 0.9878   -0.089608
 C 0.2239 0.6001 0.9551   -0.089028
 C 0.2824 0.5459 0.9803   -0.117299
 C 0.3114 0.5608 0.0399   -0.049364
 C 0.2815 0.6294 0.0723   -0.12966
 C 0.3733 0.5051 0.0697   0.242292
 C 0.4244 0.4086 0.1314   0.239676
 C 0.4324 0.339 0.1758   0.003951
 C 0.5033 0.3373 0.2121   -0.097685
 C 0.5152 0.2717 0.2526   -0.088983
 C 0.4554 0.2089 0.2584   -0.122418
 C 0.3845 0.2091 0.2205   0.020863
 C 0.3734 0.275 0.1799   -0.134407
 C 0.3188 0.142 0.2267   0.093433
 C 0.3106 0.0947 0.2799   -0.215198
 C 0.2445 0.0366 0.2853   0.168264
 C 0.1972 0.0686 0.1899   0.17194
 C 0.2605 0.1257 0.1801   -0.227058
 C 0.9132 0.1415 0.611   0.15406
 C 0.8845 0.2011 0.5713   -0.200856
 C 0.8093 0.2444 0.5843   0.086777
 C 0.7663 0.2162 0.6362   -0.205839
 C 0.8007 0.1559 0.6737   0.14187
 C 0.7785 0.3163 0.5473   0.021051
 C 0.8067 0.3318 0.4878   -0.089608
 C 0.7761 0.3999 0.4551   -0.089028
 C 0.7176 0.4541 0.4803   -0.117299
 C 0.6886 0.4392 0.5399   -0.049364
 C 0.7185 0.3706 0.5723   -0.12966
 C 0.6267 0.4949 0.5697   0.242292
 C 0.5756 0.5914 0.6314   0.239676
 C 0.5676 0.661 0.6758   0.003951
 C 0.4967 0.6627 0.7121   -0.097685
 C 0.4848 0.7283 0.7526   -0.088983
 C 0.5446 0.7911 0.7584   -0.122418
 C 0.6155 0.7909 0.7205   0.020863
 C 0.6266 0.725 0.6799   -0.134407
 C 0.6812 0.858 0.7267   0.093433
 C 0.6894 0.9053 0.7799   -0.215198
 C 0.7555 0.9634 0.7853   0.168264
 C 0.8028 0.9314 0.6899   0.17194
 C 0.7395 0.8743 0.6801   -0.227058
 C 0.3585 0.4132 0.361   0.154059
 C 0.2989 0.3845 0.3213   -0.200856
 C 0.2556 0.3093 0.3343   0.086777
 C 0.2838 0.2663 0.3862   -0.205839
 C 0.3441 0.3007 0.4237   0.14187
 C 0.1837 0.2785 0.2973   0.021051
 C 0.1682 0.3067 0.2378   -0.089607
 C 0.1001 0.2761 0.2051   -0.089028
 C 0.0459 0.2176 0.2303   -0.117299
 C 0.0608 0.1886 0.2899   -0.049364
 C 0.1294 0.2185 0.3223   -0.129659
 C 0.0051 0.1267 0.3197   0.242292
 C 0.9086 0.0756 0.3814   0.239676
 C 0.839 0.0676 0.4258   0.003951
 C 0.8373 0.9967 0.4621   -0.097685
 C 0.7717 0.9848 0.5026   -0.088984
 C 0.7089 0.0446 0.5084   -0.122417
 C 0.7091 0.1155 0.4705   0.020863
 C 0.775 0.1266 0.4299   -0.134407
 C 0.642 0.1812 0.4767   0.093433
 C 0.5947 0.1894 0.5299   -0.215198
 C 0.5366 0.2555 0.5353   0.168265
 C 0.5686 0.3028 0.4399   0.17194
 C 0.6257 0.2395 0.4301   -0.227058
 C 0.6415 0.5868 0.861   0.154059
 C 0.7011 0.6155 0.8213   -0.200856
 C 0.7444 0.6907 0.8343   0.086777
 C 0.7162 0.7337 0.8862   -0.205839
 C 0.6559 0.6993 0.9237   0.14187
 C 0.8163 0.7215 0.7973   0.021051
 C 0.8318 0.6933 0.7378   -0.089607
 C 0.8999 0.7239 0.7051   -0.089028
 C 0.9541 0.7824 0.7303   -0.117299
 C 0.9392 0.8114 0.7899   -0.049364
 C 0.8706 0.7815 0.8223   -0.129659
 C 0.9949 0.8733 0.8197   0.242292
 C 0.0914 0.9244 0.8814   0.239676
 C 0.161 0.9324 0.9258   0.003951
 C 0.1627 0.0033 0.9621   -0.097685
 C 0.2283 0.0152 0.0026   -0.088984
 C 0.2911 0.9554 0.0084   -0.122417
 C 0.2909 0.8845 0.9705   0.020863
 C 0.225 0.8734 0.9299   -0.134407
 C 0.358 0.8188 0.9767   0.093433
 C 0.4053 0.8106 0.0299   -0.215198
 C 0.4634 0.7445 0.0353   0.168265
 C 0.4314 0.6972 0.9399   0.17194
 C 0.3743 0.7605 0.9301   -0.227058
 N 0.3752 0.3802 0.5868   -0.358639
 N 0.0448 0.0065 0.6839   -0.224438
 N 0.0121 0.9452 0.64587   -0.287387
 N 0.1495 0.9441 0.63954   0.085832
 N 0.2307 0.9261 0.6181   -0.550969
 N 0.3125 0.5242 0.5082   -0.364694
 N 0.6248 0.6198 0.0868   -0.358639
 N 0.9552 0.9935 0.1839   -0.224438
 N 0.9879 0.0548 0.14587   -0.287387
 N 0.8505 0.0559 0.13954   0.085832
 N 0.7693 0.0739 0.1181   -0.550969
 N 0.6875 0.4758 0.0082   -0.364694
 N 0.1198 0.8752 0.3368   -0.358639
 N 0.4935 0.5448 0.4339   -0.224438
 N 0.5548 0.5121 0.39587   -0.287387
 N 0.5559 0.6495 0.38954   0.085832
 N 0.5739 0.7307 0.3681   -0.550969
 N 0.9758 0.8125 0.2582   -0.364694
 N 0.8802 0.1248 0.8368   -0.358639
 N 0.5065 0.4552 0.9339   -0.224438
 N 0.4452 0.4879 0.89587   -0.287387
 N 0.4441 0.3505 0.88954   0.085832
 N 0.4261 0.2693 0.8681   -0.550969
 N 0.0242 0.1875 0.7582   -0.364694
 N 0.1248 0.8802 0.1632   -0.358639
 N 0.4552 0.5065 0.0661   -0.224438
 N 0.4879 0.4452 0.10413   -0.287387
 N 0.3505 0.4441 0.11046   0.085832
 N 0.2693 0.4261 0.1319   -0.55097
 N 0.1875 0.0242 0.2418   -0.364694
 N 0.8752 0.1198 0.6632   -0.358639
 N 0.5448 0.4935 0.5661   -0.224438
 N 0.5121 0.5548 0.60413   -0.287387
 N 0.6495 0.5559 0.61046   0.085832
 N 0.7307 0.5739 0.6319   -0.55097
 N 0.8125 0.9758 0.7418   -0.364694
 N 0.3802 0.3752 0.4132   -0.358639
 N 0.0065 0.0448 0.3161   -0.224438
 N 0.9452 0.0121 0.35413   -0.287387
 N 0.9441 0.1495 0.36046   0.085832
 N 0.9261 0.2307 0.3819   -0.550969
 N 0.5242 0.3125 0.4918   -0.364694
 N 0.6198 0.6248 0.9132   -0.358639
 N 0.9935 0.9552 0.8161   -0.224438
 N 0.0548 0.9879 0.85413   -0.287387
 N 0.0559 0.8505 0.86046   0.085832
 N 0.0739 0.7693 0.8819   -0.550969
 N 0.4758 0.6875 0.9918   -0.364694
 Cl 0.87804 0.87804 0.0   1.900257
 Cl 0.12196 0.12196 0.5   1.900257
 Cl 0.62196 0.37804 0.75   1.900257
 Cl 0.37804 0.62196 0.25   1.900257
 O 0.8153 0.8862 0.9622   -0.692338
 O 0.9389 0.8757 0.9633   -0.681935
 O 0.8862 0.8153 0.0378   -0.692338
 O 0.8757 0.9389 0.0367   -0.681935
 O 0.1847 0.1138 0.4622   -0.692338
 O 0.0611 0.1243 0.4633   -0.681935
 O 0.1138 0.1847 0.5378   -0.692338
 O 0.1243 0.0611 0.5367   -0.681935
 O 0.6138 0.3153 0.7122   -0.692338
 O 0.6243 0.4389 0.7133   -0.681935
 O 0.6847 0.3862 0.7878   -0.692338
 O 0.5611 0.3757 0.7867   -0.681935
 O 0.3862 0.6847 0.2122   -0.692338
 O 0.3757 0.5611 0.2133   -0.681935
 O 0.3153 0.6138 0.2878   -0.692338
 O 0.4389 0.6243 0.2867   -0.681935
