{'_ref': 'TBD', '_srcid': 'CAKYAQ_clean', 'submitters': [{'name': 'Dalar Nazarian Jeff Camp and David Sholl', 'email': 'dalar@gatech.edu jcamp6@gatech.edu'}], '_method': 'VASP DFT with PBE;DDEC'}
data_CdH36C48N12(ClO4)2
_symmetry_space_group_name_H-M   'P 1'
_cell_length_a   15.87700000
_cell_length_b   15.87700000
_cell_length_c   21.80600000
_cell_angle_alpha   90.00000000
_cell_angle_beta   90.00000000
_cell_angle_gamma   90.00000000
_symmetry_Int_Tables_number   1
_chemical_formula_structural   CdH36C48N12(ClO4)2
_chemical_formula_sum   'Cd4 H144 C192 N48 Cl8 O32'
_cell_volume   5496.83748697
_cell_formula_units_Z   4
loop_
 _symmetry_equiv_pos_site_id
 _symmetry_equiv_pos_as_xyz
  1  'x, y, z'
loop_
 _atom_site_label
 _atom_site_fract_x
 _atom_site_fract_y
 _atom_site_fract_z
 _atom_site_charge
 Cd 0.55781 0.44219 0.25   0.799809
 Cd 0.44219 0.55781 0.75   0.799809
 Cd 0.05781 0.05781 0.5   0.799809
 Cd 0.94219 0.94219 0.0   0.799809
 H 0.0366 0.1109 0.3506   0.085944
 H 0.0841 0.2146 0.2845   0.137953
 H 0.2844 0.2434 0.3968   0.120104
 H 0.2278 0.1411 0.4594   0.067044
 H 0.1534 0.2948 0.2202   0.081878
 H 0.2025 0.4104 0.1646   0.11562
 H 0.3043 0.5034 0.2086   0.097039
 H 0.2976 0.3652 0.3647   0.104223
 H 0.5451 0.6194 0.4609   0.106979
 H 0.5634 0.7285 0.5304   0.11842
 H 0.4644 0.8336 0.5386   0.102148
 H 0.3251 0.7247 0.4038   0.101597
 H 0.3441 0.8918 0.5651   0.132019
 H 0.2346 0.9894 0.5741   0.066605
 H 0.161 0.9431 0.406   0.060472
 H 0.2667 0.8485 0.3912   0.143326
 H 0.2416 0.5272 0.3912   0.322068
 H 0.2407 0.6041 0.3523   0.305008
 H 0.9634 0.8891 0.8506   0.085944
 H 0.9159 0.7854 0.7845   0.137953
 H 0.7156 0.7566 0.8968   0.120104
 H 0.7722 0.8589 0.9594   0.067044
 H 0.8466 0.7052 0.7202   0.081878
 H 0.7975 0.5896 0.6646   0.11562
 H 0.6957 0.4966 0.7086   0.097039
 H 0.7024 0.6348 0.8647   0.104223
 H 0.4549 0.3806 0.9609   0.106979
 H 0.4366 0.2715 0.0304   0.11842
 H 0.5356 0.1664 0.0386   0.102148
 H 0.6749 0.2753 0.9038   0.101597
 H 0.6559 0.1082 0.0651   0.132019
 H 0.7654 0.0106 0.0741   0.066605
 H 0.839 0.0569 0.906   0.060472
 H 0.7333 0.1515 0.8912   0.143326
 H 0.7584 0.4728 0.8912   0.322068
 H 0.7593 0.3959 0.8523   0.305008
 H 0.3891 0.5366 0.6006   0.085944
 H 0.2854 0.5841 0.5345   0.137953
 H 0.2566 0.7844 0.6468   0.120105
 H 0.3589 0.7278 0.7094   0.067044
 H 0.2052 0.6534 0.4702   0.081877
 H 0.0896 0.7025 0.4146   0.11562
 H 0.9966 0.8043 0.4586   0.097039
 H 0.1348 0.7976 0.6147   0.104223
 H 0.8806 0.0451 0.7109   0.106979
 H 0.7715 0.0634 0.7804   0.11842
 H 0.6664 0.9644 0.7886   0.102148
 H 0.7753 0.8251 0.6538   0.101597
 H 0.6082 0.8441 0.8151   0.132019
 H 0.5106 0.7346 0.8241   0.066605
 H 0.5569 0.661 0.656   0.060472
 H 0.6515 0.7667 0.6412   0.143326
 H 0.9728 0.7416 0.6412   0.322068
 H 0.8959 0.7407 0.6023   0.305008
 H 0.6109 0.4634 0.1006   0.085944
 H 0.7146 0.4159 0.0345   0.137953
 H 0.7434 0.2156 0.1468   0.120105
 H 0.6411 0.2722 0.2094   0.067044
 H 0.7948 0.3466 0.9702   0.081877
 H 0.9104 0.2975 0.9146   0.11562
 H 0.0034 0.1957 0.9586   0.097039
 H 0.8652 0.2024 0.1147   0.104223
 H 0.1194 0.9549 0.2109   0.106979
 H 0.2285 0.9366 0.2804   0.11842
 H 0.3336 0.0356 0.2886   0.102148
 H 0.2247 0.1749 0.1538   0.101597
 H 0.3918 0.1559 0.3151   0.132019
 H 0.4894 0.2654 0.3241   0.066605
 H 0.4431 0.339 0.156   0.060472
 H 0.3485 0.2333 0.1412   0.143326
 H 0.0272 0.2584 0.1412   0.322068
 H 0.1041 0.2593 0.1023   0.305008
 H 0.4634 0.6109 0.8994   0.085943
 H 0.4159 0.7146 0.9655   0.137953
 H 0.2156 0.7434 0.8532   0.120104
 H 0.2722 0.6411 0.7906   0.067044
 H 0.3466 0.7948 0.0298   0.081878
 H 0.2975 0.9104 0.0854   0.11562
 H 0.1957 0.0034 0.0414   0.097039
 H 0.2024 0.8652 0.8853   0.104223
 H 0.9549 0.1194 0.7891   0.106979
 H 0.9366 0.2285 0.7196   0.11842
 H 0.0356 0.3336 0.7114   0.102148
 H 0.1749 0.2247 0.8462   0.101597
 H 0.1559 0.3918 0.6849   0.132019
 H 0.2654 0.4894 0.6759   0.066605
 H 0.339 0.4431 0.844   0.060472
 H 0.2333 0.3485 0.8588   0.143326
 H 0.2584 0.0272 0.8588   0.322068
 H 0.2593 0.1041 0.8977   0.305008
 H 0.5366 0.3891 0.3994   0.085943
 H 0.5841 0.2854 0.4655   0.137953
 H 0.7844 0.2566 0.3532   0.120104
 H 0.7278 0.3589 0.2906   0.067044
 H 0.6534 0.2052 0.5298   0.081878
 H 0.7025 0.0896 0.5854   0.11562
 H 0.8043 0.9966 0.5414   0.097039
 H 0.7976 0.1348 0.3853   0.104223
 H 0.0451 0.8806 0.2891   0.106979
 H 0.0634 0.7715 0.2196   0.11842
 H 0.9644 0.6664 0.2114   0.102148
 H 0.8251 0.7753 0.3462   0.101597
 H 0.8441 0.6082 0.1849   0.132019
 H 0.7346 0.5106 0.1759   0.066605
 H 0.661 0.5569 0.344   0.060472
 H 0.7667 0.6515 0.3588   0.143326
 H 0.7416 0.9728 0.3588   0.322068
 H 0.7407 0.8959 0.3977   0.305008
 H 0.1109 0.0366 0.6494   0.085943
 H 0.2146 0.0841 0.7155   0.137953
 H 0.2434 0.2844 0.6032   0.120105
 H 0.1411 0.2278 0.5406   0.067044
 H 0.2948 0.1534 0.7798   0.081877
 H 0.4104 0.2025 0.8354   0.11562
 H 0.5034 0.3043 0.7914   0.097039
 H 0.3652 0.2976 0.6353   0.104223
 H 0.6194 0.5451 0.5391   0.106979
 H 0.7285 0.5634 0.4696   0.11842
 H 0.8336 0.4644 0.4614   0.102148
 H 0.7247 0.3251 0.5962   0.101597
 H 0.8918 0.3441 0.4349   0.132019
 H 0.9894 0.2346 0.4259   0.066605
 H 0.9431 0.161 0.594   0.060472
 H 0.8485 0.2667 0.6088   0.143326
 H 0.5272 0.2416 0.6088   0.322068
 H 0.6041 0.2407 0.6477   0.305008
 H 0.8891 0.9634 0.1494   0.085943
 H 0.7854 0.9159 0.2155   0.137953
 H 0.7566 0.7156 0.1032   0.120105
 H 0.8589 0.7722 0.0406   0.067044
 H 0.7052 0.8466 0.2798   0.081877
 H 0.5896 0.7975 0.3354   0.11562
 H 0.4966 0.6957 0.2914   0.097039
 H 0.6348 0.7024 0.1353   0.104223
 H 0.3806 0.4549 0.0391   0.106979
 H 0.2715 0.4366 0.9696   0.11842
 H 0.1664 0.5356 0.9614   0.102148
 H 0.2753 0.6749 0.0962   0.101597
 H 0.1082 0.6559 0.9349   0.132019
 H 0.0106 0.7654 0.9259   0.066605
 H 0.0569 0.839 0.094   0.060472
 H 0.1515 0.7333 0.1088   0.143326
 H 0.4728 0.7584 0.1088   0.322068
 H 0.3959 0.7593 0.1477   0.305008
 C 0.0865 0.1407 0.3611   0.163622
 C 0.1144 0.2025 0.321   -0.189791
 C 0.1886 0.247 0.3354   0.11148
 C 0.2312 0.2196 0.3868   -0.202946
 C 0.1972 0.1577 0.4239   0.145723
 C 0.2182 0.3198 0.298   0.012079
 C 0.1923 0.3328 0.2385   -0.079151
 C 0.2225 0.4009 0.2051   -0.074574
 C 0.2831 0.4567 0.2311   -0.066722
 C 0.3099 0.4403 0.2902   -0.03964
 C 0.2785 0.3742 0.3239   -0.120209
 C 0.3718 0.4967 0.3195   0.236507
 C 0.4238 0.5916 0.382   0.246391
 C 0.4324 0.6615 0.4262   -0.019285
 C 0.5042 0.6629 0.4639   -0.062962
 C 0.5149 0.7273 0.5049   -0.067185
 C 0.4561 0.7899 0.5094   -0.104228
 C 0.3835 0.7919 0.4721   0.005735
 C 0.373 0.7256 0.4299   -0.108399
 C 0.318 0.858 0.4776   0.119883
 C 0.3071 0.9012 0.5315   -0.217115
 C 0.2408 0.9595 0.5366   0.172273
 C 0.1986 0.9327 0.4391   0.169491
 C 0.2612 0.876 0.4297   -0.194559
 C 0.9135 0.8593 0.8611   0.163622
 C 0.8856 0.7975 0.821   -0.189791
 C 0.8114 0.753 0.8354   0.11148
 C 0.7688 0.7804 0.8868   -0.202946
 C 0.8028 0.8423 0.9239   0.145723
 C 0.7818 0.6802 0.798   0.012079
 C 0.8077 0.6672 0.7385   -0.079151
 C 0.7775 0.5991 0.7051   -0.074574
 C 0.7169 0.5433 0.7311   -0.066722
 C 0.6901 0.5597 0.7902   -0.03964
 C 0.7215 0.6258 0.8239   -0.120209
 C 0.6282 0.5033 0.8195   0.236507
 C 0.5762 0.4084 0.882   0.246391
 C 0.5676 0.3385 0.9262   -0.019285
 C 0.4958 0.3371 0.9639   -0.062962
 C 0.4851 0.2727 0.0049   -0.067185
 C 0.5439 0.2101 0.0094   -0.104228
 C 0.6165 0.2081 0.9721   0.005735
 C 0.627 0.2744 0.9299   -0.108399
 C 0.682 0.142 0.9776   0.119883
 C 0.6929 0.0988 0.0315   -0.217115
 C 0.7592 0.0405 0.0366   0.172273
 C 0.8014 0.0673 0.9391   0.169491
 C 0.7388 0.124 0.9297   -0.194559
 C 0.3593 0.5865 0.6111   0.163622
 C 0.2975 0.6144 0.571   -0.189791
 C 0.253 0.6886 0.5854   0.11148
 C 0.2804 0.7312 0.6368   -0.202946
 C 0.3423 0.6972 0.6739   0.145723
 C 0.1802 0.7182 0.548   0.012079
 C 0.1672 0.6923 0.4885   -0.079151
 C 0.0991 0.7225 0.4551   -0.074574
 C 0.0433 0.7831 0.4811   -0.066722
 C 0.0597 0.8099 0.5402   -0.03964
 C 0.1258 0.7785 0.5739   -0.120209
 C 0.0033 0.8718 0.5695   0.236507
 C 0.9084 0.9238 0.632   0.246391
 C 0.8385 0.9324 0.6762   -0.019285
 C 0.8371 0.0042 0.7139   -0.062962
 C 0.7727 0.0149 0.7549   -0.067185
 C 0.7101 0.9561 0.7594   -0.104228
 C 0.7081 0.8835 0.7221   0.005735
 C 0.7744 0.873 0.6799   -0.108399
 C 0.642 0.818 0.7276   0.119883
 C 0.5988 0.8071 0.7815   -0.217115
 C 0.5405 0.7408 0.7866   0.172273
 C 0.5673 0.6986 0.6891   0.169491
 C 0.624 0.7612 0.6797   -0.194559
 C 0.6407 0.4135 0.1111   0.163622
 C 0.7025 0.3856 0.071   -0.189791
 C 0.747 0.3114 0.0854   0.11148
 C 0.7196 0.2688 0.1368   -0.202946
 C 0.6577 0.3028 0.1739   0.145723
 C 0.8198 0.2818 0.048   0.012079
 C 0.8328 0.3077 0.9885   -0.079151
 C 0.9009 0.2775 0.9551   -0.074574
 C 0.9567 0.2169 0.9811   -0.066722
 C 0.9403 0.1901 0.0402   -0.03964
 C 0.8742 0.2215 0.0739   -0.120209
 C 0.9967 0.1282 0.0695   0.236507
 C 0.0916 0.0762 0.132   0.246391
 C 0.1615 0.0676 0.1762   -0.019285
 C 0.1629 0.9958 0.2139   -0.062962
 C 0.2273 0.9851 0.2549   -0.067185
 C 0.2899 0.0439 0.2594   -0.104228
 C 0.2919 0.1165 0.2221   0.005735
 C 0.2256 0.127 0.1799   -0.108399
 C 0.358 0.182 0.2276   0.119883
 C 0.4012 0.1929 0.2815   -0.217115
 C 0.4595 0.2592 0.2866   0.172273
 C 0.4327 0.3014 0.1891   0.169491
 C 0.376 0.2388 0.1797   -0.194559
 C 0.4135 0.6407 0.8889   0.163622
 C 0.3856 0.7025 0.929   -0.189791
 C 0.3114 0.747 0.9146   0.11148
 C 0.2688 0.7196 0.8632   -0.202945
 C 0.3028 0.6577 0.8261   0.145723
 C 0.2818 0.8198 0.952   0.012079
 C 0.3077 0.8328 0.0115   -0.079152
 C 0.2775 0.9009 0.0449   -0.074574
 C 0.2169 0.9567 0.0189   -0.066722
 C 0.1901 0.9403 0.9598   -0.03964
 C 0.2215 0.8742 0.9261   -0.120209
 C 0.1282 0.9967 0.9305   0.236507
 C 0.0762 0.0916 0.868   0.246391
 C 0.0676 0.1615 0.8238   -0.019285
 C 0.9958 0.1629 0.7861   -0.062962
 C 0.9851 0.2273 0.7451   -0.067185
 C 0.0439 0.2899 0.7406   -0.104228
 C 0.1165 0.2919 0.7779   0.005735
 C 0.127 0.2256 0.8201   -0.108399
 C 0.182 0.358 0.7724   0.119883
 C 0.1929 0.4012 0.7185   -0.217115
 C 0.2592 0.4595 0.7134   0.172273
 C 0.3014 0.4327 0.8109   0.169491
 C 0.2388 0.376 0.8203   -0.194559
 C 0.5865 0.3593 0.3889   0.163622
 C 0.6144 0.2975 0.429   -0.189791
 C 0.6886 0.253 0.4146   0.11148
 C 0.7312 0.2804 0.3632   -0.202945
 C 0.6972 0.3423 0.3261   0.145723
 C 0.7182 0.1802 0.452   0.012079
 C 0.6923 0.1672 0.5115   -0.079152
 C 0.7225 0.0991 0.5449   -0.074574
 C 0.7831 0.0433 0.5189   -0.066722
 C 0.8099 0.0597 0.4598   -0.03964
 C 0.7785 0.1258 0.4261   -0.120209
 C 0.8718 0.0033 0.4305   0.236507
 C 0.9238 0.9084 0.368   0.246391
 C 0.9324 0.8385 0.3238   -0.019285
 C 0.0042 0.8371 0.2861   -0.062962
 C 0.0149 0.7727 0.2451   -0.067185
 C 0.9561 0.7101 0.2406   -0.104228
 C 0.8835 0.7081 0.2779   0.005735
 C 0.873 0.7744 0.3201   -0.108399
 C 0.818 0.642 0.2724   0.119883
 C 0.8071 0.5988 0.2185   -0.217115
 C 0.7408 0.5405 0.2134   0.172273
 C 0.6986 0.5673 0.3109   0.169491
 C 0.7612 0.624 0.3203   -0.194559
 C 0.1407 0.0865 0.6389   0.163622
 C 0.2025 0.1144 0.679   -0.189791
 C 0.247 0.1886 0.6646   0.11148
 C 0.2196 0.2312 0.6132   -0.202946
 C 0.1577 0.1972 0.5761   0.145723
 C 0.3198 0.2182 0.702   0.012079
 C 0.3328 0.1923 0.7615   -0.079151
 C 0.4009 0.2225 0.7949   -0.074574
 C 0.4567 0.2831 0.7689   -0.066722
 C 0.4403 0.3099 0.7098   -0.03964
 C 0.3742 0.2785 0.6761   -0.120209
 C 0.4967 0.3718 0.6805   0.236507
 C 0.5916 0.4238 0.618   0.246391
 C 0.6615 0.4324 0.5738   -0.019285
 C 0.6629 0.5042 0.5361   -0.062962
 C 0.7273 0.5149 0.4951   -0.067185
 C 0.7899 0.4561 0.4906   -0.104228
 C 0.7919 0.3835 0.5279   0.005735
 C 0.7256 0.373 0.5701   -0.108399
 C 0.858 0.318 0.5224   0.119883
 C 0.9012 0.3071 0.4685   -0.217115
 C 0.9595 0.2408 0.4634   0.172273
 C 0.9327 0.1986 0.5609   0.169491
 C 0.876 0.2612 0.5703   -0.194559
 C 0.8593 0.9135 0.1389   0.163622
 C 0.7975 0.8856 0.179   -0.189791
 C 0.753 0.8114 0.1646   0.11148
 C 0.7804 0.7688 0.1132   -0.202946
 C 0.8423 0.8028 0.0761   0.145723
 C 0.6802 0.7818 0.202   0.012079
 C 0.6672 0.8077 0.2615   -0.079151
 C 0.5991 0.7775 0.2949   -0.074574
 C 0.5433 0.7169 0.2689   -0.066722
 C 0.5597 0.6901 0.2098   -0.03964
 C 0.6258 0.7215 0.1761   -0.120209
 C 0.5033 0.6282 0.1805   0.236507
 C 0.4084 0.5762 0.118   0.246391
 C 0.3385 0.5676 0.0738   -0.019285
 C 0.3371 0.4958 0.0361   -0.062962
 C 0.2727 0.4851 0.9951   -0.067185
 C 0.2101 0.5439 0.9906   -0.104228
 C 0.2081 0.6165 0.0279   0.005735
 C 0.2744 0.627 0.0701   -0.108399
 C 0.142 0.682 0.0224   0.119883
 C 0.0988 0.6929 0.9685   -0.217115
 C 0.0405 0.7592 0.9634   0.172273
 C 0.0673 0.8014 0.0609   0.169491
 C 0.124 0.7388 0.0703   -0.194559
 N 0.1246 0.1204 0.4126   -0.343174
 N 0.4551 0.4945 0.3157   -0.238647
 N 0.4878 0.5547 0.3549   -0.295465
 N 0.3506 0.557 0.3607   0.099823
 N 0.2692 0.5759 0.3822   -0.553087
 N 0.1857 0.9751 0.4913   -0.363137
 N 0.8754 0.8796 0.9126   -0.343174
 N 0.5449 0.5055 0.8157   -0.238647
 N 0.5122 0.4453 0.8549   -0.295465
 N 0.6494 0.443 0.8607   0.099823
 N 0.7308 0.4241 0.8822   -0.553087
 N 0.8143 0.0249 0.9913   -0.363137
 N 0.3796 0.6246 0.6626   -0.343174
 N 0.0055 0.9551 0.5657   -0.238647
 N 0.9453 0.9878 0.6049   -0.295465
 N 0.943 0.8506 0.6107   0.099823
 N 0.9241 0.7692 0.6322   -0.553087
 N 0.5249 0.6857 0.7413   -0.363137
 N 0.6204 0.3754 0.1626   -0.343174
 N 0.9945 0.0449 0.0657   -0.238647
 N 0.0547 0.0122 0.1049   -0.295465
 N 0.057 0.1494 0.1107   0.099823
 N 0.0759 0.2308 0.1322   -0.553087
 N 0.4751 0.3143 0.2413   -0.363137
 N 0.3754 0.6204 0.8374   -0.343174
 N 0.0449 0.9945 0.9343   -0.238647
 N 0.0122 0.0547 0.8951   -0.295465
 N 0.1494 0.057 0.8893   0.099823
 N 0.2308 0.0759 0.8678   -0.553087
 N 0.3143 0.4751 0.7587   -0.363137
 N 0.6246 0.3796 0.3374   -0.343174
 N 0.9551 0.0055 0.4343   -0.238647
 N 0.9878 0.9453 0.3951   -0.295465
 N 0.8506 0.943 0.3893   0.099823
 N 0.7692 0.9241 0.3678   -0.553087
 N 0.6857 0.5249 0.2587   -0.363137
 N 0.1204 0.1246 0.5874   -0.343174
 N 0.4945 0.4551 0.6843   -0.238647
 N 0.5547 0.4878 0.6451   -0.295465
 N 0.557 0.3506 0.6393   0.099823
 N 0.5759 0.2692 0.6178   -0.553087
 N 0.9751 0.1857 0.5087   -0.363137
 N 0.8796 0.8754 0.0874   -0.343174
 N 0.5055 0.5449 0.1843   -0.238647
 N 0.4453 0.5122 0.1451   -0.295465
 N 0.443 0.6494 0.1393   0.099823
 N 0.4241 0.7308 0.1178   -0.553087
 N 0.0249 0.8143 0.0087   -0.363137
 Cl 0.23178 0.23178 0.0   1.496324
 Cl 0.62116 0.62116 0.0   1.53383
 Cl 0.76822 0.76822 0.5   1.496324
 Cl 0.37884 0.37884 0.5   1.53383
 Cl 0.26822 0.73178 0.25   1.496324
 Cl 0.87884 0.12116 0.25   1.53383
 Cl 0.73178 0.26822 0.75   1.496324
 Cl 0.12116 0.87884 0.75   1.53383
 O 0.2601 0.2724 0.0523   -0.633809
 O 0.2758 0.1576 0.008   -0.521016
 O 0.2724 0.2601 0.9477   -0.633809
 O 0.1576 0.2758 0.992   -0.521015
 O 0.643 0.5527 0.97   -0.57452
 O 0.6677 0.5964 0.054   -0.596816
 O 0.5527 0.643 0.03   -0.57452
 O 0.5964 0.6677 0.946   -0.596816
 O 0.7399 0.7276 0.5523   -0.633809
 O 0.7242 0.8424 0.508   -0.521016
 O 0.7276 0.7399 0.4477   -0.633809
 O 0.8424 0.7242 0.492   -0.521015
 O 0.357 0.4473 0.47   -0.57452
 O 0.3323 0.4036 0.554   -0.596816
 O 0.4473 0.357 0.53   -0.57452
 O 0.4036 0.3323 0.446   -0.596816
 O 0.2276 0.7601 0.3023   -0.633809
 O 0.3424 0.7758 0.258   -0.521016
 O 0.2399 0.7724 0.1977   -0.633809
 O 0.2242 0.6576 0.242   -0.521015
 O 0.9473 0.143 0.22   -0.57452
 O 0.9036 0.1677 0.304   -0.596816
 O 0.857 0.0527 0.28   -0.57452
 O 0.8323 0.0964 0.196   -0.596816
 O 0.7724 0.2399 0.8023   -0.633809
 O 0.6576 0.2242 0.758   -0.521016
 O 0.7601 0.2276 0.6977   -0.633809
 O 0.7758 0.3424 0.742   -0.521015
 O 0.0527 0.857 0.72   -0.57452
 O 0.0964 0.8323 0.804   -0.596816
 O 0.143 0.9473 0.78   -0.57452
 O 0.1677 0.9036 0.696   -0.596816
