{'_ref': 'TBD', '_srcid': 'CAKYAQ_clean', 'submitters': [{'name': 'Dalar Nazarian Jeff Camp and David Sholl', 'email': 'dalar@gatech.edu jcamp6@gatech.edu'}], '_method': 'VASP DFT with PBE;DDEC'}
data_CdH36C48N12(ClO4)2
_symmetry_space_group_name_H-M   'P 1'
_cell_length_a   15.87210000
_cell_length_b   15.87210000
_cell_length_c   21.63600000
_cell_angle_alpha   90.00000000
_cell_angle_beta   90.00000000
_cell_angle_gamma   90.00000000
_symmetry_Int_Tables_number   1
_chemical_formula_structural   CdH36C48N12(ClO4)2
_chemical_formula_sum   'Cd4 H144 C192 N48 Cl8 O32'
_cell_volume   5450.61810976
_cell_formula_units_Z   4
loop_
 _symmetry_equiv_pos_site_id
 _symmetry_equiv_pos_as_xyz
  1  'x, y, z'
loop_
 _atom_site_label
 _atom_site_fract_x
 _atom_site_fract_y
 _atom_site_fract_z
 _atom_site_charge
 Cd 0.55831 0.44169 0.25   0.794715
 Cd 0.44169 0.55831 0.75   0.794715
 Cd 0.05831 0.05831 0.5   0.794715
 Cd 0.94169 0.94169 0.0   0.794715
 H 0.0393 0.1104 0.3493   0.074104
 H 0.0866 0.2146 0.2833   0.138062
 H 0.2849 0.2448 0.3979   0.117959
 H 0.2303 0.1387 0.4591   0.071501
 H 0.1519 0.2989 0.2198   0.082351
 H 0.2043 0.4121 0.1644   0.114362
 H 0.3008 0.5059 0.2088   0.094072
 H 0.3016 0.3641 0.364   0.091516
 H 0.5461 0.6206 0.4602   0.107367
 H 0.5644 0.7317 0.5307   0.120342
 H 0.4653 0.8377 0.5372   0.104353
 H 0.3267 0.7234 0.4045   0.099397
 H 0.3472 0.8978 0.5648   0.128321
 H 0.2339 0.9884 0.5758   0.067191
 H 0.16 0.9427 0.407   0.059722
 H 0.2678 0.8476 0.3918   0.14284
 H 0.2428 0.5279 0.392   0.322189
 H 0.242 0.6048 0.3531   0.2997
 H 0.9607 0.8896 0.8493   0.074104
 H 0.9134 0.7854 0.7833   0.138062
 H 0.7151 0.7552 0.8979   0.117959
 H 0.7697 0.8613 0.9591   0.071501
 H 0.8481 0.7011 0.7198   0.082351
 H 0.7957 0.5879 0.6644   0.114362
 H 0.6992 0.4941 0.7088   0.094072
 H 0.6984 0.6359 0.864   0.091516
 H 0.4539 0.3794 0.9602   0.107367
 H 0.4356 0.2683 0.0307   0.120342
 H 0.5347 0.1623 0.0372   0.104353
 H 0.6733 0.2766 0.9045   0.099397
 H 0.6528 0.1022 0.0648   0.128321
 H 0.7661 0.0116 0.0758   0.067191
 H 0.84 0.0573 0.907   0.059722
 H 0.7322 0.1524 0.8918   0.14284
 H 0.7572 0.4721 0.892   0.322189
 H 0.758 0.3952 0.8531   0.2997
 H 0.3896 0.5393 0.5993   0.074104
 H 0.2854 0.5866 0.5333   0.138062
 H 0.2552 0.7849 0.6479   0.117959
 H 0.3613 0.7303 0.7091   0.071501
 H 0.2011 0.6519 0.4698   0.082351
 H 0.0879 0.7043 0.4144   0.114362
 H 0.9941 0.8008 0.4588   0.094072
 H 0.1359 0.8016 0.614   0.091516
 H 0.8794 0.0461 0.7102   0.107367
 H 0.7683 0.0644 0.7807   0.120342
 H 0.6623 0.9653 0.7872   0.104353
 H 0.7766 0.8267 0.6545   0.099397
 H 0.6022 0.8472 0.8148   0.128321
 H 0.5116 0.7339 0.8258   0.067191
 H 0.5573 0.66 0.657   0.059722
 H 0.6524 0.7678 0.6418   0.14284
 H 0.9721 0.7428 0.642   0.322189
 H 0.8952 0.742 0.6031   0.2997
 H 0.6104 0.4607 0.0993   0.074104
 H 0.7146 0.4134 0.0333   0.138062
 H 0.7448 0.2151 0.1479   0.117959
 H 0.6387 0.2697 0.2091   0.071501
 H 0.7989 0.3481 0.9698   0.082351
 H 0.9121 0.2957 0.9144   0.114362
 H 0.0059 0.1992 0.9588   0.094072
 H 0.8641 0.1984 0.114   0.091516
 H 0.1206 0.9539 0.2102   0.107367
 H 0.2317 0.9356 0.2807   0.120342
 H 0.3377 0.0347 0.2872   0.104353
 H 0.2234 0.1733 0.1545   0.099397
 H 0.3978 0.1528 0.3148   0.128321
 H 0.4884 0.2661 0.3258   0.067191
 H 0.4427 0.34 0.157   0.059722
 H 0.3476 0.2322 0.1418   0.14284
 H 0.0279 0.2572 0.142   0.322189
 H 0.1048 0.258 0.1031   0.2997
 H 0.4607 0.6104 0.9007   0.074103
 H 0.4134 0.7146 0.9667   0.138062
 H 0.2151 0.7448 0.8521   0.117959
 H 0.2697 0.6387 0.7909   0.071501
 H 0.3481 0.7989 0.0302   0.082351
 H 0.2957 0.9121 0.0856   0.114362
 H 0.1992 0.0059 0.0412   0.094072
 H 0.1984 0.8641 0.886   0.091516
 H 0.9539 0.1206 0.7898   0.107367
 H 0.9356 0.2317 0.7193   0.120342
 H 0.0347 0.3377 0.7128   0.104353
 H 0.1733 0.2234 0.8455   0.099397
 H 0.1528 0.3978 0.6852   0.128321
 H 0.2661 0.4884 0.6742   0.067191
 H 0.34 0.4427 0.843   0.059722
 H 0.2322 0.3476 0.8582   0.14284
 H 0.2572 0.0279 0.858   0.322189
 H 0.258 0.1048 0.8969   0.2997
 H 0.5393 0.3896 0.4007   0.074103
 H 0.5866 0.2854 0.4667   0.138062
 H 0.7849 0.2552 0.3521   0.117959
 H 0.7303 0.3613 0.2909   0.071501
 H 0.6519 0.2011 0.5302   0.082351
 H 0.7043 0.0879 0.5856   0.114362
 H 0.8008 0.9941 0.5412   0.094072
 H 0.8016 0.1359 0.386   0.091516
 H 0.0461 0.8794 0.2898   0.107367
 H 0.0644 0.7683 0.2193   0.120342
 H 0.9653 0.6623 0.2128   0.104353
 H 0.8267 0.7766 0.3455   0.099397
 H 0.8472 0.6022 0.1852   0.128321
 H 0.7339 0.5116 0.1742   0.067191
 H 0.66 0.5573 0.343   0.059722
 H 0.7678 0.6524 0.3582   0.14284
 H 0.7428 0.9721 0.358   0.322189
 H 0.742 0.8952 0.3969   0.2997
 H 0.1104 0.0393 0.6507   0.074103
 H 0.2146 0.0866 0.7167   0.138062
 H 0.2448 0.2849 0.6021   0.117959
 H 0.1387 0.2303 0.5409   0.071501
 H 0.2989 0.1519 0.7802   0.082351
 H 0.4121 0.2043 0.8356   0.114362
 H 0.5059 0.3008 0.7912   0.094072
 H 0.3641 0.3016 0.636   0.091516
 H 0.6206 0.5461 0.5398   0.107367
 H 0.7317 0.5644 0.4693   0.120342
 H 0.8377 0.4653 0.4628   0.104353
 H 0.7234 0.3267 0.5955   0.099397
 H 0.8978 0.3472 0.4352   0.128321
 H 0.9884 0.2339 0.4242   0.067191
 H 0.9427 0.16 0.593   0.059722
 H 0.8476 0.2678 0.6082   0.14284
 H 0.5279 0.2428 0.608   0.322189
 H 0.6048 0.242 0.6469   0.2997
 H 0.8896 0.9607 0.1507   0.074103
 H 0.7854 0.9134 0.2167   0.138062
 H 0.7552 0.7151 0.1021   0.117959
 H 0.8613 0.7697 0.0409   0.071501
 H 0.7011 0.8481 0.2802   0.082351
 H 0.5879 0.7957 0.3356   0.114362
 H 0.4941 0.6992 0.2912   0.094072
 H 0.6359 0.6984 0.136   0.091516
 H 0.3794 0.4539 0.0398   0.107367
 H 0.2683 0.4356 0.9693   0.120342
 H 0.1623 0.5347 0.9628   0.104353
 H 0.2766 0.6733 0.0955   0.099397
 H 0.1022 0.6528 0.9352   0.128321
 H 0.0116 0.7661 0.9242   0.067191
 H 0.0573 0.84 0.093   0.059722
 H 0.1524 0.7322 0.1082   0.14284
 H 0.4721 0.7572 0.108   0.322189
 H 0.3952 0.758 0.1469   0.2997
 C 0.0887 0.1406 0.3603   0.16986
 C 0.1167 0.2022 0.3202   -0.19379
 C 0.1914 0.2466 0.3354   0.114799
 C 0.2325 0.2198 0.387   -0.195928
 C 0.1992 0.1569 0.4241   0.14196
 C 0.2206 0.319 0.2978   0.004313
 C 0.1926 0.3349 0.2382   -0.075635
 C 0.2234 0.4028 0.2054   -0.072216
 C 0.2817 0.4579 0.231   -0.060777
 C 0.3113 0.4404 0.2901   -0.04416
 C 0.2814 0.3738 0.3233   -0.110343
 C 0.3739 0.4969 0.32   0.240341
 C 0.4253 0.5915 0.3827   0.245795
 C 0.4333 0.6624 0.4271   -0.013871
 C 0.5051 0.6639 0.4635   -0.0726
 C 0.5159 0.7301 0.5049   -0.067167
 C 0.4568 0.7929 0.5087   -0.105052
 C 0.3848 0.7928 0.4719   0.012077
 C 0.3748 0.7252 0.4305   -0.105086
 C 0.3193 0.8585 0.4775   0.117379
 C 0.3085 0.9044 0.5317   -0.213525
 C 0.2414 0.96 0.5376   0.167293
 C 0.1984 0.9329 0.4399   0.173046
 C 0.2626 0.8755 0.4305   -0.19321
 C 0.9113 0.8594 0.8603   0.16986
 C 0.8833 0.7978 0.8202   -0.19379
 C 0.8086 0.7534 0.8354   0.114799
 C 0.7675 0.7802 0.887   -0.195928
 C 0.8008 0.8431 0.9241   0.14196
 C 0.7794 0.681 0.7978   0.004313
 C 0.8074 0.6651 0.7382   -0.075635
 C 0.7766 0.5972 0.7054   -0.072216
 C 0.7183 0.5421 0.731   -0.060777
 C 0.6887 0.5596 0.7901   -0.04416
 C 0.7186 0.6262 0.8233   -0.110343
 C 0.6261 0.5031 0.82   0.240341
 C 0.5747 0.4085 0.8827   0.245795
 C 0.5667 0.3376 0.9271   -0.013871
 C 0.4949 0.3361 0.9635   -0.0726
 C 0.4841 0.2699 0.0049   -0.067167
 C 0.5432 0.2071 0.0087   -0.105052
 C 0.6152 0.2072 0.9719   0.012077
 C 0.6252 0.2748 0.9305   -0.105086
 C 0.6807 0.1415 0.9775   0.117379
 C 0.6915 0.0956 0.0317   -0.213525
 C 0.7586 0.04 0.0376   0.167293
 C 0.8016 0.0671 0.9399   0.173046
 C 0.7374 0.1245 0.9305   -0.19321
 C 0.3594 0.5887 0.6103   0.16986
 C 0.2978 0.6167 0.5702   -0.19379
 C 0.2534 0.6914 0.5854   0.114799
 C 0.2802 0.7325 0.637   -0.195928
 C 0.3431 0.6992 0.6741   0.14196
 C 0.181 0.7206 0.5478   0.004313
 C 0.1651 0.6926 0.4882   -0.075635
 C 0.0972 0.7234 0.4554   -0.072216
 C 0.0421 0.7817 0.481   -0.060777
 C 0.0596 0.8113 0.5401   -0.04416
 C 0.1262 0.7814 0.5733   -0.110343
 C 0.0031 0.8739 0.57   0.240341
 C 0.9085 0.9253 0.6327   0.245795
 C 0.8376 0.9333 0.6771   -0.013871
 C 0.8361 0.0051 0.7135   -0.0726
 C 0.7699 0.0159 0.7549   -0.067167
 C 0.7071 0.9568 0.7587   -0.105052
 C 0.7072 0.8848 0.7219   0.012077
 C 0.7748 0.8748 0.6805   -0.105086
 C 0.6415 0.8193 0.7275   0.117379
 C 0.5956 0.8085 0.7817   -0.213525
 C 0.54 0.7414 0.7876   0.167293
 C 0.5671 0.6984 0.6899   0.173046
 C 0.6245 0.7626 0.6805   -0.193211
 C 0.6406 0.4113 0.1103   0.16986
 C 0.7022 0.3833 0.0702   -0.19379
 C 0.7466 0.3086 0.0854   0.114799
 C 0.7198 0.2675 0.137   -0.195928
 C 0.6569 0.3008 0.1741   0.14196
 C 0.819 0.2794 0.0478   0.004313
 C 0.8349 0.3074 0.9882   -0.075635
 C 0.9028 0.2766 0.9554   -0.072216
 C 0.9579 0.2183 0.981   -0.060777
 C 0.9404 0.1887 0.0401   -0.04416
 C 0.8738 0.2186 0.0733   -0.110343
 C 0.9969 0.1261 0.07   0.240341
 C 0.0915 0.0747 0.1327   0.245795
 C 0.1624 0.0667 0.1771   -0.013871
 C 0.1639 0.9949 0.2135   -0.0726
 C 0.2301 0.9841 0.2549   -0.067167
 C 0.2929 0.0432 0.2587   -0.105052
 C 0.2928 0.1152 0.2219   0.012077
 C 0.2252 0.1252 0.1805   -0.105086
 C 0.3585 0.1807 0.2275   0.117379
 C 0.4044 0.1915 0.2817   -0.213525
 C 0.46 0.2586 0.2876   0.167293
 C 0.4329 0.3016 0.1899   0.173046
 C 0.3755 0.2374 0.1805   -0.193211
 C 0.4113 0.6406 0.8897   0.16986
 C 0.3833 0.7022 0.9298   -0.19379
 C 0.3086 0.7466 0.9146   0.114799
 C 0.2675 0.7198 0.863   -0.195928
 C 0.3008 0.6569 0.8259   0.14196
 C 0.2794 0.819 0.9522   0.004313
 C 0.3074 0.8349 0.0118   -0.075635
 C 0.2766 0.9028 0.0446   -0.072216
 C 0.2183 0.9579 0.019   -0.060777
 C 0.1887 0.9404 0.9599   -0.04416
 C 0.2186 0.8738 0.9267   -0.110343
 C 0.1261 0.9969 0.93   0.240341
 C 0.0747 0.0915 0.8673   0.245795
 C 0.0667 0.1624 0.8229   -0.013871
 C 0.9949 0.1639 0.7865   -0.0726
 C 0.9841 0.2301 0.7451   -0.067167
 C 0.0432 0.2929 0.7413   -0.105052
 C 0.1152 0.2928 0.7781   0.012077
 C 0.1252 0.2252 0.8195   -0.105086
 C 0.1807 0.3585 0.7725   0.117379
 C 0.1915 0.4044 0.7183   -0.213525
 C 0.2586 0.46 0.7124   0.167293
 C 0.3016 0.4329 0.8101   0.173046
 C 0.2374 0.3755 0.8195   -0.19321
 C 0.5887 0.3594 0.3897   0.16986
 C 0.6167 0.2978 0.4298   -0.19379
 C 0.6914 0.2534 0.4146   0.114799
 C 0.7325 0.2802 0.363   -0.195928
 C 0.6992 0.3431 0.3259   0.14196
 C 0.7206 0.181 0.4522   0.004313
 C 0.6926 0.1651 0.5118   -0.075635
 C 0.7234 0.0972 0.5446   -0.072216
 C 0.7817 0.0421 0.519   -0.060777
 C 0.8113 0.0596 0.4599   -0.04416
 C 0.7814 0.1262 0.4267   -0.110343
 C 0.8739 0.0031 0.43   0.240341
 C 0.9253 0.9085 0.3673   0.245795
 C 0.9333 0.8376 0.3229   -0.013871
 C 0.0051 0.8361 0.2865   -0.0726
 C 0.0159 0.7699 0.2451   -0.067167
 C 0.9568 0.7071 0.2413   -0.105052
 C 0.8848 0.7072 0.2781   0.012077
 C 0.8748 0.7748 0.3195   -0.105086
 C 0.8193 0.6415 0.2725   0.117379
 C 0.8085 0.5956 0.2183   -0.213525
 C 0.7414 0.54 0.2124   0.167293
 C 0.6984 0.5671 0.3101   0.173046
 C 0.7626 0.6245 0.3195   -0.19321
 C 0.1406 0.0887 0.6397   0.16986
 C 0.2022 0.1167 0.6798   -0.19379
 C 0.2466 0.1914 0.6646   0.114799
 C 0.2198 0.2325 0.613   -0.195928
 C 0.1569 0.1992 0.5759   0.14196
 C 0.319 0.2206 0.7022   0.004313
 C 0.3349 0.1926 0.7618   -0.075635
 C 0.4028 0.2234 0.7946   -0.072216
 C 0.4579 0.2817 0.769   -0.060777
 C 0.4404 0.3113 0.7099   -0.04416
 C 0.3738 0.2814 0.6767   -0.110343
 C 0.4969 0.3739 0.68   0.240341
 C 0.5915 0.4253 0.6173   0.245795
 C 0.6624 0.4333 0.5729   -0.013871
 C 0.6639 0.5051 0.5365   -0.0726
 C 0.7301 0.5159 0.4951   -0.067167
 C 0.7929 0.4568 0.4913   -0.105052
 C 0.7928 0.3848 0.5281   0.012077
 C 0.7252 0.3748 0.5695   -0.105086
 C 0.8585 0.3193 0.5225   0.117379
 C 0.9044 0.3085 0.4683   -0.213525
 C 0.96 0.2414 0.4624   0.167293
 C 0.9329 0.1984 0.5601   0.173046
 C 0.8755 0.2626 0.5695   -0.193211
 C 0.8594 0.9113 0.1397   0.16986
 C 0.7978 0.8833 0.1798   -0.19379
 C 0.7534 0.8086 0.1646   0.114799
 C 0.7802 0.7675 0.113   -0.195928
 C 0.8431 0.8008 0.0759   0.14196
 C 0.681 0.7794 0.2022   0.004313
 C 0.6651 0.8074 0.2618   -0.075635
 C 0.5972 0.7766 0.2946   -0.072216
 C 0.5421 0.7183 0.269   -0.060777
 C 0.5596 0.6887 0.2099   -0.04416
 C 0.6262 0.7186 0.1767   -0.110343
 C 0.5031 0.6261 0.18   0.240341
 C 0.4085 0.5747 0.1173   0.245795
 C 0.3376 0.5667 0.0729   -0.013871
 C 0.3361 0.4949 0.0365   -0.0726
 C 0.2699 0.4841 0.9951   -0.067167
 C 0.2071 0.5432 0.9913   -0.105052
 C 0.2072 0.6152 0.0281   0.012077
 C 0.2748 0.6252 0.0695   -0.105086
 C 0.1415 0.6807 0.0225   0.117379
 C 0.0956 0.6915 0.9683   -0.213525
 C 0.04 0.7586 0.9624   0.167293
 C 0.0671 0.8016 0.0601   0.173046
 C 0.1245 0.7374 0.0695   -0.193211
 N 0.1253 0.1211 0.4123   -0.343895
 N 0.4556 0.4939 0.3163   -0.236363
 N 0.489 0.5547 0.3557   -0.303646
 N 0.3519 0.5576 0.3615   0.089457
 N 0.2704 0.5766 0.383   -0.549449
 N 0.1871 0.9752 0.492   -0.363049
 N 0.8747 0.8789 0.9123   -0.343895
 N 0.5444 0.5061 0.8163   -0.236363
 N 0.511 0.4453 0.8557   -0.303646
 N 0.6481 0.4424 0.8615   0.089457
 N 0.7296 0.4234 0.883   -0.549449
 N 0.8129 0.0248 0.992   -0.363049
 N 0.3789 0.6253 0.6623   -0.343895
 N 0.0061 0.9556 0.5663   -0.236363
 N 0.9453 0.989 0.6057   -0.303646
 N 0.9424 0.8519 0.6115   0.089457
 N 0.9234 0.7704 0.633   -0.549449
 N 0.5248 0.6871 0.742   -0.363049
 N 0.6211 0.3747 0.1623   -0.343895
 N 0.9939 0.0444 0.0663   -0.236363
 N 0.0547 0.011 0.1057   -0.303646
 N 0.0576 0.1481 0.1115   0.089457
 N 0.0766 0.2296 0.133   -0.549449
 N 0.4752 0.3129 0.242   -0.363049
 N 0.3747 0.6211 0.8377   -0.343895
 N 0.0444 0.9939 0.9337   -0.236363
 N 0.011 0.0547 0.8943   -0.303646
 N 0.1481 0.0576 0.8885   0.089457
 N 0.2296 0.0766 0.867   -0.549449
 N 0.3129 0.4752 0.758   -0.363049
 N 0.6253 0.3789 0.3377   -0.343895
 N 0.9556 0.0061 0.4337   -0.236363
 N 0.989 0.9453 0.3943   -0.303646
 N 0.8519 0.9424 0.3885   0.089457
 N 0.7704 0.9234 0.367   -0.549449
 N 0.6871 0.5248 0.258   -0.363049
 N 0.1211 0.1253 0.5877   -0.343895
 N 0.4939 0.4556 0.6837   -0.236363
 N 0.5547 0.489 0.6443   -0.303646
 N 0.5576 0.3519 0.6385   0.089457
 N 0.5766 0.2704 0.617   -0.549449
 N 0.9752 0.1871 0.508   -0.363049
 N 0.8789 0.8747 0.0877   -0.343895
 N 0.5061 0.5444 0.1837   -0.236363
 N 0.4453 0.511 0.1443   -0.303646
 N 0.4424 0.6481 0.1385   0.089457
 N 0.4234 0.7296 0.117   -0.549449
 N 0.0248 0.8129 0.008   -0.363049
 Cl 0.23077 0.23077 0.0   1.330355
 Cl 0.62008 0.62008 0.0   1.487746
 Cl 0.76923 0.76923 0.5   1.330355
 Cl 0.37992 0.37992 0.5   1.487746
 Cl 0.26923 0.73077 0.25   1.330355
 Cl 0.87992 0.12008 0.25   1.487746
 Cl 0.73077 0.26923 0.75   1.330355
 Cl 0.12008 0.87992 0.75   1.487746
 O 0.2613 0.2681 0.0528   -0.573309
 O 0.2863 0.1559 0.008   -0.520903
 O 0.2681 0.2613 0.9472   -0.573309
 O 0.1559 0.2863 0.992   -0.520903
 O 0.6547 0.5528 0.9692   -0.539966
 O 0.6729 0.5953 0.0507   -0.564135
 O 0.5528 0.6547 0.0308   -0.539966
 O 0.5953 0.6729 0.9493   -0.564135
 O 0.7387 0.7319 0.5528   -0.573309
 O 0.7137 0.8441 0.508   -0.520903
 O 0.7319 0.7387 0.4472   -0.573309
 O 0.8441 0.7137 0.492   -0.520903
 O 0.3453 0.4472 0.4692   -0.539966
 O 0.3271 0.4047 0.5507   -0.564135
 O 0.4472 0.3453 0.5308   -0.539966
 O 0.4047 0.3271 0.4493   -0.564135
 O 0.2319 0.7613 0.3028   -0.573309
 O 0.3441 0.7863 0.258   -0.520903
 O 0.2387 0.7681 0.1972   -0.573309
 O 0.2137 0.6559 0.242   -0.520903
 O 0.9472 0.1547 0.2192   -0.539966
 O 0.9047 0.1729 0.3007   -0.564135
 O 0.8453 0.0528 0.2808   -0.539966
 O 0.8271 0.0953 0.1993   -0.564135
 O 0.7681 0.2387 0.8028   -0.573309
 O 0.6559 0.2137 0.758   -0.520903
 O 0.7613 0.2319 0.6972   -0.573309
 O 0.7863 0.3441 0.742   -0.520903
 O 0.0528 0.8453 0.7192   -0.539966
 O 0.0953 0.8271 0.8007   -0.564135
 O 0.1547 0.9472 0.7808   -0.539966
 O 0.1729 0.9047 0.6993   -0.564135
