{'_ref': 'TBD', '_srcid': 'CAKYAQ_clean', 'submitters': [{'name': 'Dalar Nazarian Jeff Camp and David Sholl', 'email': 'dalar@gatech.edu jcamp6@gatech.edu'}], '_method': 'VASP DFT with PBE;DDEC'}
data_CdH36C48N12(ClO4)2
_symmetry_space_group_name_H-M   'P 1'
_cell_length_a   15.87310000
_cell_length_b   15.87310000
_cell_length_c   21.77600000
_cell_angle_alpha   90.00000000
_cell_angle_beta   90.00000000
_cell_angle_gamma   90.00000000
_symmetry_Int_Tables_number   1
_chemical_formula_structural   CdH36C48N12(ClO4)2
_chemical_formula_sum   'Cd4 H144 C192 N48 Cl8 O32'
_cell_volume   5486.57869141
_cell_formula_units_Z   4
loop_
 _symmetry_equiv_pos_site_id
 _symmetry_equiv_pos_as_xyz
  1  'x, y, z'
loop_
 _atom_site_label
 _atom_site_fract_x
 _atom_site_fract_y
 _atom_site_fract_z
 _atom_site_charge
 Cd 0.55786 0.44214 0.25   0.796712
 Cd 0.44214 0.55786 0.75   0.796712
 Cd 0.05786 0.05786 0.5   0.796712
 Cd 0.94214 0.94214 0.0   0.796712
 H 0.0365 0.1119 0.3496   0.089044
 H 0.0839 0.215 0.2848   0.137808
 H 0.2846 0.2431 0.3972   0.120871
 H 0.2274 0.1409 0.4599   0.06747
 H 0.1526 0.2962 0.22   0.081106
 H 0.2045 0.4098 0.164   0.115998
 H 0.303 0.5036 0.2084   0.093713
 H 0.2976 0.3664 0.3644   0.100388
 H 0.5448 0.6195 0.4612   0.10661
 H 0.5638 0.7292 0.5292   0.116838
 H 0.4648 0.8333 0.5391   0.103143
 H 0.325 0.7234 0.4043   0.098995
 H 0.3444 0.8926 0.5652   0.13159
 H 0.2338 0.9891 0.5744   0.065882
 H 0.1604 0.943 0.406   0.061272
 H 0.2664 0.848 0.3909   0.143631
 H 0.2413 0.527 0.391   0.322414
 H 0.2405 0.6039 0.3522   0.303904
 H 0.9635 0.8881 0.8496   0.089044
 H 0.9161 0.785 0.7848   0.137808
 H 0.7154 0.7569 0.8972   0.120871
 H 0.7726 0.8591 0.9599   0.06747
 H 0.8474 0.7038 0.72   0.081106
 H 0.7955 0.5902 0.664   0.115998
 H 0.697 0.4964 0.7084   0.093713
 H 0.7024 0.6336 0.8644   0.100388
 H 0.4552 0.3805 0.9612   0.10661
 H 0.4362 0.2708 0.0292   0.116838
 H 0.5352 0.1667 0.0391   0.103143
 H 0.675 0.2766 0.9043   0.098995
 H 0.6556 0.1074 0.0652   0.13159
 H 0.7662 0.0109 0.0744   0.065882
 H 0.8396 0.057 0.906   0.061272
 H 0.7336 0.152 0.8909   0.143631
 H 0.7587 0.473 0.891   0.322414
 H 0.7595 0.3961 0.8522   0.303904
 H 0.3881 0.5365 0.5996   0.089044
 H 0.285 0.5839 0.5348   0.137808
 H 0.2569 0.7846 0.6472   0.120871
 H 0.3591 0.7274 0.7099   0.06747
 H 0.2038 0.6526 0.47   0.081105
 H 0.0902 0.7045 0.414   0.115998
 H 0.9964 0.803 0.4584   0.093713
 H 0.1336 0.7976 0.6144   0.100388
 H 0.8805 0.0448 0.7112   0.10661
 H 0.7708 0.0638 0.7792   0.116838
 H 0.6667 0.9648 0.7891   0.103143
 H 0.7766 0.825 0.6543   0.098995
 H 0.6074 0.8444 0.8152   0.131591
 H 0.5109 0.7338 0.8244   0.065882
 H 0.557 0.6604 0.656   0.061272
 H 0.652 0.7664 0.6409   0.143631
 H 0.973 0.7413 0.641   0.322413
 H 0.8961 0.7405 0.6022   0.303904
 H 0.6119 0.4635 0.0996   0.089044
 H 0.715 0.4161 0.0348   0.137808
 H 0.7431 0.2154 0.1472   0.120871
 H 0.6409 0.2726 0.2099   0.06747
 H 0.7962 0.3474 0.97   0.081105
 H 0.9098 0.2955 0.914   0.115998
 H 0.0036 0.197 0.9584   0.093713
 H 0.8664 0.2024 0.1144   0.100388
 H 0.1195 0.9552 0.2112   0.10661
 H 0.2292 0.9362 0.2792   0.116838
 H 0.3333 0.0352 0.2891   0.103143
 H 0.2234 0.175 0.1543   0.098995
 H 0.3926 0.1556 0.3152   0.131591
 H 0.4891 0.2662 0.3244   0.065882
 H 0.443 0.3396 0.156   0.061272
 H 0.348 0.2336 0.1409   0.143631
 H 0.027 0.2587 0.141   0.322413
 H 0.1039 0.2595 0.1022   0.303904
 H 0.4635 0.6119 0.9004   0.089044
 H 0.4161 0.715 0.9652   0.137808
 H 0.2154 0.7431 0.8528   0.120871
 H 0.2726 0.6409 0.7901   0.06747
 H 0.3474 0.7962 0.03   0.081106
 H 0.2955 0.9098 0.086   0.115998
 H 0.197 0.0036 0.0416   0.093713
 H 0.2024 0.8664 0.8856   0.100388
 H 0.9552 0.1195 0.7888   0.10661
 H 0.9362 0.2292 0.7208   0.116838
 H 0.0352 0.3333 0.7109   0.103143
 H 0.175 0.2234 0.8457   0.098995
 H 0.1556 0.3926 0.6848   0.13159
 H 0.2662 0.4891 0.6756   0.065882
 H 0.3396 0.443 0.844   0.061272
 H 0.2336 0.348 0.8591   0.143631
 H 0.2587 0.027 0.859   0.322414
 H 0.2595 0.1039 0.8978   0.303904
 H 0.5365 0.3881 0.4004   0.089044
 H 0.5839 0.285 0.4652   0.137808
 H 0.7846 0.2569 0.3528   0.120871
 H 0.7274 0.3591 0.2901   0.06747
 H 0.6526 0.2038 0.53   0.081106
 H 0.7045 0.0902 0.586   0.115998
 H 0.803 0.9964 0.5416   0.093713
 H 0.7976 0.1336 0.3856   0.100388
 H 0.0448 0.8805 0.2888   0.10661
 H 0.0638 0.7708 0.2208   0.116838
 H 0.9648 0.6667 0.2109   0.103143
 H 0.825 0.7766 0.3457   0.098995
 H 0.8444 0.6074 0.1848   0.13159
 H 0.7338 0.5109 0.1756   0.065882
 H 0.6604 0.557 0.344   0.061272
 H 0.7664 0.652 0.3591   0.143631
 H 0.7413 0.973 0.359   0.322414
 H 0.7405 0.8961 0.3978   0.303904
 H 0.1119 0.0365 0.6504   0.089044
 H 0.215 0.0839 0.7152   0.137808
 H 0.2431 0.2846 0.6028   0.120871
 H 0.1409 0.2274 0.5401   0.06747
 H 0.2962 0.1526 0.78   0.081105
 H 0.4098 0.2045 0.836   0.115998
 H 0.5036 0.303 0.7916   0.093713
 H 0.3664 0.2976 0.6356   0.100388
 H 0.6195 0.5448 0.5388   0.10661
 H 0.7292 0.5638 0.4708   0.116838
 H 0.8333 0.4648 0.4609   0.103143
 H 0.7234 0.325 0.5957   0.098995
 H 0.8926 0.3444 0.4348   0.131591
 H 0.9891 0.2338 0.4256   0.065882
 H 0.943 0.1604 0.594   0.061272
 H 0.848 0.2664 0.6091   0.143631
 H 0.527 0.2413 0.609   0.322413
 H 0.6039 0.2405 0.6478   0.303904
 H 0.8881 0.9635 0.1504   0.089044
 H 0.785 0.9161 0.2152   0.137808
 H 0.7569 0.7154 0.1028   0.120871
 H 0.8591 0.7726 0.0401   0.06747
 H 0.7038 0.8474 0.28   0.081105
 H 0.5902 0.7955 0.336   0.115998
 H 0.4964 0.697 0.2916   0.093713
 H 0.6336 0.7024 0.1356   0.100388
 H 0.3805 0.4552 0.0388   0.10661
 H 0.2708 0.4362 0.9708   0.116838
 H 0.1667 0.5352 0.9609   0.103143
 H 0.2766 0.675 0.0957   0.098995
 H 0.1074 0.6556 0.9348   0.131591
 H 0.0109 0.7662 0.9256   0.065882
 H 0.057 0.8396 0.094   0.061272
 H 0.152 0.7336 0.1091   0.143631
 H 0.473 0.7587 0.109   0.322413
 H 0.3961 0.7595 0.1478   0.303904
 C 0.0864 0.1414 0.3604   0.163961
 C 0.1143 0.2026 0.3213   -0.189644
 C 0.1885 0.247 0.3356   0.114854
 C 0.2314 0.2194 0.3872   -0.204577
 C 0.1972 0.1575 0.4242   0.146836
 C 0.2185 0.3193 0.2984   0.007169
 C 0.1923 0.3333 0.2383   -0.076428
 C 0.2233 0.4009 0.2049   -0.076518
 C 0.2825 0.4566 0.2309   -0.061809
 C 0.3099 0.4408 0.2903   -0.042612
 C 0.2785 0.3749 0.3235   -0.115381
 C 0.3719 0.4969 0.3197   0.237382
 C 0.4243 0.5916 0.3819   0.243589
 C 0.4326 0.6616 0.4263   -0.016366
 C 0.504 0.6632 0.4638   -0.06121
 C 0.5147 0.7277 0.5042   -0.065011
 C 0.4564 0.79 0.5096   -0.107037
 C 0.3829 0.792 0.4718   0.005045
 C 0.3731 0.7251 0.4301   -0.107741
 C 0.3181 0.8577 0.478   0.118214
 C 0.3072 0.9014 0.5317   -0.219212
 C 0.2404 0.9595 0.5368   0.175122
 C 0.1983 0.9325 0.439   0.164879
 C 0.261 0.8755 0.4294   -0.191331
 C 0.9136 0.8586 0.8604   0.163961
 C 0.8857 0.7974 0.8213   -0.189644
 C 0.8115 0.753 0.8356   0.114854
 C 0.7686 0.7806 0.8872   -0.204577
 C 0.8028 0.8425 0.9242   0.146836
 C 0.7815 0.6807 0.7984   0.007169
 C 0.8077 0.6667 0.7383   -0.076428
 C 0.7767 0.5991 0.7049   -0.076518
 C 0.7175 0.5434 0.7309   -0.061809
 C 0.6901 0.5592 0.7903   -0.042612
 C 0.7215 0.6251 0.8235   -0.115381
 C 0.6281 0.5031 0.8197   0.237382
 C 0.5757 0.4084 0.8819   0.243589
 C 0.5674 0.3384 0.9263   -0.016366
 C 0.496 0.3368 0.9638   -0.06121
 C 0.4853 0.2723 0.0042   -0.065011
 C 0.5436 0.21 0.0096   -0.107037
 C 0.6171 0.208 0.9718   0.005045
 C 0.6269 0.2749 0.9301   -0.107741
 C 0.6819 0.1423 0.978   0.118214
 C 0.6928 0.0986 0.0317   -0.219212
 C 0.7596 0.0405 0.0368   0.175122
 C 0.8017 0.0675 0.939   0.164879
 C 0.739 0.1245 0.9294   -0.191331
 C 0.3586 0.5864 0.6104   0.163961
 C 0.2974 0.6143 0.5713   -0.189644
 C 0.253 0.6885 0.5856   0.114854
 C 0.2806 0.7314 0.6372   -0.204577
 C 0.3425 0.6972 0.6742   0.146836
 C 0.1807 0.7185 0.5484   0.007169
 C 0.1667 0.6923 0.4883   -0.076428
 C 0.0991 0.7233 0.4549   -0.076518
 C 0.0434 0.7825 0.4809   -0.061809
 C 0.0592 0.8099 0.5403   -0.042612
 C 0.1251 0.7785 0.5735   -0.115381
 C 0.0031 0.8719 0.5697   0.237382
 C 0.9084 0.9243 0.6319   0.243589
 C 0.8384 0.9326 0.6763   -0.016366
 C 0.8368 0.004 0.7138   -0.06121
 C 0.7723 0.0147 0.7542   -0.065011
 C 0.71 0.9564 0.7596   -0.107037
 C 0.708 0.8829 0.7218   0.005045
 C 0.7749 0.8731 0.6801   -0.10774
 C 0.6423 0.8181 0.728   0.118214
 C 0.5986 0.8072 0.7817   -0.219212
 C 0.5405 0.7404 0.7868   0.175122
 C 0.5675 0.6983 0.689   0.164879
 C 0.6245 0.761 0.6794   -0.191331
 C 0.6414 0.4136 0.1104   0.163961
 C 0.7026 0.3857 0.0713   -0.189644
 C 0.747 0.3115 0.0856   0.114854
 C 0.7194 0.2686 0.1372   -0.204577
 C 0.6575 0.3028 0.1742   0.146836
 C 0.8193 0.2815 0.0484   0.007169
 C 0.8333 0.3077 0.9883   -0.076428
 C 0.9009 0.2767 0.9549   -0.076518
 C 0.9566 0.2175 0.9809   -0.061809
 C 0.9408 0.1901 0.0403   -0.042612
 C 0.8749 0.2215 0.0735   -0.115381
 C 0.9969 0.1281 0.0697   0.237382
 C 0.0916 0.0757 0.1319   0.243589
 C 0.1616 0.0674 0.1763   -0.016366
 C 0.1632 0.996 0.2138   -0.06121
 C 0.2277 0.9853 0.2542   -0.065011
 C 0.29 0.0436 0.2596   -0.107037
 C 0.292 0.1171 0.2218   0.005045
 C 0.2251 0.1269 0.1801   -0.10774
 C 0.3577 0.1819 0.228   0.118214
 C 0.4014 0.1928 0.2817   -0.219212
 C 0.4595 0.2596 0.2868   0.175122
 C 0.4325 0.3017 0.189   0.164879
 C 0.3755 0.239 0.1794   -0.191331
 C 0.4136 0.6414 0.8896   0.163961
 C 0.3857 0.7026 0.9287   -0.189644
 C 0.3115 0.747 0.9144   0.114854
 C 0.2686 0.7194 0.8628   -0.204577
 C 0.3028 0.6575 0.8258   0.146836
 C 0.2815 0.8193 0.9516   0.007169
 C 0.3077 0.8333 0.0117   -0.076428
 C 0.2767 0.9009 0.0451   -0.076518
 C 0.2175 0.9566 0.0191   -0.061809
 C 0.1901 0.9408 0.9597   -0.042612
 C 0.2215 0.8749 0.9265   -0.115381
 C 0.1281 0.9969 0.9303   0.237381
 C 0.0757 0.0916 0.8681   0.243589
 C 0.0674 0.1616 0.8237   -0.016366
 C 0.996 0.1632 0.7862   -0.061209
 C 0.9853 0.2277 0.7458   -0.065011
 C 0.0436 0.29 0.7404   -0.107037
 C 0.1171 0.292 0.7782   0.005045
 C 0.1269 0.2251 0.8199   -0.107741
 C 0.1819 0.3577 0.772   0.118214
 C 0.1928 0.4014 0.7183   -0.219212
 C 0.2596 0.4595 0.7132   0.175122
 C 0.3017 0.4325 0.811   0.164879
 C 0.239 0.3755 0.8206   -0.191331
 C 0.5864 0.3586 0.3896   0.163961
 C 0.6143 0.2974 0.4287   -0.189644
 C 0.6885 0.253 0.4144   0.114854
 C 0.7314 0.2806 0.3628   -0.204577
 C 0.6972 0.3425 0.3258   0.146836
 C 0.7185 0.1807 0.4516   0.007169
 C 0.6923 0.1667 0.5117   -0.076428
 C 0.7233 0.0991 0.5451   -0.076518
 C 0.7825 0.0434 0.5191   -0.061809
 C 0.8099 0.0592 0.4597   -0.042612
 C 0.7785 0.1251 0.4265   -0.115381
 C 0.8719 0.0031 0.4303   0.237381
 C 0.9243 0.9084 0.3681   0.243589
 C 0.9326 0.8384 0.3237   -0.016366
 C 0.004 0.8368 0.2862   -0.061209
 C 0.0147 0.7723 0.2458   -0.065011
 C 0.9564 0.71 0.2404   -0.107037
 C 0.8829 0.708 0.2782   0.005045
 C 0.8731 0.7749 0.3199   -0.107741
 C 0.8181 0.6423 0.272   0.118214
 C 0.8072 0.5986 0.2183   -0.219212
 C 0.7404 0.5405 0.2132   0.175122
 C 0.6983 0.5675 0.311   0.164879
 C 0.761 0.6245 0.3206   -0.191331
 C 0.1414 0.0864 0.6396   0.163961
 C 0.2026 0.1143 0.6787   -0.189644
 C 0.247 0.1885 0.6644   0.114855
 C 0.2194 0.2314 0.6128   -0.204577
 C 0.1575 0.1972 0.5758   0.146836
 C 0.3193 0.2185 0.7016   0.007169
 C 0.3333 0.1923 0.7617   -0.076428
 C 0.4009 0.2233 0.7951   -0.076518
 C 0.4566 0.2825 0.7691   -0.061809
 C 0.4408 0.3099 0.7097   -0.042612
 C 0.3749 0.2785 0.6765   -0.115381
 C 0.4969 0.3719 0.6803   0.237381
 C 0.5916 0.4243 0.6181   0.243589
 C 0.6616 0.4326 0.5737   -0.016366
 C 0.6632 0.504 0.5362   -0.06121
 C 0.7277 0.5147 0.4958   -0.065011
 C 0.79 0.4564 0.4904   -0.107037
 C 0.792 0.3829 0.5282   0.005045
 C 0.7251 0.3731 0.5699   -0.10774
 C 0.8577 0.3181 0.522   0.118214
 C 0.9014 0.3072 0.4683   -0.219212
 C 0.9595 0.2404 0.4632   0.175122
 C 0.9325 0.1983 0.561   0.164879
 C 0.8755 0.261 0.5706   -0.191331
 C 0.8586 0.9136 0.1396   0.163961
 C 0.7974 0.8857 0.1787   -0.189644
 C 0.753 0.8115 0.1644   0.114855
 C 0.7806 0.7686 0.1128   -0.204577
 C 0.8425 0.8028 0.0758   0.146836
 C 0.6807 0.7815 0.2016   0.007169
 C 0.6667 0.8077 0.2617   -0.076428
 C 0.5991 0.7767 0.2951   -0.076518
 C 0.5434 0.7175 0.2691   -0.061809
 C 0.5592 0.6901 0.2097   -0.042612
 C 0.6251 0.7215 0.1765   -0.115381
 C 0.5031 0.6281 0.1803   0.237381
 C 0.4084 0.5757 0.1181   0.243589
 C 0.3384 0.5674 0.0737   -0.016366
 C 0.3368 0.496 0.0362   -0.06121
 C 0.2723 0.4853 0.9958   -0.065011
 C 0.21 0.5436 0.9904   -0.107037
 C 0.208 0.6171 0.0282   0.005045
 C 0.2749 0.6269 0.0699   -0.10774
 C 0.1423 0.6819 0.022   0.118214
 C 0.0986 0.6928 0.9683   -0.219212
 C 0.0405 0.7596 0.9632   0.175122
 C 0.0675 0.8017 0.061   0.164879
 C 0.1245 0.739 0.0706   -0.191331
 N 0.1242 0.1202 0.4126   -0.347082
 N 0.4552 0.4946 0.316   -0.239077
 N 0.4879 0.5541 0.3551   -0.290282
 N 0.3507 0.5566 0.3609   0.100831
 N 0.2689 0.5757 0.3821   -0.553039
 N 0.1861 0.975 0.4916   -0.363165
 N 0.8758 0.8798 0.9126   -0.347082
 N 0.5448 0.5054 0.816   -0.239077
 N 0.5121 0.4459 0.8551   -0.290282
 N 0.6493 0.4434 0.8609   0.100831
 N 0.7311 0.4243 0.8821   -0.553039
 N 0.8139 0.025 0.9916   -0.363165
 N 0.3798 0.6242 0.6626   -0.347082
 N 0.0054 0.9552 0.566   -0.239077
 N 0.9459 0.9879 0.6051   -0.290282
 N 0.9434 0.8507 0.6109   0.100831
 N 0.9243 0.7689 0.6321   -0.553039
 N 0.525 0.6861 0.7416   -0.363165
 N 0.6202 0.3758 0.1626   -0.347082
 N 0.9946 0.0448 0.066   -0.239077
 N 0.0541 0.0121 0.1051   -0.290282
 N 0.0566 0.1493 0.1109   0.100831
 N 0.0757 0.2311 0.1321   -0.553039
 N 0.475 0.3139 0.2416   -0.363165
 N 0.3758 0.6202 0.8374   -0.347082
 N 0.0448 0.9946 0.934   -0.239077
 N 0.0121 0.0541 0.8949   -0.290282
 N 0.1493 0.0566 0.8891   0.100831
 N 0.2311 0.0757 0.8679   -0.553039
 N 0.3139 0.475 0.7584   -0.363165
 N 0.6242 0.3798 0.3374   -0.347082
 N 0.9552 0.0054 0.434   -0.239077
 N 0.9879 0.9459 0.3949   -0.290282
 N 0.8507 0.9434 0.3891   0.100831
 N 0.7689 0.9243 0.3679   -0.553039
 N 0.6861 0.525 0.2584   -0.363165
 N 0.1202 0.1242 0.5874   -0.347082
 N 0.4946 0.4552 0.684   -0.239077
 N 0.5541 0.4879 0.6449   -0.290282
 N 0.5566 0.3507 0.6391   0.100831
 N 0.5757 0.2689 0.6179   -0.553039
 N 0.975 0.1861 0.5084   -0.363165
 N 0.8798 0.8758 0.0874   -0.347082
 N 0.5054 0.5448 0.184   -0.239077
 N 0.4459 0.5121 0.1449   -0.290282
 N 0.4434 0.6493 0.1391   0.100831
 N 0.4243 0.7311 0.1179   -0.553039
 N 0.025 0.8139 0.0084   -0.363165
 Cl 0.23162 0.23162 0.0   1.468738
 Cl 0.62109 0.62109 0.0   1.574548
 Cl 0.76838 0.76838 0.5   1.468738
 Cl 0.37891 0.37891 0.5   1.574548
 Cl 0.26838 0.73162 0.25   1.468738
 Cl 0.87891 0.12109 0.25   1.574548
 Cl 0.73162 0.26838 0.75   1.468738
 Cl 0.12109 0.87891 0.75   1.574548
 O 0.2613 0.2727 0.0522   -0.630121
 O 0.2769 0.1578 0.008   -0.508459
 O 0.2727 0.2613 0.9478   -0.630121
 O 0.1578 0.2769 0.992   -0.508459
 O 0.642 0.5516 0.9713   -0.602072
 O 0.6645 0.597 0.0534   -0.590386
 O 0.5516 0.642 0.0287   -0.602072
 O 0.597 0.6645 0.9466   -0.590386
 O 0.7387 0.7273 0.5522   -0.630121
 O 0.7231 0.8422 0.508   -0.508459
 O 0.7273 0.7387 0.4478   -0.630121
 O 0.8422 0.7231 0.492   -0.508459
 O 0.358 0.4484 0.4713   -0.602072
 O 0.3355 0.403 0.5534   -0.590386
 O 0.4484 0.358 0.5287   -0.602072
 O 0.403 0.3355 0.4466   -0.590386
 O 0.2273 0.7613 0.3022   -0.630121
 O 0.3422 0.7769 0.258   -0.508459
 O 0.2387 0.7727 0.1978   -0.630121
 O 0.2231 0.6578 0.242   -0.508459
 O 0.9484 0.142 0.2213   -0.602072
 O 0.903 0.1645 0.3034   -0.590386
 O 0.858 0.0516 0.2787   -0.602072
 O 0.8355 0.097 0.1966   -0.590386
 O 0.7727 0.2387 0.8022   -0.630121
 O 0.6578 0.2231 0.758   -0.508459
 O 0.7613 0.2273 0.6978   -0.630121
 O 0.7769 0.3422 0.742   -0.508459
 O 0.0516 0.858 0.7213   -0.602072
 O 0.097 0.8355 0.8034   -0.590386
 O 0.142 0.9484 0.7787   -0.602072
 O 0.1645 0.903 0.6966   -0.590386
