{'_ref': 'TBD', '_srcid': 'CAKYAQ_clean', 'submitters': [{'name': 'Dalar Nazarian Jeff Camp and David Sholl', 'email': 'dalar@gatech.edu jcamp6@gatech.edu'}], '_method': 'VASP DFT with PBE;DDEC'}
data_CdH36C48N12ClO4
_symmetry_space_group_name_H-M   'P 1'
_cell_length_a   15.86330000
_cell_length_b   15.86330000
_cell_length_c   21.76000000
_cell_angle_alpha   90.00000000
_cell_angle_beta   90.00000000
_cell_angle_gamma   90.00000000
_symmetry_Int_Tables_number   1
_chemical_formula_structural   CdH36C48N12ClO4
_chemical_formula_sum   'Cd4 H144 C192 N48 Cl4 O16'
_cell_volume   5475.77968273
_cell_formula_units_Z   4
loop_
 _symmetry_equiv_pos_site_id
 _symmetry_equiv_pos_as_xyz
  1  'x, y, z'
loop_
 _atom_site_label
 _atom_site_fract_x
 _atom_site_fract_y
 _atom_site_fract_z
 _atom_site_charge
 Cd 0.94096 0.05904 0.75   0.789271
 Cd 0.05904 0.94096 0.25   0.789271
 Cd 0.44096 0.44096 0.5   0.789271
 Cd 0.55904 0.55904 0.0   0.789271
 H 0.4646 0.3869 0.6493   0.074977
 H 0.4155 0.286 0.7161   0.133383
 H 0.2109 0.2625 0.6059   0.131195
 H 0.2698 0.3604 0.5406   0.071621
 H 0.3468 0.2049 0.7811   0.072997
 H 0.2959 0.0911 0.8362   0.095743
 H 0.1977 0.9985 0.7927   0.088051
 H 0.1972 0.1393 0.6372   0.120332
 H 0.9558 0.8811 0.5402   0.102891
 H 0.9348 0.7696 0.473   0.096519
 H 0.0366 0.6659 0.4618   0.102549
 H 0.1752 0.7769 0.5954   0.088595
 H 0.1487 0.601 0.4375   0.127887
 H 0.2581 0.5041 0.4273   0.065971
 H 0.3426 0.5597 0.5918   0.050909
 H 0.2345 0.6544 0.6078   0.117842
 H 0.2602 0.8987 0.647   0.306476
 H 0.257 0.9749 0.6074   0.328384
 H 0.5354 0.6131 0.1493   0.074977
 H 0.5845 0.714 0.2161   0.133383
 H 0.7891 0.7375 0.1059   0.131195
 H 0.7302 0.6396 0.0406   0.071621
 H 0.6532 0.7951 0.2811   0.072997
 H 0.7041 0.9089 0.3362   0.095743
 H 0.8023 0.0015 0.2927   0.088051
 H 0.8028 0.8607 0.1372   0.120332
 H 0.0442 0.1189 0.0402   0.102891
 H 0.0652 0.2304 0.973   0.096519
 H 0.9634 0.3341 0.9618   0.102549
 H 0.8248 0.2231 0.0954   0.088595
 H 0.8513 0.399 0.9375   0.127887
 H 0.7419 0.4959 0.9273   0.065971
 H 0.6574 0.4403 0.0918   0.050909
 H 0.7655 0.3456 0.1078   0.117842
 H 0.7398 0.1013 0.147   0.306476
 H 0.743 0.0251 0.1074   0.328384
 H 0.1131 0.9646 0.3993   0.074977
 H 0.214 0.9155 0.4661   0.133383
 H 0.2375 0.7109 0.3559   0.131195
 H 0.1396 0.7698 0.2906   0.071621
 H 0.2951 0.8468 0.5311   0.072997
 H 0.4089 0.7959 0.5862   0.095742
 H 0.5015 0.6977 0.5427   0.088051
 H 0.3607 0.6972 0.3872   0.120332
 H 0.6189 0.4558 0.2902   0.102891
 H 0.7304 0.4348 0.223   0.096522
 H 0.8341 0.5366 0.2118   0.102549
 H 0.7231 0.6752 0.3454   0.088595
 H 0.899 0.6487 0.1875   0.127887
 H 0.9959 0.7581 0.1773   0.065971
 H 0.9403 0.8426 0.3418   0.050908
 H 0.8456 0.7345 0.3578   0.117845
 H 0.6013 0.7602 0.397   0.306476
 H 0.5251 0.757 0.3574   0.328384
 H 0.8869 0.0354 0.8993   0.074977
 H 0.786 0.0845 0.9661   0.133383
 H 0.7625 0.2891 0.8559   0.131195
 H 0.8604 0.2302 0.7906   0.071621
 H 0.7049 0.1532 0.0311   0.072997
 H 0.5911 0.2041 0.0862   0.095742
 H 0.4985 0.3023 0.0427   0.088051
 H 0.6393 0.3028 0.8872   0.120332
 H 0.3811 0.5442 0.7902   0.102891
 H 0.2696 0.5652 0.723   0.096522
 H 0.1659 0.4634 0.7118   0.102549
 H 0.2769 0.3248 0.8454   0.088595
 H 0.101 0.3513 0.6875   0.127887
 H 0.0041 0.2419 0.6773   0.065971
 H 0.0597 0.1574 0.8418   0.050908
 H 0.1544 0.2655 0.8578   0.117845
 H 0.3987 0.2398 0.897   0.306476
 H 0.4749 0.243 0.8574   0.328384
 H 0.0354 0.8869 0.1007   0.074976
 H 0.0845 0.786 0.0339   0.133383
 H 0.2891 0.7625 0.1441   0.131195
 H 0.2302 0.8604 0.2094   0.071621
 H 0.1532 0.7049 0.9689   0.072997
 H 0.2041 0.5911 0.9138   0.095742
 H 0.3023 0.4985 0.9573   0.088052
 H 0.3028 0.6393 0.1128   0.120332
 H 0.5442 0.3811 0.2098   0.10289
 H 0.5652 0.2696 0.277   0.096522
 H 0.4634 0.1659 0.2882   0.102549
 H 0.3248 0.2769 0.1546   0.088595
 H 0.3513 0.101 0.3125   0.127887
 H 0.2419 0.0041 0.3227   0.065971
 H 0.1574 0.0597 0.1582   0.050908
 H 0.2655 0.1544 0.1422   0.117842
 H 0.2398 0.3987 0.103   0.306478
 H 0.243 0.4749 0.1426   0.328384
 H 0.9646 0.1131 0.6007   0.074976
 H 0.9155 0.214 0.5339   0.133383
 H 0.7109 0.2375 0.6441   0.131195
 H 0.7698 0.1396 0.7094   0.071621
 H 0.8468 0.2951 0.4689   0.072997
 H 0.7959 0.4089 0.4138   0.095742
 H 0.6977 0.5015 0.4573   0.088052
 H 0.6972 0.3607 0.6128   0.120332
 H 0.4558 0.6189 0.7098   0.10289
 H 0.4348 0.7304 0.777   0.096522
 H 0.5366 0.8341 0.7882   0.102549
 H 0.6752 0.7231 0.6546   0.088595
 H 0.6487 0.899 0.8125   0.127887
 H 0.7581 0.9959 0.8227   0.065971
 H 0.8426 0.9403 0.6582   0.050908
 H 0.7345 0.8456 0.6422   0.117842
 H 0.7602 0.6013 0.603   0.306478
 H 0.757 0.5251 0.6426   0.328384
 H 0.3869 0.4646 0.3507   0.074977
 H 0.286 0.4155 0.2839   0.133383
 H 0.2625 0.2109 0.3941   0.131195
 H 0.3604 0.2698 0.4594   0.071621
 H 0.2049 0.3468 0.2189   0.072997
 H 0.0911 0.2959 0.1638   0.095742
 H 0.9985 0.1977 0.2073   0.088052
 H 0.1393 0.1972 0.3628   0.120332
 H 0.8811 0.9558 0.4598   0.10289
 H 0.7696 0.9348 0.527   0.096525
 H 0.6659 0.0366 0.5382   0.102549
 H 0.7769 0.1752 0.4046   0.088596
 H 0.601 0.1487 0.5625   0.127887
 H 0.5041 0.2581 0.5727   0.065971
 H 0.5597 0.3426 0.4082   0.050908
 H 0.6544 0.2345 0.3922   0.117845
 H 0.8987 0.2602 0.353   0.306478
 H 0.9749 0.257 0.3926   0.328383
 H 0.6131 0.5354 0.8507   0.074977
 H 0.714 0.5845 0.7839   0.133383
 H 0.7375 0.7891 0.8941   0.131195
 H 0.6396 0.7302 0.9594   0.071621
 H 0.7951 0.6532 0.7189   0.072997
 H 0.9089 0.7041 0.6638   0.095742
 H 0.0015 0.8023 0.7073   0.088052
 H 0.8607 0.8028 0.8628   0.120332
 H 0.1189 0.0442 0.9598   0.10289
 H 0.2304 0.0652 0.027   0.096525
 H 0.3341 0.9634 0.0382   0.102549
 H 0.2231 0.8248 0.9046   0.088596
 H 0.399 0.8513 0.0625   0.127887
 H 0.4959 0.7419 0.0727   0.065971
 H 0.4403 0.6574 0.9082   0.050908
 H 0.3456 0.7655 0.8922   0.117845
 H 0.1013 0.7398 0.853   0.306478
 H 0.0251 0.743 0.8926   0.328383
 C 0.4135 0.3587 0.6394   0.152896
 C 0.385 0.2986 0.6797   -0.204267
 C 0.309 0.2558 0.6658   0.084981
 C 0.2654 0.2844 0.6146   -0.200446
 C 0.3001 0.3441 0.5763   0.13967
 C 0.2785 0.1842 0.7033   0.02058
 C 0.3064 0.1684 0.7628   -0.088994
 C 0.2763 0.1006 0.7956   -0.08991
 C 0.2177 0.0456 0.77   -0.119891
 C 0.1889 0.0606 0.7106   -0.04791
 C 0.218 0.1292 0.6775   -0.136352
 C 0.1266 0.0051 0.6801   0.239336
 C 0.0758 0.9094 0.6183   0.236227
 C 0.0676 0.839 0.5739   0.004426
 C 0.9964 0.8372 0.5375   -0.100618
 C 0.9846 0.7717 0.4973   -0.086645
 C 0.0439 0.7091 0.4916   -0.121132
 C 0.1148 0.7087 0.5294   0.019182
 C 0.1264 0.7753 0.5701   -0.135229
 C 0.1807 0.6418 0.5229   0.092805
 C 0.1883 0.5942 0.4699   -0.211317
 C 0.2542 0.5362 0.464   0.160643
 C 0.3028 0.5683 0.5598   0.173381
 C 0.2389 0.6259 0.5696   -0.228827
 C 0.5865 0.6413 0.1394   0.152896
 C 0.615 0.7014 0.1797   -0.204267
 C 0.691 0.7442 0.1658   0.084981
 C 0.7346 0.7156 0.1146   -0.200446
 C 0.6999 0.6559 0.0763   0.13967
 C 0.7215 0.8158 0.2033   0.02058
 C 0.6936 0.8316 0.2628   -0.088994
 C 0.7237 0.8994 0.2956   -0.08991
 C 0.7823 0.9544 0.27   -0.119891
 C 0.8111 0.9394 0.2106   -0.04791
 C 0.782 0.8708 0.1775   -0.136352
 C 0.8734 0.9949 0.1801   0.239336
 C 0.9242 0.0906 0.1183   0.236227
 C 0.9324 0.161 0.0739   0.004426
 C 0.0036 0.1628 0.0375   -0.100618
 C 0.0154 0.2283 0.9973   -0.086645
 C 0.9561 0.2909 0.9916   -0.121132
 C 0.8852 0.2913 0.0294   0.019182
 C 0.8736 0.2247 0.0701   -0.135229
 C 0.8193 0.3582 0.0229   0.092805
 C 0.8117 0.4058 0.9699   -0.211317
 C 0.7458 0.4638 0.964   0.160643
 C 0.6972 0.4317 0.0598   0.173381
 C 0.7611 0.3741 0.0696   -0.228827
 C 0.1413 0.9135 0.3894   0.152895
 C 0.2014 0.885 0.4297   -0.204267
 C 0.2442 0.809 0.4158   0.084981
 C 0.2156 0.7654 0.3646   -0.200446
 C 0.1559 0.8001 0.3263   0.13967
 C 0.3158 0.7785 0.4533   0.02058
 C 0.3316 0.8064 0.5128   -0.088994
 C 0.3994 0.7763 0.5456   -0.08991
 C 0.4544 0.7177 0.52   -0.11989
 C 0.4394 0.6889 0.4606   -0.04791
 C 0.3708 0.718 0.4275   -0.136352
 C 0.4949 0.6266 0.4301   0.239336
 C 0.5906 0.5758 0.3683   0.236227
 C 0.661 0.5676 0.3239   0.004426
 C 0.6628 0.4964 0.2875   -0.100618
 C 0.7283 0.4846 0.2473   -0.086647
 C 0.7909 0.5439 0.2416   -0.121132
 C 0.7913 0.6148 0.2794   0.019182
 C 0.7247 0.6264 0.3201   -0.135229
 C 0.8582 0.6807 0.2729   0.092805
 C 0.9058 0.6883 0.2199   -0.211317
 C 0.9638 0.7542 0.214   0.160643
 C 0.9317 0.8028 0.3098   0.173382
 C 0.8741 0.7389 0.3196   -0.228828
 C 0.8587 0.0865 0.8894   0.152895
 C 0.7986 0.115 0.9297   -0.204267
 C 0.7558 0.191 0.9158   0.084981
 C 0.7844 0.2346 0.8646   -0.200446
 C 0.8441 0.1999 0.8263   0.13967
 C 0.6842 0.2215 0.9533   0.02058
 C 0.6684 0.1936 0.0128   -0.088994
 C 0.6006 0.2237 0.0456   -0.08991
 C 0.5456 0.2823 0.02   -0.11989
 C 0.5606 0.3111 0.9606   -0.04791
 C 0.6292 0.282 0.9275   -0.136352
 C 0.5051 0.3734 0.9301   0.239336
 C 0.4094 0.4242 0.8683   0.236227
 C 0.339 0.4324 0.8239   0.004426
 C 0.3372 0.5036 0.7875   -0.100618
 C 0.2717 0.5154 0.7473   -0.086647
 C 0.2091 0.4561 0.7416   -0.121132
 C 0.2087 0.3852 0.7794   0.019182
 C 0.2753 0.3736 0.8201   -0.135229
 C 0.1418 0.3193 0.7729   0.092805
 C 0.0942 0.3117 0.7199   -0.211317
 C 0.0362 0.2458 0.714   0.160643
 C 0.0683 0.1972 0.8098   0.173382
 C 0.1259 0.2611 0.8196   -0.228828
 C 0.0865 0.8587 0.1106   0.152896
 C 0.115 0.7986 0.0703   -0.204267
 C 0.191 0.7558 0.0842   0.084981
 C 0.2346 0.7844 0.1354   -0.200446
 C 0.1999 0.8441 0.1737   0.13967
 C 0.2215 0.6842 0.0467   0.02058
 C 0.1936 0.6684 0.9872   -0.088994
 C 0.2237 0.6006 0.9544   -0.08991
 C 0.2823 0.5456 0.98   -0.119891
 C 0.3111 0.5606 0.0394   -0.04791
 C 0.282 0.6292 0.0725   -0.136352
 C 0.3734 0.5051 0.0699   0.239336
 C 0.4242 0.4094 0.1317   0.236227
 C 0.4324 0.339 0.1761   0.004426
 C 0.5036 0.3372 0.2125   -0.100617
 C 0.5154 0.2717 0.2527   -0.086647
 C 0.4561 0.2091 0.2584   -0.121132
 C 0.3852 0.2087 0.2206   0.019182
 C 0.3736 0.2753 0.1799   -0.13523
 C 0.3193 0.1418 0.2271   0.092805
 C 0.3117 0.0942 0.2801   -0.211317
 C 0.2458 0.0362 0.286   0.160643
 C 0.1972 0.0683 0.1902   0.173381
 C 0.2611 0.1259 0.1804   -0.228828
 C 0.9135 0.1413 0.6106   0.152896
 C 0.885 0.2014 0.5703   -0.204267
 C 0.809 0.2442 0.5842   0.084981
 C 0.7654 0.2156 0.6354   -0.200446
 C 0.8001 0.1559 0.6737   0.13967
 C 0.7785 0.3158 0.5467   0.02058
 C 0.8064 0.3316 0.4872   -0.088994
 C 0.7763 0.3994 0.4544   -0.08991
 C 0.7177 0.4544 0.48   -0.119891
 C 0.6889 0.4394 0.5394   -0.04791
 C 0.718 0.3708 0.5725   -0.136352
 C 0.6266 0.4949 0.5699   0.239336
 C 0.5758 0.5906 0.6317   0.236227
 C 0.5676 0.661 0.6761   0.004426
 C 0.4964 0.6628 0.7125   -0.100617
 C 0.4846 0.7283 0.7527   -0.086647
 C 0.5439 0.7909 0.7584   -0.121132
 C 0.6148 0.7913 0.7206   0.019182
 C 0.6264 0.7247 0.6799   -0.13523
 C 0.6807 0.8582 0.7271   0.092805
 C 0.6883 0.9058 0.7801   -0.211317
 C 0.7542 0.9638 0.786   0.160643
 C 0.8028 0.9317 0.6902   0.173381
 C 0.7389 0.8741 0.6804   -0.228828
 C 0.3587 0.4135 0.3606   0.152895
 C 0.2986 0.385 0.3203   -0.204267
 C 0.2558 0.309 0.3342   0.084981
 C 0.2844 0.2654 0.3854   -0.200446
 C 0.3441 0.3001 0.4237   0.13967
 C 0.1842 0.2785 0.2967   0.02058
 C 0.1684 0.3064 0.2372   -0.088994
 C 0.1006 0.2763 0.2044   -0.08991
 C 0.0456 0.2177 0.23   -0.119891
 C 0.0606 0.1889 0.2894   -0.047909
 C 0.1292 0.218 0.3225   -0.136352
 C 0.0051 0.1266 0.3199   0.239336
 C 0.9094 0.0758 0.3817   0.236227
 C 0.839 0.0676 0.4261   0.004426
 C 0.8372 0.9964 0.4625   -0.100617
 C 0.7717 0.9846 0.5027   -0.086648
 C 0.7091 0.0439 0.5084   -0.121131
 C 0.7087 0.1148 0.4706   0.019182
 C 0.7753 0.1264 0.4299   -0.135229
 C 0.6418 0.1807 0.4771   0.092805
 C 0.5942 0.1883 0.5301   -0.211317
 C 0.5362 0.2542 0.536   0.160643
 C 0.5683 0.3028 0.4402   0.173382
 C 0.6259 0.2389 0.4304   -0.228828
 C 0.6413 0.5865 0.8606   0.152895
 C 0.7014 0.615 0.8203   -0.204267
 C 0.7442 0.691 0.8342   0.084981
 C 0.7156 0.7346 0.8854   -0.200446
 C 0.6559 0.6999 0.9237   0.13967
 C 0.8158 0.7215 0.7967   0.02058
 C 0.8316 0.6936 0.7372   -0.088994
 C 0.8994 0.7237 0.7044   -0.08991
 C 0.9544 0.7823 0.73   -0.119891
 C 0.9394 0.8111 0.7894   -0.047909
 C 0.8708 0.782 0.8225   -0.136352
 C 0.9949 0.8734 0.8199   0.239336
 C 0.0906 0.9242 0.8817   0.236227
 C 0.161 0.9324 0.9261   0.004426
 C 0.1628 0.0036 0.9625   -0.100617
 C 0.2283 0.0154 0.0027   -0.086648
 C 0.2909 0.9561 0.0084   -0.121131
 C 0.2913 0.8852 0.9706   0.019182
 C 0.2247 0.8736 0.9299   -0.135229
 C 0.3582 0.8193 0.9771   0.092805
 C 0.4058 0.8117 0.0301   -0.211317
 C 0.4638 0.7458 0.036   0.160643
 C 0.4317 0.6972 0.9402   0.173382
 C 0.3741 0.7611 0.9304   -0.228828
 N 0.3749 0.3804 0.58729   -0.360019
 N 0.0442 0.0065 0.6838   -0.225259
 N 0.0119 0.9453 0.64557   -0.28556
 N 0.1491 0.9444 0.63957   0.089468
 N 0.2304 0.926 0.6173   -0.551151
 N 0.312 0.5241 0.5081   -0.366181
 N 0.6251 0.6196 0.08729   -0.360019
 N 0.9558 0.9935 0.1838   -0.225259
 N 0.9881 0.0547 0.14557   -0.28556
 N 0.8509 0.0556 0.13957   0.089468
 N 0.7696 0.074 0.1173   -0.551151
 N 0.688 0.4759 0.0081   -0.366181
 N 0.1196 0.8749 0.33729   -0.360019
 N 0.4935 0.5442 0.4338   -0.225259
 N 0.5547 0.5119 0.39557   -0.28556
 N 0.5556 0.6491 0.38957   0.089468
 N 0.574 0.7304 0.3673   -0.551151
 N 0.9759 0.812 0.2581   -0.366181
 N 0.8804 0.1251 0.83729   -0.360019
 N 0.5065 0.4558 0.9338   -0.225259
 N 0.4453 0.4881 0.89557   -0.28556
 N 0.4444 0.3509 0.88957   0.089468
 N 0.426 0.2696 0.8673   -0.551151
 N 0.0241 0.188 0.7581   -0.366181
 N 0.1251 0.8804 0.16271   -0.360019
 N 0.4558 0.5065 0.0662   -0.225259
 N 0.4881 0.4453 0.10443   -0.28556
 N 0.3509 0.4444 0.11043   0.089468
 N 0.2696 0.426 0.1327   -0.551152
 N 0.188 0.0241 0.2419   -0.366181
 N 0.8749 0.1196 0.66271   -0.360019
 N 0.5442 0.4935 0.5662   -0.225259
 N 0.5119 0.5547 0.60443   -0.28556
 N 0.6491 0.5556 0.61043   0.089468
 N 0.7304 0.574 0.6327   -0.551152
 N 0.812 0.9759 0.7419   -0.366181
 N 0.3804 0.3749 0.41271   -0.360019
 N 0.0065 0.0442 0.3162   -0.225259
 N 0.9453 0.0119 0.35443   -0.28556
 N 0.9444 0.1491 0.36043   0.089468
 N 0.926 0.2304 0.3827   -0.551152
 N 0.5241 0.312 0.4919   -0.366181
 N 0.6196 0.6251 0.91271   -0.360019
 N 0.9935 0.9558 0.8162   -0.225259
 N 0.0547 0.9881 0.85443   -0.28556
 N 0.0556 0.8509 0.86043   0.089468
 N 0.074 0.7696 0.8827   -0.551152
 N 0.4759 0.688 0.9919   -0.366181
 Cl 0.87739 0.87739 0.0   1.90097
 Cl 0.12261 0.12261 0.5   1.90097
 Cl 0.62261 0.37739 0.75   1.90097
 Cl 0.37739 0.62261 0.25   1.90097
 O 0.8123 0.8837 0.9648   -0.699537
 O 0.9365 0.8734 0.9611   -0.675795
 O 0.8837 0.8123 0.0352   -0.699537
 O 0.8734 0.9365 0.0389   -0.675795
 O 0.1877 0.1163 0.4648   -0.699537
 O 0.0635 0.1266 0.4611   -0.675795
 O 0.1163 0.1877 0.5352   -0.699537
 O 0.1266 0.0635 0.5389   -0.675795
 O 0.6163 0.3123 0.7148   -0.699537
 O 0.6266 0.4365 0.7111   -0.675795
 O 0.6877 0.3837 0.7852   -0.699537
 O 0.5635 0.3734 0.7889   -0.675795
 O 0.3837 0.6877 0.2148   -0.699537
 O 0.3734 0.5635 0.2111   -0.675795
 O 0.3123 0.6163 0.2852   -0.699537
 O 0.4365 0.6266 0.2889   -0.675795
