{'_ref': 'TBD', '_srcid': 'CAKYAQ_clean', 'submitters': [{'name': 'Dalar Nazarian Jeff Camp and David Sholl', 'email': 'dalar@gatech.edu jcamp6@gatech.edu'}], '_method': 'VASP DFT with PBE;DDEC'}
data_CdH36C48N12(ClO4)2
_symmetry_space_group_name_H-M   'P 1'
_cell_length_a   15.85080000
_cell_length_b   15.85080000
_cell_length_c   21.76600000
_cell_angle_alpha   90.00000000
_cell_angle_beta   90.00000000
_cell_angle_gamma   90.00000000
_symmetry_Int_Tables_number   1
_chemical_formula_structural   CdH36C48N12(ClO4)2
_chemical_formula_sum   'Cd4 H144 C192 N48 Cl8 O32'
_cell_volume   5468.66093469
_cell_formula_units_Z   4
loop_
 _symmetry_equiv_pos_site_id
 _symmetry_equiv_pos_as_xyz
  1  'x, y, z'
loop_
 _atom_site_label
 _atom_site_fract_x
 _atom_site_fract_y
 _atom_site_fract_z
 _atom_site_charge
 Cd 0.05969 0.94031 0.25   0.797699
 Cd 0.94031 0.05969 0.75   0.797699
 Cd 0.55969 0.55969 0.5   0.797699
 Cd 0.44031 0.44031 0.0   0.797699
 H 0.7433 0.4952 0.5707   0.062964
 H 0.8533 0.4035 0.5589   0.126157
 H 0.7641 0.3455 0.3933   0.134175
 H 0.6579 0.4406 0.4087   0.058477
 H 0.967 0.3367 0.5342   0.104609
 H 0.0672 0.2341 0.5237   0.109874
 H 0.0461 0.1208 0.4586   0.10884
 H 0.8261 0.2239 0.4048   0.095867
 H 0.8017 0.002 0.2091   0.086472
 H 0.7058 0.9093 0.1642   0.116244
 H 0.656 0.7948 0.2194   0.077591
 H 0.8043 0.8593 0.3605   0.101597
 H 0.5874 0.7145 0.2848   0.133393
 H 0.5369 0.614 0.3507   0.088796
 H 0.7317 0.6399 0.4572   0.064611
 H 0.7901 0.7357 0.3933   0.119825
 H 0.7416 0.0265 0.3866   0.319621
 H 0.743 0.1058 0.3531   0.305499
 H 0.2567 0.5048 0.0707   0.062964
 H 0.1467 0.5965 0.0589   0.126157
 H 0.2359 0.6545 0.8933   0.134175
 H 0.3421 0.5594 0.9087   0.058477
 H 0.033 0.6633 0.0342   0.104609
 H 0.9328 0.7659 0.0237   0.109874
 H 0.9539 0.8792 0.9586   0.10884
 H 0.1739 0.7761 0.9048   0.095867
 H 0.1983 0.998 0.7091   0.086472
 H 0.2942 0.0907 0.6642   0.116244
 H 0.344 0.2052 0.7194   0.077591
 H 0.1957 0.1407 0.8605   0.101597
 H 0.4126 0.2855 0.7848   0.133393
 H 0.4631 0.386 0.8507   0.088796
 H 0.2683 0.3601 0.9572   0.064611
 H 0.2099 0.2643 0.8933   0.119825
 H 0.2584 0.9735 0.8866   0.319621
 H 0.257 0.8942 0.8531   0.305499
 H 0.0048 0.2433 0.8207   0.062964
 H 0.0965 0.3533 0.8089   0.126157
 H 0.1545 0.2641 0.6433   0.134175
 H 0.0594 0.1579 0.6587   0.058477
 H 0.1633 0.467 0.7842   0.104609
 H 0.2659 0.5672 0.7737   0.109874
 H 0.3792 0.5461 0.7086   0.10884
 H 0.2761 0.3261 0.6548   0.095867
 H 0.498 0.3017 0.4591   0.086472
 H 0.5907 0.2058 0.4142   0.116244
 H 0.7052 0.156 0.4694   0.07759
 H 0.6407 0.3043 0.6105   0.101597
 H 0.7855 0.0874 0.5348   0.133393
 H 0.886 0.0369 0.6007   0.088796
 H 0.8601 0.2317 0.7072   0.064611
 H 0.7643 0.2901 0.6433   0.119825
 H 0.4735 0.2416 0.6366   0.319621
 H 0.3942 0.243 0.6031   0.305499
 H 0.9952 0.7567 0.3207   0.062964
 H 0.9035 0.6467 0.3089   0.126157
 H 0.8455 0.7359 0.1433   0.134175
 H 0.9406 0.8421 0.1587   0.058477
 H 0.8367 0.533 0.2842   0.104609
 H 0.7341 0.4328 0.2737   0.109874
 H 0.6208 0.4539 0.2086   0.10884
 H 0.7239 0.6739 0.1548   0.095867
 H 0.502 0.6983 0.9591   0.086472
 H 0.4093 0.7942 0.9142   0.116244
 H 0.2948 0.844 0.9694   0.07759
 H 0.3593 0.6957 0.1105   0.101597
 H 0.2145 0.9126 0.0348   0.133393
 H 0.114 0.9631 0.1007   0.088796
 H 0.1399 0.7683 0.2072   0.064611
 H 0.2357 0.7099 0.1433   0.119825
 H 0.5265 0.7584 0.1366   0.319621
 H 0.6058 0.757 0.1031   0.305499
 H 0.7567 0.9952 0.6793   0.062964
 H 0.6467 0.9035 0.6911   0.126156
 H 0.7359 0.8455 0.8567   0.134175
 H 0.8421 0.9406 0.8413   0.058477
 H 0.533 0.8367 0.7158   0.104609
 H 0.4328 0.7341 0.7263   0.109874
 H 0.4539 0.6208 0.7914   0.10884
 H 0.6739 0.7239 0.8452   0.095867
 H 0.6983 0.502 0.0409   0.086472
 H 0.7942 0.4093 0.0858   0.116244
 H 0.844 0.2948 0.0306   0.077591
 H 0.6957 0.3593 0.8895   0.101597
 H 0.9126 0.2145 0.9652   0.133393
 H 0.9631 0.114 0.8993   0.088796
 H 0.7683 0.1399 0.7928   0.064611
 H 0.7099 0.2357 0.8567   0.119825
 H 0.7584 0.5265 0.8634   0.319621
 H 0.757 0.6058 0.8969   0.305499
 H 0.2433 0.0048 0.1793   0.062964
 H 0.3533 0.0965 0.1911   0.126156
 H 0.2641 0.1545 0.3567   0.134175
 H 0.1579 0.0594 0.3413   0.058477
 H 0.467 0.1633 0.2158   0.104609
 H 0.5672 0.2659 0.2263   0.109874
 H 0.5461 0.3792 0.2914   0.10884
 H 0.3261 0.2761 0.3452   0.095867
 H 0.3017 0.498 0.5409   0.086472
 H 0.2058 0.5907 0.5858   0.116244
 H 0.156 0.7052 0.5306   0.077591
 H 0.3043 0.6407 0.3895   0.101597
 H 0.0874 0.7855 0.4652   0.133393
 H 0.0369 0.886 0.3993   0.088796
 H 0.2317 0.8601 0.2928   0.064611
 H 0.2901 0.7643 0.3567   0.119825
 H 0.2416 0.4735 0.3634   0.319621
 H 0.243 0.3942 0.3969   0.305499
 H 0.4952 0.7433 0.4293   0.062964
 H 0.4035 0.8533 0.4411   0.126157
 H 0.3455 0.7641 0.6067   0.134175
 H 0.4406 0.6579 0.5913   0.058477
 H 0.3367 0.967 0.4658   0.104609
 H 0.2341 0.0672 0.4763   0.109874
 H 0.1208 0.0461 0.5414   0.10884
 H 0.2239 0.8261 0.5952   0.095867
 H 0.002 0.8017 0.7909   0.086472
 H 0.9093 0.7058 0.8358   0.116244
 H 0.7948 0.656 0.7806   0.07759
 H 0.8593 0.8043 0.6395   0.101597
 H 0.7145 0.5874 0.7152   0.133393
 H 0.614 0.5369 0.6493   0.088796
 H 0.6399 0.7317 0.5428   0.064611
 H 0.7357 0.7901 0.6067   0.119825
 H 0.0265 0.7416 0.6134   0.319621
 H 0.1058 0.743 0.6469   0.305499
 H 0.5048 0.2567 0.9293   0.062964
 H 0.5965 0.1467 0.9411   0.126157
 H 0.6545 0.2359 0.1067   0.134175
 H 0.5594 0.3421 0.0913   0.058477
 H 0.6633 0.033 0.9658   0.104609
 H 0.7659 0.9328 0.9763   0.109874
 H 0.8792 0.9539 0.0414   0.10884
 H 0.7761 0.1739 0.0952   0.095867
 H 0.998 0.1983 0.2909   0.086472
 H 0.0907 0.2942 0.3358   0.116244
 H 0.2052 0.344 0.2806   0.07759
 H 0.1407 0.1957 0.1395   0.101597
 H 0.2855 0.4126 0.2152   0.133393
 H 0.386 0.4631 0.1493   0.088796
 H 0.3601 0.2683 0.0428   0.064611
 H 0.2643 0.2099 0.1067   0.119825
 H 0.9735 0.2584 0.1134   0.319621
 H 0.8942 0.257 0.1469   0.305499
 C 0.7471 0.4643 0.5345   0.170064
 C 0.8132 0.4082 0.5279   -0.211022
 C 0.8204 0.3593 0.4762   0.114087
 C 0.7608 0.3744 0.4304   -0.188208
 C 0.697 0.4322 0.44   0.175767
 C 0.886 0.2929 0.4699   0.005452
 C 0.9587 0.2934 0.506   -0.102231
 C 0.018 0.2311 0.5004   -0.065662
 C 0.0063 0.1638 0.461   -0.064015
 C 0.9337 0.1613 0.4247   -0.020276
 C 0.8742 0.2257 0.4292   -0.100896
 C 0.925 0.0916 0.3813   0.253149
 C 0.8744 0.9955 0.3197   0.24783
 C 0.8127 0.9387 0.2891   -0.044079
 C 0.783 0.9548 0.2306   -0.0486
 C 0.7249 0.8998 0.204   -0.07801
 C 0.6954 0.8307 0.237   -0.070272
 C 0.7242 0.8151 0.2959   0.001019
 C 0.7838 0.8697 0.3212   -0.111947
 C 0.6933 0.7427 0.3334   0.116902
 C 0.6173 0.7015 0.3204   -0.189617
 C 0.587 0.6413 0.3605   0.165598
 C 0.7014 0.656 0.4225   0.150789
 C 0.7366 0.7145 0.3847   -0.207183
 C 0.2529 0.5357 0.0345   0.170064
 C 0.1868 0.5918 0.0279   -0.211022
 C 0.1796 0.6407 0.9762   0.114087
 C 0.2392 0.6256 0.9304   -0.188208
 C 0.303 0.5678 0.94   0.175767
 C 0.114 0.7071 0.9699   0.005452
 C 0.0413 0.7066 0.006   -0.102231
 C 0.982 0.7689 0.000399999999999   -0.065662
 C 0.9937 0.8362 0.961   -0.064015
 C 0.0663 0.8387 0.9247   -0.020276
 C 0.1258 0.7743 0.9292   -0.100896
 C 0.075 0.9084 0.8813   0.253149
 C 0.1256 0.0045 0.8197   0.24783
 C 0.1873 0.0613 0.7891   -0.044079
 C 0.217 0.0452 0.7306   -0.0486
 C 0.2751 0.1002 0.704   -0.07801
 C 0.3046 0.1693 0.737   -0.070272
 C 0.2758 0.1849 0.7959   0.001019
 C 0.2162 0.1303 0.8212   -0.111947
 C 0.3067 0.2573 0.8334   0.116902
 C 0.3827 0.2985 0.8204   -0.189617
 C 0.413 0.3587 0.8605   0.165598
 C 0.2986 0.344 0.9225   0.150789
 C 0.2634 0.2855 0.8847   -0.207183
 C 0.0357 0.2471 0.7845   0.170064
 C 0.0918 0.3132 0.7779   -0.211023
 C 0.1407 0.3204 0.7262   0.114087
 C 0.1256 0.2608 0.6804   -0.188208
 C 0.0678 0.197 0.69   0.175767
 C 0.2071 0.386 0.7199   0.005452
 C 0.2066 0.4587 0.756   -0.102231
 C 0.2689 0.518 0.7504   -0.065662
 C 0.3362 0.5063 0.711   -0.064015
 C 0.3387 0.4337 0.6747   -0.020276
 C 0.2743 0.3742 0.6792   -0.100896
 C 0.4084 0.425 0.6313   0.253149
 C 0.5045 0.3744 0.5697   0.24783
 C 0.5613 0.3127 0.5391   -0.044079
 C 0.5452 0.283 0.4806   -0.0486
 C 0.6002 0.2249 0.454   -0.07801
 C 0.6693 0.1954 0.487   -0.070272
 C 0.6849 0.2242 0.5459   0.001019
 C 0.6303 0.2838 0.5712   -0.111947
 C 0.7573 0.1933 0.5834   0.116902
 C 0.7985 0.1173 0.5704   -0.189617
 C 0.8587 0.087 0.6105   0.165598
 C 0.844 0.2014 0.6725   0.150789
 C 0.7855 0.2366 0.6347   -0.207183
 C 0.9643 0.7529 0.2845   0.170064
 C 0.9082 0.6868 0.2779   -0.211023
 C 0.8593 0.6796 0.2262   0.114087
 C 0.8744 0.7392 0.1804   -0.188208
 C 0.9322 0.803 0.19   0.175767
 C 0.7929 0.614 0.2199   0.005452
 C 0.7934 0.5413 0.256   -0.102231
 C 0.7311 0.482 0.2504   -0.065662
 C 0.6638 0.4937 0.211   -0.064015
 C 0.6613 0.5663 0.1747   -0.020276
 C 0.7257 0.6258 0.1792   -0.100896
 C 0.5916 0.575 0.1313   0.253149
 C 0.4955 0.6256 0.0697   0.24783
 C 0.4387 0.6873 0.0391   -0.044079
 C 0.4548 0.717 0.9806   -0.0486
 C 0.3998 0.7751 0.954   -0.07801
 C 0.3307 0.8046 0.987   -0.070272
 C 0.3151 0.7758 0.0459   0.001019
 C 0.3697 0.7162 0.0712   -0.111947
 C 0.2427 0.8067 0.0834   0.116902
 C 0.2015 0.8827 0.0704   -0.189617
 C 0.1413 0.913 0.1105   0.165598
 C 0.156 0.7986 0.1725   0.150789
 C 0.2145 0.7634 0.1347   -0.207183
 C 0.7529 0.9643 0.7155   0.170065
 C 0.6868 0.9082 0.7221   -0.211023
 C 0.6796 0.8593 0.7738   0.114087
 C 0.7392 0.8744 0.8196   -0.188208
 C 0.803 0.9322 0.81   0.175767
 C 0.614 0.7929 0.7801   0.005452
 C 0.5413 0.7934 0.744   -0.102231
 C 0.482 0.7311 0.7496   -0.065662
 C 0.4937 0.6638 0.789   -0.064016
 C 0.5663 0.6613 0.8253   -0.020276
 C 0.6258 0.7257 0.8208   -0.100896
 C 0.575 0.5916 0.8687   0.253149
 C 0.6256 0.4955 0.9303   0.24783
 C 0.6873 0.4387 0.9609   -0.044079
 C 0.717 0.4548 0.0194   -0.0486
 C 0.7751 0.3998 0.046   -0.07801
 C 0.8046 0.3307 0.013   -0.070272
 C 0.7758 0.3151 0.9541   0.001019
 C 0.7162 0.3697 0.9288   -0.111947
 C 0.8067 0.2427 0.9166   0.116902
 C 0.8827 0.2015 0.9296   -0.189617
 C 0.913 0.1413 0.8895   0.165598
 C 0.7986 0.156 0.8275   0.150789
 C 0.7634 0.2145 0.8653   -0.207183
 C 0.2471 0.0357 0.2155   0.170065
 C 0.3132 0.0918 0.2221   -0.211023
 C 0.3204 0.1407 0.2738   0.114087
 C 0.2608 0.1256 0.3196   -0.188208
 C 0.197 0.0678 0.31   0.175767
 C 0.386 0.2071 0.2801   0.005452
 C 0.4587 0.2066 0.244   -0.102231
 C 0.518 0.2689 0.2496   -0.065662
 C 0.5063 0.3362 0.289   -0.064016
 C 0.4337 0.3387 0.3253   -0.020276
 C 0.3742 0.2743 0.3208   -0.100896
 C 0.425 0.4084 0.3687   0.253149
 C 0.3744 0.5045 0.4303   0.24783
 C 0.3127 0.5613 0.4609   -0.044079
 C 0.283 0.5452 0.5194   -0.0486
 C 0.2249 0.6002 0.546   -0.07801
 C 0.1954 0.6693 0.513   -0.070272
 C 0.2242 0.6849 0.4541   0.001019
 C 0.2838 0.6303 0.4288   -0.111947
 C 0.1933 0.7573 0.4166   0.116902
 C 0.1173 0.7985 0.4296   -0.189617
 C 0.087 0.8587 0.3895   0.165598
 C 0.2014 0.844 0.3275   0.150789
 C 0.2366 0.7855 0.3653   -0.207183
 C 0.4643 0.7471 0.4655   0.170064
 C 0.4082 0.8132 0.4721   -0.211023
 C 0.3593 0.8204 0.5238   0.114087
 C 0.3744 0.7608 0.5696   -0.188208
 C 0.4322 0.697 0.56   0.175767
 C 0.2929 0.886 0.5301   0.005452
 C 0.2934 0.9587 0.494   -0.102231
 C 0.2311 0.018 0.4996   -0.065662
 C 0.1638 0.0063 0.539   -0.064016
 C 0.1613 0.9337 0.5753   -0.020276
 C 0.2257 0.8742 0.5708   -0.100896
 C 0.0916 0.925 0.6187   0.253149
 C 0.9955 0.8744 0.6803   0.24783
 C 0.9387 0.8127 0.7109   -0.044079
 C 0.9548 0.783 0.7694   -0.0486
 C 0.8998 0.7249 0.796   -0.07801
 C 0.8307 0.6954 0.763   -0.070272
 C 0.8151 0.7242 0.7041   0.001019
 C 0.8697 0.7838 0.6788   -0.111947
 C 0.7427 0.6933 0.6666   0.116902
 C 0.7015 0.6173 0.6796   -0.189617
 C 0.6413 0.587 0.6395   0.165598
 C 0.656 0.7014 0.5775   0.150789
 C 0.7145 0.7366 0.6153   -0.207183
 C 0.5357 0.2529 0.9655   0.170064
 C 0.5918 0.1868 0.9721   -0.211023
 C 0.6407 0.1796 0.0238   0.114087
 C 0.6256 0.2392 0.0696   -0.188208
 C 0.5678 0.303 0.06   0.175767
 C 0.7071 0.114 0.0301   0.005452
 C 0.7066 0.0413 0.994   -0.102231
 C 0.7689 0.982 0.9996   -0.065662
 C 0.8362 0.9937 0.039   -0.064016
 C 0.8387 0.0663 0.0753   -0.020276
 C 0.7743 0.1258 0.0708   -0.100896
 C 0.9084 0.075 0.1187   0.253149
 C 0.0045 0.1256 0.1803   0.24783
 C 0.0613 0.1873 0.2109   -0.044079
 C 0.0452 0.217 0.2694   -0.0486
 C 0.1002 0.2751 0.296   -0.07801
 C 0.1693 0.3046 0.263   -0.070272
 C 0.1849 0.2758 0.2041   0.001019
 C 0.1303 0.2162 0.1788   -0.111947
 C 0.2573 0.3067 0.1666   0.116902
 C 0.2985 0.3827 0.1796   -0.189617
 C 0.3587 0.413 0.1395   0.165598
 C 0.344 0.2986 0.0775   0.150789
 C 0.2855 0.2634 0.1153   -0.207183
 N 0.6885 0.4763 0.4913   -0.366062
 N 0.989 0.0542 0.3547   -0.295733
 N 0.9561 0.9932 0.3162   -0.242345
 N 0.8516 0.0561 0.3601   0.099108
 N 0.7696 0.0746 0.381   -0.561519
 N 0.6262 0.6199 0.4132   -0.347582
 N 0.3115 0.5237 0.9913   -0.366062
 N 0.011 0.9458 0.8547   -0.295733
 N 0.0439 0.0068 0.8162   -0.242345
 N 0.1484 0.9439 0.8601   0.099108
 N 0.2304 0.9254 0.881   -0.561519
 N 0.3738 0.3801 0.9132   -0.347582
 N 0.0237 0.1885 0.7413   -0.366062
 N 0.4458 0.489 0.6047   -0.295733
 N 0.5068 0.4561 0.5662   -0.242345
 N 0.4439 0.3516 0.6101   0.099108
 N 0.4254 0.2696 0.631   -0.561519
 N 0.8801 0.1262 0.6632   -0.347582
 N 0.9763 0.8115 0.2413   -0.366062
 N 0.5542 0.511 0.1047   -0.295733
 N 0.4932 0.5439 0.0662   -0.242345
 N 0.5561 0.6484 0.1101   0.099108
 N 0.5746 0.7304 0.131   -0.561519
 N 0.1199 0.8738 0.1632   -0.347582
 N 0.8115 0.9763 0.7587   -0.366062
 N 0.511 0.5542 0.8953   -0.295733
 N 0.5439 0.4932 0.9338   -0.242345
 N 0.6484 0.5561 0.8899   0.099108
 N 0.7304 0.5746 0.869   -0.561519
 N 0.8738 0.1199 0.8368   -0.347582
 N 0.1885 0.0237 0.2587   -0.366062
 N 0.489 0.4458 0.3953   -0.295733
 N 0.4561 0.5068 0.4338   -0.242345
 N 0.3516 0.4439 0.3899   0.099108
 N 0.2696 0.4254 0.369   -0.561519
 N 0.1262 0.8801 0.3368   -0.347582
 N 0.4763 0.6885 0.5087   -0.366062
 N 0.0542 0.989 0.6453   -0.295733
 N 0.9932 0.9561 0.6838   -0.242345
 N 0.0561 0.8516 0.6399   0.099108
 N 0.0746 0.7696 0.619   -0.561519
 N 0.6199 0.6262 0.5868   -0.347582
 N 0.5237 0.3115 0.0087   -0.366062
 N 0.9458 0.011 0.1453   -0.295733
 N 0.0068 0.0439 0.1838   -0.242345
 N 0.9439 0.1484 0.1399   0.099108
 N 0.9254 0.2304 0.119   -0.561519
 N 0.3801 0.3738 0.0868   -0.347582
 Cl 0.62653 0.37347 0.75   1.28747
 Cl 0.37347 0.62653 0.25   1.28747
 Cl 0.12653 0.12653 0.0   1.28747
 Cl 0.87347 0.87347 0.5   1.28747
 Cl 0.72999 0.72999 0.0   1.26543
 Cl 0.27001 0.27001 0.5   1.26543
 Cl 0.77001 0.22999 0.25   1.26543
 Cl 0.22999 0.77001 0.75   1.26543
 O 0.6317 0.4434 0.7878   -0.534437
 O 0.6675 0.4058 0.6995   -0.485359
 O 0.5566 0.3683 0.7122   -0.534437
 O 0.5942 0.3325 0.8005   -0.485359
 O 0.3683 0.5566 0.2878   -0.534437
 O 0.3325 0.5942 0.1995   -0.485359
 O 0.4434 0.6317 0.2122   -0.534437
 O 0.4058 0.6675 0.3005   -0.485359
 O 0.0566 0.1317 0.0378   -0.534437
 O 0.0942 0.1675 0.9495   -0.485359
 O 0.1317 0.0566 0.9622   -0.534437
 O 0.1675 0.0942 0.0505   -0.485359
 O 0.9434 0.8683 0.5378   -0.534437
 O 0.9058 0.8325 0.4495   -0.485359
 O 0.8683 0.9434 0.4622   -0.534437
 O 0.8325 0.9058 0.5505   -0.485359
 O 0.7631 0.766 0.0528   -0.518127
 O 0.7831 0.6452 0.9958   -0.536496
 O 0.766 0.7631 0.9472   -0.518127
 O 0.6452 0.7831 0.0042   -0.536496
 O 0.2369 0.234 0.5528   -0.518127
 O 0.2169 0.3548 0.4958   -0.536496
 O 0.234 0.2369 0.4472   -0.518127
 O 0.3548 0.2169 0.5042   -0.536496
 O 0.734 0.2631 0.3028   -0.518127
 O 0.8548 0.2831 0.2458   -0.536496
 O 0.7369 0.266 0.1972   -0.518127
 O 0.7169 0.1452 0.2542   -0.536496
 O 0.266 0.7369 0.8028   -0.518127
 O 0.1452 0.7169 0.7458   -0.536496
 O 0.2631 0.734 0.6972   -0.518127
 O 0.2831 0.8548 0.7542   -0.536496
