{'_ref': 'TBD', '_srcid': 'CAKYAQ_clean', 'submitters': [{'name': 'Dalar Nazarian Jeff Camp and David Sholl', 'email': 'dalar@gatech.edu jcamp6@gatech.edu'}], '_method': 'VASP DFT with PBE;DDEC'}
data_NiHC5O4
_symmetry_space_group_name_H-M   'P 1'
_cell_length_a   6.91000037
_cell_length_b   7.38899979
_cell_length_c   8.22300000
_cell_angle_alpha   90.08000010
_cell_angle_beta   109.82999995
_cell_angle_gamma   93.36999782
_symmetry_Int_Tables_number   1
_chemical_formula_structural   NiHC5O4
_chemical_formula_sum   'Ni2 H2 C10 O8'
_cell_volume   394.169376085
_cell_formula_units_Z   2
loop_
 _symmetry_equiv_pos_site_id
 _symmetry_equiv_pos_as_xyz
  1  'x, y, z'
loop_
 _atom_site_label
 _atom_site_fract_x
 _atom_site_fract_y
 _atom_site_fract_z
 _atom_site_charge
 Ni 0.0 0.5 0.0   0.790207
 Ni 0.5 0.0 0.0   0.815603
 H 0.429 0.796 0.5375   0.116406
 H 0.571 0.204 0.4625   0.116434
 C 0.581 0.6613 0.8403   0.670832
 C 0.5395 0.5714 0.6668   -0.098981
 C 0.5812 0.3921 0.6428   -0.090213
 C 0.4579 0.677 0.5226   -0.023249
 C 0.6476 0.2605 0.788   0.67858
 C 0.419 0.3387 0.1597   0.670841
 C 0.4605 0.4286 0.3332   -0.099046
 C 0.4188 0.6079 0.3572   -0.089979
 C 0.5421 0.323 0.4774   -0.023006
 C 0.3524 0.7395 0.212   0.678576
 O 0.4476 0.7644 0.851   -0.510436
 O 0.7451 0.6379 0.9615   -0.523591
 O 0.8293 0.2703 0.8954   -0.523118
 O 0.5125 0.1411 0.7897   -0.499307
 O 0.5524 0.2356 0.149   -0.51045
 O 0.2549 0.3621 0.0385   -0.523631
 O 0.1707 0.7297 0.1046   -0.523157
 O 0.4875 0.8589 0.2103   -0.499317
