{'_ref': 'TBD', '_srcid': 'CAKYAQ_clean', 'submitters': [{'name': 'Dalar Nazarian Jeff Camp and David Sholl', 'email': 'dalar@gatech.edu jcamp6@gatech.edu'}], '_method': 'VASP DFT with PBE;DDEC'}
data_AgH6C8S(N2O)2
_symmetry_space_group_name_H-M   'P 1'
_cell_length_a   8.01000000
_cell_length_b   12.17800000
_cell_length_c   14.62200000
_cell_angle_alpha   90.00000000
_cell_angle_beta   90.00000000
_cell_angle_gamma   90.00000000
_symmetry_Int_Tables_number   1
_chemical_formula_structural   AgH6C8S(N2O)2
_chemical_formula_sum   'Ag4 H24 C32 S4 N16 O8'
_cell_volume   1426.31439516
_cell_formula_units_Z   4
loop_
 _symmetry_equiv_pos_site_id
 _symmetry_equiv_pos_as_xyz
  1  'x, y, z'
loop_
 _atom_site_label
 _atom_site_fract_x
 _atom_site_fract_y
 _atom_site_fract_z
 _atom_site_charge
 Ag 0.93563 0.56852 0.68119   0.38648
 Ag 0.06437 0.43148 0.18119   0.38648
 Ag 0.56437 0.06852 0.68119   0.38648
 Ag 0.43563 0.93148 0.18119   0.38648
 H 0.9598 0.3129 0.3849   0.080126
 H 0.9222 0.6679 0.4697   0.086869
 H 0.96 0.6228 0.3225   0.080194
 H 0.2194 0.163 0.5853   0.088731
 H 0.5603 0.3349 0.7116   0.096749
 H 0.3843 0.4837 0.7138   0.089597
 H 0.0402 0.6871 0.8849   0.080126
 H 0.0778 0.3321 0.9697   0.086869
 H 0.04 0.3772 0.8225   0.080194
 H 0.7806 0.837 0.0853   0.088731
 H 0.4397 0.6651 0.2116   0.096749
 H 0.6157 0.5163 0.2138   0.089597
 H 0.5402 0.8129 0.3849   0.080126
 H 0.5778 0.1679 0.4697   0.086869
 H 0.54 0.1228 0.3225   0.080194
 H 0.2806 0.663 0.5853   0.088731
 H 0.9397 0.8349 0.7116   0.096749
 H 0.1157 0.9837 0.7138   0.089597
 H 0.4598 0.1871 0.8849   0.080126
 H 0.4222 0.8321 0.9697   0.086869
 H 0.46 0.8772 0.8225   0.080194
 H 0.7194 0.337 0.0853   0.088731
 H 0.0603 0.1651 0.2116   0.096749
 H 0.8843 0.0163 0.2138   0.089597
 C 0.9544 0.3865 0.4016   0.126466
 C 0.9397 0.4124 0.49   -0.090677
 C 0.9315 0.5941 0.4543   0.070464
 C 0.9522 0.5664 0.3652   0.05161
 C 0.1472 0.3179 0.6161   -0.087279
 C 0.2541 0.2276 0.6135   0.123327
 C 0.4539 0.3282 0.6867   0.048871
 C 0.3476 0.4185 0.6875   0.091574
 C 0.0456 0.6135 0.9016   0.126466
 C 0.0603 0.5876 0.99   -0.090677
 C 0.0685 0.4059 0.9543   0.070464
 C 0.0478 0.4336 0.8652   0.05161
 C 0.8528 0.6821 0.1161   -0.087279
 C 0.7459 0.7724 0.1135   0.123327
 C 0.5461 0.6718 0.1867   0.048871
 C 0.6524 0.5815 0.1875   0.091574
 C 0.5456 0.8865 0.4016   0.126466
 C 0.5603 0.9124 0.49   -0.090677
 C 0.5685 0.0941 0.4543   0.070464
 C 0.5478 0.0664 0.3652   0.05161
 C 0.3528 0.8179 0.6161   -0.087279
 C 0.2459 0.7276 0.6135   0.123327
 C 0.0461 0.8282 0.6867   0.048871
 C 0.1524 0.9185 0.6875   0.091574
 C 0.4544 0.1135 0.9016   0.126466
 C 0.4397 0.0876 0.99   -0.090677
 C 0.4315 0.9059 0.9543   0.070464
 C 0.4522 0.9336 0.8652   0.05161
 C 0.6472 0.1821 0.1161   -0.087279
 C 0.7541 0.2724 0.1135   0.123327
 C 0.9539 0.1718 0.1867   0.048871
 C 0.8476 0.0815 0.1875   0.091574
 S 0.9419 0.3104 0.57652   1.042945
 S 0.0581 0.6896 0.07652   1.042945
 S 0.5581 0.8104 0.57652   1.042945
 S 0.4419 0.1896 0.07652   1.042945
 N 0.9618 0.4644 0.3353   -0.323737
 N 0.9239 0.5175 0.5218   -0.277665
 N 0.4073 0.2327 0.6515   -0.279438
 N 0.1944 0.4145 0.6514   -0.293865
 N 0.0382 0.5356 0.8353   -0.323737
 N 0.0761 0.4825 0.0218   -0.277665
 N 0.5927 0.7673 0.1515   -0.279438
 N 0.8056 0.5855 0.1514   -0.293865
 N 0.5382 0.9644 0.3353   -0.323737
 N 0.5761 0.0175 0.5218   -0.277665
 N 0.0927 0.7327 0.6515   -0.279438
 N 0.3056 0.9145 0.6514   -0.293865
 N 0.4618 0.0356 0.8353   -0.323737
 N 0.4239 0.9825 0.0218   -0.277665
 N 0.9073 0.2673 0.1515   -0.279438
 N 0.6944 0.0855 0.1514   -0.293865
 O 0.8378 0.3443 0.65   -0.551658
 O 0.9169 0.2057 0.5347   -0.559685
 O 0.1622 0.6557 0.15   -0.551658
 O 0.0831 0.7943 0.0347   -0.559685
 O 0.6622 0.8443 0.65   -0.551658
 O 0.5831 0.7057 0.5347   -0.559685
 O 0.3378 0.1557 0.15   -0.551658
 O 0.4169 0.2943 0.0347   -0.559685
