{'_ref': 'TBD', '_srcid': 'CAKYAQ_clean', 'submitters': [{'name': 'Dalar Nazarian Jeff Camp and David Sholl', 'email': 'dalar@gatech.edu jcamp6@gatech.edu'}], '_method': 'VASP DFT with PBE;DDEC'}
data_DyH18C15S3(N2O)6
_symmetry_space_group_name_H-M   'P 1'
_cell_length_a   9.45040037
_cell_length_b   11.45800039
_cell_length_c   14.57900000
_cell_angle_alpha   69.85999974
_cell_angle_beta   85.45999983
_cell_angle_gamma   86.29999973
_symmetry_Int_Tables_number   1
_chemical_formula_structural   DyH18C15S3(N2O)6
_chemical_formula_sum   'Dy2 H36 C30 S6 N24 O12'
_cell_volume   1476.30226727
_cell_formula_units_Z   2
loop_
 _symmetry_equiv_pos_site_id
 _symmetry_equiv_pos_as_xyz
  1  'x, y, z'
loop_
 _atom_site_label
 _atom_site_fract_x
 _atom_site_fract_y
 _atom_site_fract_z
 _atom_site_charge
 Dy 0.79722 0.95468 0.0026   2.290017
 Dy 0.20278 0.04532 0.9974   2.290019
 H 0.8646 0.3689 0.8411   0.160858
 H 0.9706 0.3715 0.7523   0.147914
 H 0.334 0.384 0.889   0.330828
 H 0.274 0.472 0.806   0.321916
 H 0.8775 0.9433 0.5563   0.072009
 H 0.8717 0.0654 0.4644   0.107864
 H 0.2759 0.3454 0.3941   0.367697
 H 0.261 0.2827 0.3214   0.306337
 H 0.8537 0.0994 0.2809   0.155114
 H 0.8148 0.2248 0.1973   0.150859
 H 0.1205 0.533 0.4343   0.082229
 H 0.1123 0.4097 0.525   0.113782
 H 0.6685 0.0448 0.6077   0.34832
 H 0.625 0.119 0.6722   0.360687
 H 0.4828 0.8377 0.8086   0.164237
 H 0.6336 0.8331 0.7575   0.117649
 H 0.0293 0.4815 0.9088   0.104593
 H 0.0794 0.3875 0.0086   0.111181
 H 0.1354 0.6311 0.1589   0.160858
 H 0.0294 0.6285 0.2477   0.147914
 H 0.666 0.616 0.111   0.330828
 H 0.726 0.528 0.194   0.321914
 H 0.1225 0.0567 0.4437   0.072009
 H 0.1283 0.9346 0.5356   0.107863
 H 0.7241 0.6546 0.6059   0.367696
 H 0.739 0.7173 0.6786   0.306339
 H 0.1463 0.9006 0.7191   0.155117
 H 0.1852 0.7752 0.8027   0.15086
 H 0.8795 0.467 0.5657   0.082229
 H 0.8877 0.5903 0.475   0.113782
 H 0.3315 0.9552 0.3923   0.348324
 H 0.375 0.881 0.3278   0.360687
 H 0.5172 0.1623 0.1914   0.16424
 H 0.3664 0.1669 0.2425   0.11765
 H 0.9707 0.5185 0.0912   0.104593
 H 0.9206 0.6125 0.9914   0.111181
 C 0.9252 0.0978 0.1432   0.86352
 C 0.8856 0.1972 0.6806   0.184286
 C 0.0014 0.2173 0.8724   0.833017
 C 0.9098 0.3183 0.8048   -0.311613
 C 0.9275 0.018 0.5192   -0.171282
 C 0.9837 0.3036 0.3152   0.168902
 C 0.8881 0.16 0.2197   -0.3207
 C 0.9422 0.0937 0.5828   0.22907
 C 0.9954 0.4066 0.4145   0.249959
 C 0.057 0.47 0.4755   -0.170058
 C 0.5783 0.8014 0.8193   -0.301709
 C 0.6411 0.8482 0.8922   0.742533
 C 0.4021 0.6148 0.9118   0.21449
 C 0.1903 0.5455 0.9604   0.239417
 C 0.0594 0.4747 0.9726   -0.200862
 C 0.0748 0.9022 0.8568   0.86352
 C 0.1144 0.8028 0.3194   0.184286
 C 0.9986 0.7827 0.1276   0.833017
 C 0.0902 0.6817 0.1952   -0.311613
 C 0.0725 0.982 0.4808   -0.171276
 C 0.0163 0.6964 0.6848   0.168902
 C 0.1119 0.84 0.7803   -0.320701
 C 0.0578 0.9063 0.4172   0.22907
 C 0.0046 0.5934 0.5855   0.249959
 C 0.943 0.53 0.5245   -0.170057
 C 0.4217 0.1986 0.1807   -0.301711
 C 0.3589 0.1518 0.1078   0.742533
 C 0.5979 0.3852 0.0882   0.21449
 C 0.8097 0.4545 0.0396   0.239417
 C 0.9406 0.5253 0.0274   -0.20086
 S 0.04883 0.22563 0.23646   0.006901
 S 0.56874 0.63521 0.84993   -0.023134
 S 0.77505 0.2635 0.75191   -0.019964
 S 0.95117 0.77437 0.76354   0.006902
 S 0.43126 0.36479 0.15007   -0.023133
 S 0.22495 0.7365 0.24809   -0.019964
 N 0.3097 0.5324 0.90542   0.090282
 N 0.2074 0.6319 0.9977   -0.276728
 N 0.076 0.3472 0.36184   0.133145
 N 0.022 0.2046 0.6616   -0.279154
 N 0.3438 0.6748 0.9675   -0.352607
 N 0.8301 0.1281 0.63317   0.13863
 N 0.3381 0.4526 0.8503   -0.610528
 N 0.2233 0.3218 0.3587   -0.668185
 N 0.0583 0.1372 0.5982   -0.33839
 N 0.8628 0.3994 0.4027   -0.319694
 N 0.8543 0.3334 0.3373   -0.32866
 N 0.6898 0.0928 0.6384   -0.653358
 N 0.6903 0.4676 0.09458   0.090282
 N 0.7926 0.3681 0.0023   -0.276728
 N 0.924 0.6528 0.63816   0.133145
 N 0.978 0.7954 0.3384   -0.279154
 N 0.6562 0.3252 0.0325   -0.352607
 N 0.1699 0.8719 0.36683   0.13863
 N 0.6619 0.5474 0.1497   -0.610528
 N 0.7767 0.6782 0.6413   -0.668185
 N 0.9417 0.8628 0.4018   -0.338389
 N 0.1372 0.6006 0.5973   -0.319694
 N 0.1457 0.6666 0.6627   -0.32866
 N 0.3102 0.9072 0.3616   -0.65336
 O 0.828 0.0424 0.1247   -0.769476
 O 0.9489 0.11549 0.92467   -0.913758
 O 0.1276 0.23856 0.87672   -0.669224
 O 0.0506 0.1077 0.1069   -0.706151
 O 0.6867 0.7779 0.97049   -0.68739
 O 0.6473 0.96567 0.86653   -0.815627
 O 0.172 0.9576 0.8753   -0.769476
 O 0.0511 0.88451 0.07533   -0.913758
 O 0.8724 0.76144 0.12328   -0.669224
 O 0.9494 0.8923 0.8931   -0.706151
 O 0.3133 0.2221 0.02951   -0.687391
 O 0.3527 0.03433 0.13347   -0.815627
