{'_ref': 'TBD', '_srcid': 'CAKYAQ_clean', 'submitters': [{'name': 'Dalar Nazarian Jeff Camp and David Sholl', 'email': 'dalar@gatech.edu jcamp6@gatech.edu'}], '_method': 'VASP DFT with PBE;DDEC'}
data_CuH10C17N5O4
_symmetry_space_group_name_H-M   'P 1'
_cell_length_a   7.68599976
_cell_length_b   9.24300008
_cell_length_c   12.56000000
_cell_angle_alpha   95.26999815
_cell_angle_beta   98.42999868
_cell_angle_gamma   101.90999765
_symmetry_Int_Tables_number   1
_chemical_formula_structural   CuH10C17N5O4
_chemical_formula_sum   'Cu2 H20 C34 N10 O8'
_cell_volume   856.742696119
_cell_formula_units_Z   2
loop_
 _symmetry_equiv_pos_site_id
 _symmetry_equiv_pos_as_xyz
  1  'x, y, z'
loop_
 _atom_site_label
 _atom_site_fract_x
 _atom_site_fract_y
 _atom_site_fract_z
 _atom_site_charge
 Cu 0.35405 0.10135 0.05398   0.827456
 Cu 0.64595 0.89865 0.94602   0.827454
 H 0.2859 0.5698 0.1026   0.101033
 H 0.6183 0.2572 0.23   0.087044
 H 0.774 0.2354 0.3945   0.146457
 H 0.4972 0.8106 0.3638   0.144318
 H 0.3501 0.8447 0.1996   0.075357
 H 0.1069 0.3498 0.6763   0.117777
 H 0.3209 0.4877 0.8173   0.141548
 H 0.411 0.377 0.9645   0.080942
 H 0.0845 0.9958 0.8401   0.083895
 H 0.8538 0.8679 0.6947   0.26766
 H 0.7141 0.4302 0.8974   0.101033
 H 0.3817 0.7428 0.77   0.087044
 H 0.226 0.7646 0.6055   0.146461
 H 0.5028 0.1894 0.6362   0.14432
 H 0.6499 0.1553 0.8004   0.075357
 H 0.8931 0.6502 0.3237   0.11778
 H 0.6791 0.5123 0.1827   0.141548
 H 0.589 0.623 0.0355   0.080942
 H 0.9155 0.0042 0.1599   0.083895
 H 0.1462 0.1321 0.3053   0.26766
 C 0.1309 0.3059 0.1484   0.667198
 C 0.0607 0.4038 0.07   -0.093189
 C 0.1708 0.5418 0.0613   -0.080449
 C 0.1121 0.6378 0.9924   -0.081384
 C 0.2396 0.7856 0.9896   0.659765
 C 0.5948 0.166 0.2569   0.187531
 C 0.689 0.1539 0.3561   -0.154492
 C 0.6567 0.019 0.3989   0.050715
 C 0.5252 0.9022 0.3379   -0.175183
 C 0.4373 0.9238 0.2392   0.14965
 C 0.7586 0.0061 0.5044   0.333111
 C 0.9398 0.0687 0.6521   0.295548
 C 0.073 0.1571 0.7435   -0.13767
 C 0.1447 0.306 0.7368   0.038424
 C 0.2716 0.3877 0.8203   -0.164422
 C 0.3251 0.3204 0.908   0.164905
 C 0.1328 0.0953 0.835   0.170271
 C 0.8691 0.6941 0.8516   0.667196
 C 0.9393 0.5962 0.93   -0.093179
 C 0.8292 0.4582 0.9387   -0.080453
 C 0.8879 0.3622 0.0076   -0.081375
 C 0.7604 0.2144 0.0104   0.659764
 C 0.4052 0.834 0.7431   0.187532
 C 0.311 0.8461 0.6439   -0.154493
 C 0.3433 0.981 0.6011   0.050716
 C 0.4748 0.0978 0.6621   -0.175184
 C 0.5627 0.0762 0.7608   0.149651
 C 0.2414 0.9939 0.4956   0.33311
 C 0.0602 0.9313 0.3479   0.295549
 C 0.927 0.8429 0.2565   -0.13767
 C 0.8553 0.694 0.2632   0.038423
 C 0.7284 0.6123 0.1797   -0.164422
 C 0.6749 0.6796 0.092   0.164905
 C 0.8672 0.9047 0.165   0.170271
 N 0.4709 0.0536 0.1968   -0.346058
 N 0.8758 0.1255 0.5653   -0.487679
 N 0.7466 0.8788 0.5485   -0.350944
 N 0.8641 0.9219 0.6438   -0.027955
 N 0.2589 0.1759 0.9163   -0.316444
 N 0.5291 0.9464 0.8032   -0.346057
 N 0.1242 0.8745 0.4347   -0.487678
 N 0.2534 0.1212 0.4515   -0.350944
 N 0.1359 0.0781 0.3562   -0.027955
 N 0.7411 0.8241 0.0837   -0.316443
 O 0.2867 0.2834 0.1441   -0.639468
 O 0.0311 0.2574 0.2126   -0.581375
 O 0.3907 0.7791 0.9672   -0.596489
 O 0.1868 0.9036 0.0163   -0.557415
 O 0.7133 0.7166 0.8559   -0.639468
 O 0.9689 0.7426 0.7874   -0.581375
 O 0.6093 0.2209 0.0328   -0.596489
 O 0.8132 0.0964 0.9837   -0.557415
