{'_ref': 'TBD', '_srcid': 'CAKYAQ_clean', 'submitters': [{'name': 'Dalar Nazarian Jeff Camp and David Sholl', 'email': 'dalar@gatech.edu jcamp6@gatech.edu'}], '_method': 'VASP DFT with PBE;DDEC'}
data_CoH9C9(NO2)2
_symmetry_space_group_name_H-M   'P 1'
_cell_length_a   6.94330000
_cell_length_b   7.73020000
_cell_length_c   22.19230000
_cell_angle_alpha   90.00000000
_cell_angle_beta   90.00000000
_cell_angle_gamma   90.00000000
_symmetry_Int_Tables_number   1
_chemical_formula_structural   CoH9C9(NO2)2
_chemical_formula_sum   'Co4 H36 C36 N8 O16'
_cell_volume   1191.1294852
_cell_formula_units_Z   4
loop_
 _symmetry_equiv_pos_site_id
 _symmetry_equiv_pos_as_xyz
  1  'x, y, z'
loop_
 _atom_site_label
 _atom_site_fract_x
 _atom_site_fract_y
 _atom_site_fract_z
 _atom_site_charge
 Co 0.54694 0.24224 0.71253   0.977744
 Co 0.45306 0.24224 0.28747   0.977744
 Co 0.04694 0.75776 0.78747   0.977744
 Co 0.95306 0.75776 0.21253   0.977744
 H 0.6493 0.3895 0.8856   0.129495
 H 0.8433 0.2816 0.8775   0.147302
 H 0.5639 0.1063 0.8746   0.065292
 H 0.3441 0.1434 0.8039   0.324884
 H 0.3971 0.3284 0.8148   0.31855
 H 0.9619 0.2736 0.6719   0.089948
 H 0.151 0.2974 0.5861   0.140778
 H 0.6838 0.1213 0.4914   0.13014
 H 0.5155 0.1289 0.5783   0.056746
 H 0.3507 0.3895 0.1144   0.129494
 H 0.1567 0.2816 0.1225   0.1473
 H 0.4361 0.1063 0.1254   0.065292
 H 0.6559 0.1434 0.1961   0.324884
 H 0.6029 0.3284 0.1852   0.31855
 H 0.0381 0.2736 0.3281   0.089948
 H 0.849 0.2974 0.4139   0.140778
 H 0.3162 0.1213 0.5086   0.130141
 H 0.4845 0.1289 0.4217   0.056747
 H 0.1493 0.6105 0.6144   0.129495
 H 0.3433 0.7184 0.6225   0.147302
 H 0.0639 0.8937 0.6254   0.065292
 H 0.8441 0.8566 0.6961   0.324884
 H 0.8971 0.6716 0.6852   0.31855
 H 0.4619 0.7264 0.8281   0.089948
 H 0.651 0.7026 0.9139   0.140778
 H 0.1838 0.8787 0.0086   0.13014
 H 0.0155 0.8711 0.9217   0.056747
 H 0.8507 0.6105 0.3856   0.129494
 H 0.6567 0.7184 0.3775   0.1473
 H 0.9361 0.8937 0.3746   0.065292
 H 0.1559 0.8566 0.3039   0.324884
 H 0.1029 0.6716 0.3148   0.31855
 H 0.5381 0.7264 0.1719   0.089948
 H 0.349 0.7026 0.0861   0.140778
 H 0.8162 0.8787 0.9914   0.130141
 H 0.9845 0.8711 0.0783   0.056748
 C 0.79 0.4463 0.8057   0.744715
 C 0.7265 0.3226 0.85625   -0.392534
 C 0.611 0.1666 0.83761   0.089984
 C 0.7354 0.0407 0.80112   0.617515
 C 0.0221 0.257 0.58357   -0.215637
 C 0.942 0.2003 0.5275   0.088006
 C 0.7458 0.1561 0.5276   -0.231845
 C 0.6467 0.1635 0.5797   0.187361
 C 0.905 0.2507 0.63383   0.152232
 C 0.21 0.4463 0.1943   0.744715
 C 0.2735 0.3226 0.14375   -0.392533
 C 0.389 0.1666 0.16239   0.089984
 C 0.2646 0.0407 0.19888   0.617515
 C 0.9779 0.257 0.41643   -0.215637
 C 0.058 0.2003 0.4725   0.088007
 C 0.2542 0.1561 0.4724   -0.231845
 C 0.3533 0.1635 0.4203   0.187361
 C 0.095 0.2507 0.36617   0.152232
 C 0.29 0.5537 0.6943   0.744715
 C 0.2265 0.6774 0.64375   -0.392534
 C 0.111 0.8334 0.66239   0.089984
 C 0.2354 0.9593 0.69888   0.617515
 C 0.5221 0.743 0.91643   -0.215637
 C 0.442 0.7997 0.9725   0.088006
 C 0.2458 0.8439 0.9724   -0.231845
 C 0.1467 0.8365 0.9203   0.187361
 C 0.405 0.7493 0.86617   0.152231
 C 0.71 0.5537 0.3057   0.744715
 C 0.7735 0.6774 0.35625   -0.392533
 C 0.889 0.8334 0.33761   0.089984
 C 0.7646 0.9593 0.30112   0.617515
 C 0.4779 0.743 0.08357   -0.215637
 C 0.558 0.7997 0.0275   0.088007
 C 0.7542 0.8439 0.0276   -0.231845
 C 0.8533 0.8365 0.0797   0.18736
 C 0.595 0.7493 0.13383   0.152231
 N 0.4421 0.2232 0.80152   -0.696112
 N 0.713 0.2135 0.6322   -0.331792
 N 0.5579 0.2232 0.19848   -0.696112
 N 0.287 0.2135 0.3678   -0.331792
 N 0.9421 0.7768 0.69848   -0.696112
 N 0.213 0.7865 0.8678   -0.331792
 N 0.0579 0.7768 0.30152   -0.696112
 N 0.787 0.7865 0.1322   -0.331792
 O 0.7525 0.4207 0.75168   -0.611671
 O 0.8847 0.5715 0.82577   -0.624034
 O 0.7093 0.0399 0.74496   -0.569564
 O 0.8518 0.9447 0.82886   -0.587503
 O 0.2475 0.4207 0.24832   -0.611671
 O 0.1153 0.5715 0.17423   -0.624034
 O 0.2907 0.0399 0.25504   -0.569564
 O 0.1482 0.9447 0.17114   -0.587503
 O 0.2525 0.5793 0.74832   -0.611671
 O 0.3847 0.4285 0.67423   -0.624034
 O 0.2093 0.9601 0.75504   -0.569564
 O 0.3518 0.0553 0.67114   -0.587503
 O 0.7475 0.5793 0.25168   -0.611671
 O 0.6153 0.4285 0.32577   -0.624034
 O 0.7907 0.9601 0.24496   -0.569564
 O 0.6482 0.0553 0.32886   -0.587503
