{'_ref': 'TBD', '_srcid': 'CAKYAQ_clean', 'submitters': [{'name': 'Dalar Nazarian Jeff Camp and David Sholl', 'email': 'dalar@gatech.edu jcamp6@gatech.edu'}], '_method': 'VASP DFT with PBE;DDEC'}
data_CeH9C17O8
_symmetry_space_group_name_H-M   'P 1'
_cell_length_a   4.87999972
_cell_length_b   13.11000000
_cell_length_c   13.28990000
_cell_angle_alpha   90.00000000
_cell_angle_beta   100.57899536
_cell_angle_gamma   90.00000000
_symmetry_Int_Tables_number   1
_chemical_formula_structural   CeH9C17O8
_chemical_formula_sum   'Ce2 H18 C34 O16'
_cell_volume   835.793369654
_cell_formula_units_Z   2
loop_
 _symmetry_equiv_pos_site_id
 _symmetry_equiv_pos_as_xyz
  1  'x, y, z'
loop_
 _atom_site_label
 _atom_site_fract_x
 _atom_site_fract_y
 _atom_site_fract_z
 _atom_site_charge
 Ce 0.97778 0.7588 0.2123   2.230022
 Ce 0.02222 0.2588 0.7877   2.230021
 H 0.9387 0.4963 0.6606   0.42108
 H 0.0995 0.7943 0.8697   0.125984
 H 0.6926 0.5788 0.9494   0.114771
 H 0.4743 0.6613 0.6551   0.103184
 H 0.969 0.8434 0.6913   0.099457
 H 0.0028 0.7532 0.6163   0.128319
 H 0.4055 0.9724 0.7282   0.121781
 H 0.278 0.7853 0.4864   0.112505
 H 0.8224 0.0178 0.4976   0.109616
 H 0.0613 0.9963 0.3394   0.42108
 H 0.9005 0.2943 0.1303   0.125984
 H 0.3074 0.0788 0.0506   0.11477
 H 0.5257 0.1613 0.3449   0.103184
 H 0.031 0.3434 0.3087   0.099457
 H 0.9972 0.2532 0.3837   0.128318
 H 0.5945 0.4724 0.2718   0.121781
 H 0.722 0.2853 0.5136   0.112504
 H 0.1776 0.5178 0.5024   0.109615
 C 0.2356 0.7487 0.8508   -0.068869
 C 0.3974 0.6868 0.9263   -0.134647
 C 0.5845 0.6185 0.8993   0.037095
 C 0.6135 0.6084 0.7979   -0.18816
 C 0.458 0.67 0.7232   -0.050854
 C 0.2739 0.7463 0.7489   0.062292
 C 0.1032 0.8007 0.6656   -0.215963
 C 0.3099 0.8693 0.6133   0.046054
 C 0.4443 0.9532 0.6649   -0.070731
 C 0.6327 0.007 0.6222   -0.123897
 C 0.3643 0.8419 0.5206   -0.055817
 C 0.5552 0.9011 0.4765   -0.13737
 C 0.6926 0.9811 0.5261   -0.007795
 C 0.6119 0.8644 0.3774   0.717028
 C 0.7821 0.0948 0.6832   0.654884
 C 0.802 0.5355 0.7666   0.692141
 C 0.3809 0.6994 0.0353   0.697196
 C 0.7644 0.2487 0.1492   -0.068868
 C 0.6026 0.1868 0.0737   -0.134647
 C 0.4155 0.1185 0.1007   0.037095
 C 0.3865 0.1084 0.2021   -0.18816
 C 0.542 0.17 0.2768   -0.050853
 C 0.7261 0.2463 0.2511   0.062291
 C 0.8968 0.3007 0.3344   -0.215962
 C 0.6901 0.3693 0.3867   0.046054
 C 0.5557 0.4532 0.3351   -0.070731
 C 0.3673 0.507 0.3778   -0.123897
 C 0.6357 0.3419 0.4794   -0.055816
 C 0.4448 0.4011 0.5235   -0.137371
 C 0.3074 0.4811 0.4739   -0.007794
 C 0.3881 0.3644 0.6226   0.717029
 C 0.2179 0.5948 0.3168   0.654884
 C 0.198 0.0355 0.2334   0.692142
 C 0.6191 0.1994 0.9647   0.697196
 O 0.6027 0.6687 0.1084   -0.738352
 O 0.1609 0.7539 0.0547   -0.707176
 O 0.8479 0.5452 0.6747   -0.497963
 O 0.913 0.4606 0.824   -0.661303
 O 0.7397 0.1148 0.7703   -0.6448
 O 0.9444 0.1485 0.6422   -0.666331
 O 0.4434 0.8081 0.3205   -0.735457
 O 0.8695 0.887 0.3533   -0.767925
 O 0.3973 0.1687 0.8916   -0.738352
 O 0.8391 0.2539 0.9453   -0.707176
 O 0.1521 0.0452 0.3253   -0.497964
 O 0.087 0.9606 0.176   -0.661303
 O 0.2603 0.6148 0.2297   -0.6448
 O 0.0556 0.6485 0.3578   -0.666331
 O 0.5566 0.3081 0.6795   -0.735457
 O 0.1305 0.387 0.6467   -0.767925
