{'_ref': 'TBD', '_srcid': 'CAKYAQ_clean', 'submitters': [{'name': 'Dalar Nazarian Jeff Camp and David Sholl', 'email': 'dalar@gatech.edu jcamp6@gatech.edu'}], '_method': 'VASP DFT with PBE;DDEC'}
data_CuH12C12O7
_symmetry_space_group_name_H-M   'P 1'
_cell_length_a   11.92800000
_cell_length_b   18.25300000
_cell_length_c   18.66000000
_cell_angle_alpha   90.00000000
_cell_angle_beta   90.00000000
_cell_angle_gamma   90.00000000
_symmetry_Int_Tables_number   1
_chemical_formula_structural   CuH12C12O7
_chemical_formula_sum   'Cu8 H96 C96 O56'
_cell_volume   4062.68848944
_cell_formula_units_Z   8
loop_
 _symmetry_equiv_pos_site_id
 _symmetry_equiv_pos_as_xyz
  1  'x, y, z'
loop_
 _atom_site_label
 _atom_site_fract_x
 _atom_site_fract_y
 _atom_site_fract_z
 _atom_site_charge
 Cu 0.08729 0.28042 0.27143   0.893667
 Cu 0.92887 0.20852 0.2024   0.891894
 Cu 0.08729 0.71958 0.72857   0.893667
 Cu 0.92887 0.79148 0.7976   0.891894
 Cu 0.91271 0.21958 0.77143   0.893667
 Cu 0.07113 0.29148 0.7024   0.891894
 Cu 0.91271 0.78042 0.22857   0.893667
 Cu 0.07113 0.70852 0.2976   0.891894
 H 0.9532 0.4966 0.2518   0.103098
 H 0.6732 0.3835 0.1958   0.132202
 H 0.6601 0.6019 0.2117   0.128145
 H 0.4858 0.5696 0.2527   0.070305
 H 0.4795 0.5843 0.1679   0.067853
 H 0.3314 0.4954 0.1606   0.046612
 H 0.2969 0.5658 0.2069   0.055555
 H 0.1699 0.5147 0.2747   0.061779
 H 0.1784 0.44 0.23   0.062618
 H 0.1032 0.4296 0.3519   0.089088
 H 0.2287 0.4431 0.3791   0.063913
 H 0.0306 0.2561 0.9905   0.10287
 H 0.2992 0.3423 0.094   0.129164
 H 0.2894 0.3427 0.8761   0.121529
 H 0.4521 0.4315 0.0643   0.053473
 H 0.4827 0.346 0.0673   0.063795
 H 0.6425 0.4187 0.0565   0.047287
 H 0.5956 0.4515 0.9833   0.051038
 H 0.797 0.3268 0.9343   0.025972
 H 0.7967 0.3355 0.0181   -0.015646
 H 0.7859 0.2206 0.0358   0.047727
 H 0.8619 0.2269 0.9638   0.063641
 H 0.2694 0.3432 0.3096   0.423346
 H 0.7171 0.2184 0.9027   0.380611
 H 0.9532 0.5034 0.7482   0.103097
 H 0.6732 0.6165 0.8042   0.132202
 H 0.6601 0.3981 0.7883   0.128145
 H 0.4858 0.4304 0.7473   0.070304
 H 0.4795 0.4157 0.8321   0.067854
 H 0.3314 0.5046 0.8394   0.046612
 H 0.2969 0.4342 0.7931   0.055555
 H 0.1699 0.4853 0.7253   0.061779
 H 0.1784 0.56 0.77   0.062618
 H 0.1032 0.5704 0.6481   0.089089
 H 0.2287 0.5569 0.6209   0.06391
 H 0.0306 0.7439 0.0095   0.10287
 H 0.2992 0.6577 0.906   0.129164
 H 0.2894 0.6573 0.1239   0.121529
 H 0.4521 0.5685 0.9357   0.053473
 H 0.4827 0.654 0.9327   0.063795
 H 0.6425 0.5813 0.9435   0.047287
 H 0.5956 0.5485 0.0167   0.051039
 H 0.797 0.6732 0.0657   0.025972
 H 0.7967 0.6645 0.9819   -0.015645
 H 0.7859 0.7794 0.9642   0.047727
 H 0.8619 0.7731 0.0362   0.063641
 H 0.2694 0.6568 0.6904   0.423346
 H 0.7171 0.7816 0.0973   0.380611
 H 0.0468 0.0034 0.7518   0.103098
 H 0.3268 0.1165 0.6958   0.132202
 H 0.3399 0.8981 0.7117   0.128145
 H 0.5142 0.9304 0.7527   0.070305
 H 0.5205 0.9157 0.6679   0.067853
 H 0.6686 0.0046 0.6606   0.046612
 H 0.7031 0.9342 0.7069   0.055555
 H 0.8301 0.9853 0.7747   0.061779
 H 0.8216 0.06 0.73   0.062618
 H 0.8968 0.0704 0.8519   0.089089
 H 0.7713 0.0569 0.8791   0.063912
 H 0.9694 0.2439 0.4905   0.10287
 H 0.7008 0.1577 0.594   0.129164
 H 0.7106 0.1573 0.3761   0.121529
 H 0.5479 0.0685 0.5643   0.053473
 H 0.5173 0.154 0.5673   0.063795
 H 0.3575 0.0813 0.5565   0.047287
 H 0.4044 0.0485 0.4833   0.051038
 H 0.203 0.1732 0.4343   0.025972
 H 0.2033 0.1645 0.5181   -0.015646
 H 0.2141 0.2794 0.5358   0.047727
 H 0.1381 0.2731 0.4638   0.063641
 H 0.7306 0.1568 0.8096   0.423347
 H 0.2829 0.2816 0.4027   0.380611
 H 0.0468 0.9966 0.2482   0.103097
 H 0.3268 0.8835 0.3042   0.132202
 H 0.3399 0.1019 0.2883   0.128145
 H 0.5142 0.0696 0.2473   0.070305
 H 0.5205 0.0843 0.3321   0.067854
 H 0.6686 0.9954 0.3394   0.046612
 H 0.7031 0.0658 0.2931   0.055555
 H 0.8301 0.0147 0.2253   0.061779
 H 0.8216 0.94 0.27   0.062618
 H 0.8968 0.9296 0.1481   0.089089
 H 0.7713 0.9431 0.1209   0.06391
 H 0.9694 0.7561 0.5095   0.10287
 H 0.7008 0.8423 0.406   0.129164
 H 0.7106 0.8427 0.6239   0.12153
 H 0.5479 0.9315 0.4357   0.053473
 H 0.5173 0.846 0.4327   0.063795
 H 0.3575 0.9187 0.4435   0.047287
 H 0.4044 0.9515 0.5167   0.051039
 H 0.203 0.8268 0.5657   0.025972
 H 0.2033 0.8355 0.4819   -0.015645
 H 0.2141 0.7206 0.4642   0.047727
 H 0.1381 0.7269 0.5362   0.063641
 H 0.7306 0.8432 0.1904   0.423348
 H 0.2829 0.7184 0.5973   0.380612
 C 0.817 0.5583 0.2341   -0.079063
 C 0.8764 0.4949 0.2386   -0.042725
 C 0.826 0.4267 0.224   -0.10237
 C 0.7102 0.4281 0.2069   -0.153843
 C 0.6492 0.4931 0.2058   0.260609
 C 0.7006 0.5573 0.2162   -0.192258
 C 0.8753 0.6298 0.2436   0.67491
 C 0.8883 0.3575 0.2243   0.668915
 C 0.4669 0.5473 0.2059   0.069493
 C 0.3469 0.5225 0.2054   0.093003
 C 0.2078 0.4666 0.2722   0.046857
 C 0.1832 0.4235 0.3392   0.112321
 C 0.1516 0.2983 0.9209   -0.103054
 C 0.1013 0.2799 0.9883   -0.060732
 C 0.1589 0.2976 0.05   -0.067852
 C 0.2617 0.332 0.0502   -0.196607
 C 0.3092 0.3513 0.9853   0.246328
 C 0.2543 0.332 0.9206   -0.130317
 C 0.0915 0.2831 0.8556   0.682937
 C 0.1066 0.2747 0.1207   0.66086
 C 0.4826 0.39 0.0363   0.065696
 C 0.598 0.4068 0.013   0.120117
 C 0.757 0.3113 0.978   0.167647
 C 0.788 0.2378 0.986   0.123259
 C 0.817 0.4417 0.7659   -0.079063
 C 0.8764 0.5051 0.7614   -0.042725
 C 0.826 0.5733 0.776   -0.10237
 C 0.7102 0.5719 0.7931   -0.153843
 C 0.6492 0.5069 0.7942   0.260609
 C 0.7006 0.4427 0.7838   -0.192258
 C 0.8753 0.3702 0.7564   0.67491
 C 0.8883 0.6425 0.7757   0.668915
 C 0.4669 0.4527 0.7941   0.069493
 C 0.3469 0.4775 0.7946   0.093003
 C 0.2078 0.5334 0.7278   0.046857
 C 0.1832 0.5765 0.6608   0.112322
 C 0.1516 0.7017 0.0791   -0.103053
 C 0.1013 0.7201 0.0117   -0.060732
 C 0.1589 0.7024 0.95   -0.067852
 C 0.2617 0.668 0.9498   -0.196607
 C 0.3092 0.6487 0.0147   0.246328
 C 0.2543 0.668 0.0794   -0.130317
 C 0.0915 0.7169 0.1444   0.682937
 C 0.1066 0.7253 0.8793   0.66086
 C 0.4826 0.61 0.9637   0.065696
 C 0.598 0.5932 0.987   0.120116
 C 0.757 0.6887 0.022   0.167647
 C 0.788 0.7622 0.014   0.123259
 C 0.183 0.9417 0.7341   -0.079063
 C 0.1236 0.0051 0.7386   -0.042725
 C 0.174 0.0733 0.724   -0.10237
 C 0.2898 0.0719 0.7069   -0.153843
 C 0.3508 0.0069 0.7058   0.26061
 C 0.2994 0.9427 0.7162   -0.192258
 C 0.1247 0.8702 0.7436   0.67491
 C 0.1117 0.1425 0.7243   0.668915
 C 0.5331 0.9527 0.7059   0.069493
 C 0.6531 0.9775 0.7054   0.093003
 C 0.7922 0.0334 0.7722   0.046857
 C 0.8168 0.0765 0.8392   0.112321
 C 0.8484 0.2017 0.4209   -0.103054
 C 0.8987 0.2201 0.4883   -0.060732
 C 0.8411 0.2024 0.55   -0.067852
 C 0.7383 0.168 0.5502   -0.196607
 C 0.6908 0.1487 0.4853   0.246328
 C 0.7457 0.168 0.4206   -0.130317
 C 0.9085 0.2169 0.3556   0.682937
 C 0.8934 0.2253 0.6207   0.66086
 C 0.5174 0.11 0.5363   0.065696
 C 0.402 0.0932 0.513   0.120117
 C 0.243 0.1887 0.478   0.167647
 C 0.212 0.2622 0.486   0.123259
 C 0.183 0.0583 0.2659   -0.079063
 C 0.1236 0.9949 0.2614   -0.042725
 C 0.174 0.9267 0.276   -0.10237
 C 0.2898 0.9281 0.2931   -0.153843
 C 0.3508 0.9931 0.2942   0.26061
 C 0.2994 0.0573 0.2838   -0.192258
 C 0.1247 0.1298 0.2564   0.67491
 C 0.1117 0.8575 0.2757   0.668915
 C 0.5331 0.0473 0.2941   0.069493
 C 0.6531 0.0225 0.2946   0.093003
 C 0.7922 0.9666 0.2278   0.046857
 C 0.8168 0.9235 0.1608   0.112322
 C 0.8484 0.7983 0.5791   -0.103054
 C 0.8987 0.7799 0.5117   -0.060732
 C 0.8411 0.7976 0.45   -0.067852
 C 0.7383 0.832 0.4498   -0.196607
 C 0.6908 0.8513 0.5147   0.246328
 C 0.7457 0.832 0.5794   -0.130318
 C 0.9085 0.7831 0.6444   0.682937
 C 0.8934 0.7747 0.3793   0.66086
 C 0.5174 0.89 0.4637   0.065696
 C 0.402 0.9068 0.487   0.120116
 C 0.243 0.8113 0.522   0.167647
 C 0.212 0.7378 0.514   0.123259
 O 0.8468 0.3024 0.1974   -0.536062
 O 0.9859 0.363 0.2559   -0.583124
 O 0.9671 0.6266 0.2796   -0.601167
 O 0.8309 0.6877 0.2229   -0.550162
 O 0.5348 0.4846 0.1935   -0.288119
 O 0.3242 0.477 0.2646   -0.37153
 O 0.2071 0.347 0.3304   -0.552296
 O 0.1405 0.3054 0.7969   -0.604003
 O 0.0021 0.2489 0.855   -0.554617
 O 0.017 0.239 0.1184   -0.56441
 O 0.1536 0.2995 0.1776   -0.570615
 O 0.417 0.3778 0.9775   -0.265565
 O 0.6562 0.3508 0.974   -0.398703
 O 0.7022 0.213 0.9465   -0.585294
 O 0.8468 0.6976 0.8026   -0.536062
 O 0.9859 0.637 0.7441   -0.583124
 O 0.9671 0.3734 0.7204   -0.601167
 O 0.8309 0.3123 0.7771   -0.550162
 O 0.5348 0.5154 0.8065   -0.288119
 O 0.3242 0.523 0.7354   -0.37153
 O 0.2071 0.653 0.6696   -0.552296
 O 0.1405 0.6946 0.2031   -0.604003
 O 0.0021 0.7511 0.145   -0.554617
 O 0.017 0.761 0.8816   -0.56441
 O 0.1536 0.7005 0.8224   -0.570615
 O 0.417 0.6222 0.0225   -0.265565
 O 0.6562 0.6492 0.026   -0.398703
 O 0.7022 0.787 0.0535   -0.585294
 O 0.1532 0.1976 0.6974   -0.536062
 O 0.0141 0.137 0.7559   -0.583124
 O 0.0329 0.8734 0.7796   -0.601167
 O 0.1691 0.8123 0.7229   -0.550161
 O 0.4652 0.0154 0.6935   -0.288119
 O 0.6758 0.023 0.7646   -0.37153
 O 0.7929 0.153 0.8304   -0.552296
 O 0.8595 0.1946 0.2969   -0.604003
 O 0.9979 0.2511 0.355   -0.554617
 O 0.983 0.261 0.6184   -0.56441
 O 0.8464 0.2005 0.6776   -0.570615
 O 0.583 0.1222 0.4775   -0.265565
 O 0.3438 0.1492 0.474   -0.398703
 O 0.2978 0.287 0.4465   -0.585294
 O 0.1532 0.8024 0.3026   -0.536062
 O 0.0141 0.863 0.2441   -0.583124
 O 0.0329 0.1266 0.2204   -0.601167
 O 0.1691 0.1877 0.2771   -0.550161
 O 0.4652 0.9846 0.3065   -0.288119
 O 0.6758 0.977 0.2354   -0.37153
 O 0.7929 0.847 0.1696   -0.552297
 O 0.8595 0.8054 0.7031   -0.604003
 O 0.9979 0.7489 0.645   -0.554617
 O 0.983 0.739 0.3816   -0.56441
 O 0.8464 0.7995 0.3224   -0.570615
 O 0.583 0.8778 0.5225   -0.265565
 O 0.3438 0.8508 0.526   -0.398703
 O 0.2978 0.713 0.5535   -0.585294
