{'_ref': 'TBD', '_srcid': 'CAKYAQ_clean', 'submitters': [{'name': 'Dalar Nazarian Jeff Camp and David Sholl', 'email': 'dalar@gatech.edu jcamp6@gatech.edu'}], '_method': 'VASP DFT with PBE;DDEC'}
data_CaH4(C4O3)2
_symmetry_space_group_name_H-M   'P 1'
_cell_length_a   9.66500001
_cell_length_b   10.25689978
_cell_length_c   10.34550000
_cell_angle_alpha   119.71699888
_cell_angle_beta   94.51810042
_cell_angle_gamma   89.99999945
_symmetry_Int_Tables_number   1
_chemical_formula_structural   CaH4(C4O3)2
_chemical_formula_sum   'Ca2 H8 C16 O12'
_cell_volume   887.028668557
_cell_formula_units_Z   2
loop_
 _symmetry_equiv_pos_site_id
 _symmetry_equiv_pos_as_xyz
  1  'x, y, z'
loop_
 _atom_site_label
 _atom_site_fract_x
 _atom_site_fract_y
 _atom_site_fract_z
 _atom_site_charge
 Ca 0.75 0.07825 0.0   1.626207
 Ca 0.25 0.92175 0.0   1.626207
 H 0.7413 0.0451 0.3242   0.408885
 H 0.1889 0.9683 0.3652   0.11363
 H 0.7587 0.7209 0.6758   0.408878
 H 0.3111 0.6031 0.6348   0.11363
 H 0.2587 0.9549 0.6758   0.408885
 H 0.8111 0.0317 0.6348   0.11363
 H 0.2413 0.2791 0.3242   0.408878
 H 0.6889 0.3969 0.3652   0.11363
 C 0.9708 0.00447 0.22034   0.832695
 C 0.9842 0.00341 0.36602   -0.277843
 C 0.8694 0.02376 0.44852   0.331998
 C 0.1127 0.98075 0.4193   -0.140703
 C 0.5292 0.78413 0.77966   0.83269
 C 0.5158 0.63739 0.63398   -0.277835
 C 0.6306 0.57524 0.55148   0.331993
 C 0.3873 0.56145 0.5807   -0.140707
 C 0.0292 0.99553 0.77966   0.832695
 C 0.0158 0.99659 0.63398   -0.277843
 C 0.1306 0.97624 0.55148   0.331998
 C 0.8873 0.01925 0.5807   -0.140703
 C 0.4708 0.21587 0.22034   0.83269
 C 0.4842 0.36261 0.36602   -0.277835
 C 0.3694 0.42476 0.44852   0.331993
 C 0.6127 0.43855 0.4193   -0.140707
 O 0.849 0.01249 0.17058   -0.75632
 O 0.7407 0.04984 0.40568   -0.535302
 O 0.07584 0.99378 0.15616   -0.790142
 O 0.651 0.84191 0.82942   -0.756315
 O 0.7593 0.64416 0.59432   -0.535294
 O 0.42416 0.83762 0.84384   -0.790145
 O 0.151 0.98751 0.82942   -0.75632
 O 0.2593 0.95016 0.59432   -0.535302
 O 0.92416 0.00622 0.84384   -0.790142
 O 0.349 0.15809 0.17058   -0.756315
 O 0.2407 0.35584 0.40568   -0.535294
 O 0.57584 0.16238 0.15616   -0.790145
