{'_ref': 'TBD', '_srcid': 'CAKYAQ_clean', 'submitters': [{'name': 'Dalar Nazarian Jeff Camp and David Sholl', 'email': 'dalar@gatech.edu jcamp6@gatech.edu'}], '_method': 'VASP DFT with PBE;DDEC'}
data_AgH6C4N3
_symmetry_space_group_name_H-M   'P 1'
_cell_length_a   11.73020032
_cell_length_b   11.90260000
_cell_length_c   12.53350000
_cell_angle_alpha   106.76899851
_cell_angle_beta   106.19499725
_cell_angle_gamma   113.46200160
_symmetry_Int_Tables_number   1
_chemical_formula_structural   AgH6C4N3
_chemical_formula_sum   'Ag8 H48 C32 N24'
_cell_volume   1373.86317136
_cell_formula_units_Z   8
loop_
 _symmetry_equiv_pos_site_id
 _symmetry_equiv_pos_as_xyz
  1  'x, y, z'
loop_
 _atom_site_label
 _atom_site_fract_x
 _atom_site_fract_y
 _atom_site_fract_z
 _atom_site_charge
 Ag 0.40852 0.23169 0.60612   0.322496
 Ag 0.73222 0.27957 0.87468   0.337082
 Ag 0.6976 0.37443 0.60612   0.321884
 Ag 0.64246 0.59511 0.87468   0.336494
 Ag 0.59148 0.76831 0.39388   0.322496
 Ag 0.26778 0.72043 0.12532   0.337082
 Ag 0.3024 0.62557 0.39388   0.321884
 Ag 0.35754 0.40489 0.12532   0.336494
 H 0.5917 0.3261 0.0732   0.067491
 H 0.2694 0.3562 0.7432   0.094803
 H 0.234 0.3659 0.8558   0.079624
 H 0.0473 0.1801 0.6756   0.104959
 H 0.1394 0.1184 0.6544   0.083646
 H 0.1039 0.1281 0.7672   0.090915
 H 0.4792 0.707 0.6932   0.073391
 H 0.2388 0.3286 0.304   0.081253
 H 0.2724 0.2347 0.356   0.079327
 H 0.0365 0.1457 0.2674   0.100864
 H 0.0583 0.2827 0.3584   0.094887
 H 0.092 0.1889 0.4106   0.088779
 H 0.9815 0.7471 0.0732   0.067825
 H 0.9738 0.387 0.7432   0.094726
 H 0.1218 0.4899 0.8558   0.080347
 H 0.1283 0.4955 0.6756   0.104626
 H 0.015 0.536 0.6544   0.084193
 H 0.1633 0.6391 0.7672   0.09066
 H 0.714 0.9862 0.6932   0.073037
 H 0.5652 0.9754 0.304   0.081057
 H 0.5836 0.1213 0.356   0.078745
 H 0.7309 0.1217 0.2674   0.101835
 H 0.8001 0.0757 0.3584   0.095353
 H 0.8186 0.2217 0.4106   0.089484
 H 0.4083 0.6739 0.9268   0.067487
 H 0.7306 0.6438 0.2568   0.094803
 H 0.766 0.6341 0.1442   0.079624
 H 0.9527 0.8199 0.3244   0.104958
 H 0.8606 0.8816 0.3456   0.083644
 H 0.8961 0.8719 0.2328   0.090912
 H 0.5208 0.293 0.3068   0.073385
 H 0.7612 0.6714 0.696   0.081253
 H 0.7276 0.7653 0.644   0.079323
 H 0.9635 0.8543 0.7326   0.100862
 H 0.9417 0.7173 0.6416   0.094886
 H 0.908 0.8111 0.5894   0.088779
 H 0.0185 0.2529 0.9268   0.067821
 H 0.0262 0.613 0.2568   0.094725
 H 0.8782 0.5101 0.1442   0.080347
 H 0.8717 0.5045 0.3244   0.104625
 H 0.985 0.464 0.3456   0.084191
 H 0.8367 0.3609 0.2328   0.090657
 H 0.286 0.0138 0.3068   0.073031
 H 0.4348 0.0246 0.696   0.081057
 H 0.4164 0.8787 0.644   0.07874
 H 0.2691 0.8783 0.7326   0.101833
 H 0.1999 0.9243 0.6416   0.095352
 H 0.1814 0.7783 0.5894   0.089484
 C 0.3784 0.3122 0.8634   0.372788
 C 0.53639 0.31849 0.99878   0.229169
 C 0.2515 0.3118 0.7954   -0.191183
 C 0.1242 0.1722 0.7162   -0.262464
 C 0.33341 0.41761 0.49302   0.380237
 C 0.44414 0.61434 0.64508   0.219422
 C 0.2382 0.2971 0.3672   -0.187892
 C 0.0935 0.222 0.3494   -0.260792
 C 0.985 0.5512 0.8634   0.37378
 C 0.96239 0.68029 0.99878   0.228469
 C 0.0439 0.4836 0.7954   -0.19177
 C 0.092 0.544 0.7162   -0.262841
 C 0.65961 0.07541 0.49302   0.379936
 C 0.70094 0.03074 0.64508   0.219733
 C 0.629 0.0701 0.3672   -0.186019
 C 0.7559 0.1274 0.3494   -0.263946
 C 0.6216 0.6878 0.1366   0.372788
 C 0.46361 0.68151 0.00122   0.22917
 C 0.7485 0.6882 0.2046   -0.191183
 C 0.8758 0.8278 0.2838   -0.262462
 C 0.66659 0.58239 0.50698   0.380237
 C 0.55586 0.38566 0.35492   0.219424
 C 0.7618 0.7029 0.6328   -0.187891
 C 0.9065 0.778 0.6506   -0.260791
 C 0.015 0.4488 0.1366   0.37378
 C 0.03761 0.31971 0.00122   0.22847
 C 0.9561 0.5164 0.2046   -0.19177
 C 0.908 0.456 0.2838   -0.262839
 C 0.34039 0.92459 0.50698   0.379935
 C 0.29906 0.96926 0.35492   0.219735
 C 0.371 0.9299 0.6328   -0.186017
 C 0.2441 0.8726 0.6506   -0.263945
 N 0.45849 0.29299 0.81218   -0.294983
 N 0.56217 0.29747 0.90194   -0.252282
 N 0.42274 0.32834 0.98088   -0.463678
 N 0.40351 0.40971 0.59022   -0.287137
 N 0.47662 0.53872 0.68984   -0.24151
 N 0.355 0.5449 0.5222   -0.458405
 N 0.85369 0.51919 0.81218   -0.295536
 N 0.83977 0.60447 0.90194   -0.250495
 N 0.05814 0.65254 0.98088   -0.465246
 N 0.68671 0.18051 0.59022   -0.286655
 N 0.71322 0.15112 0.68984   -0.242565
 N 0.6672 0.9773 0.5222   -0.4579
 N 0.54151 0.70701 0.18782   -0.294983
 N 0.43783 0.70253 0.09806   -0.252282
 N 0.57726 0.67166 0.01912   -0.463678
 N 0.59649 0.59029 0.40978   -0.287137
 N 0.52338 0.46128 0.31016   -0.24151
 N 0.645 0.4551 0.4778   -0.458405
 N 0.14631 0.48081 0.18782   -0.295536
 N 0.16023 0.39553 0.09806   -0.250495
 N 0.94186 0.34746 0.01912   -0.465246
 N 0.31329 0.81949 0.40978   -0.286655
 N 0.28678 0.84888 0.31016   -0.242566
 N 0.3328 0.0227 0.4778   -0.457901
