{'_ref': 'TBD', '_srcid': 'CAKYAQ_clean', 'submitters': [{'name': 'Dalar Nazarian Jeff Camp and David Sholl', 'email': 'dalar@gatech.edu jcamp6@gatech.edu'}], '_method': 'VASP DFT with PBE;DDEC'}
data_Co3P4H14C10(N2O7)2
_symmetry_space_group_name_H-M   'P 1'
_cell_length_a   5.06960043
_cell_length_b   9.60809960
_cell_length_c   12.53280000
_cell_angle_alpha   89.12000009
_cell_angle_beta   85.50799540
_cell_angle_gamma   76.86199716
_symmetry_Int_Tables_number   1
_chemical_formula_structural   Co3P4H14C10(N2O7)2
_chemical_formula_sum   'Co3 P4 H14 C10 N4 O14'
_cell_volume   592.656403073
_cell_formula_units_Z   1
loop_
 _symmetry_equiv_pos_site_id
 _symmetry_equiv_pos_as_xyz
  1  'x, y, z'
loop_
 _atom_site_label
 _atom_site_fract_x
 _atom_site_fract_y
 _atom_site_fract_z
 _atom_site_charge
 Co 0.83382 0.10633 0.59655   1.300261
 Co 0.16618 0.89367 0.40345   1.300268
 Co 0.5 0.0 0.0   0.750053
 P 0.6838 0.78652 0.55723   1.507075
 P 0.3774 0.96745 0.74681   1.507019
 P 0.3162 0.21348 0.44277   1.507078
 P 0.6226 0.03255 0.25319   1.507021
 H 0.9458 0.6241 0.4796   0.413104
 H 0.9259 0.8496 0.733   0.370447
 H 0.481 0.4341 0.6246   0.091344
 H 0.1588 0.2797 0.7575   0.103641
 H 0.9817 0.5223 0.8269   0.147493
 H 0.3201 0.6719 0.7109   0.094425
 H 0.4357 0.6844 0.8216   0.105689
 H 0.0542 0.3759 0.5204   0.413101
 H 0.0741 0.1504 0.267   0.370447
 H 0.519 0.5659 0.3754   0.091333
 H 0.8412 0.7203 0.2425   0.10364
 H 0.0183 0.4777 0.1731   0.147541
 H 0.6799 0.3281 0.2891   0.094425
 H 0.5643 0.3156 0.1784   0.105695
 C 0.6291 0.4252 0.6656   0.175377
 C 0.9997 0.3414 0.7389   0.05198
 C 0.9038 0.4754 0.7778   -0.157678
 C 0.4852 0.6699 0.7456   0.027239
 C 0.6058 0.7943 0.7028   -0.420245
 C 0.3709 0.5748 0.3344   0.175381
 C 0.000300000000003 0.6586 0.2611   0.051986
 C 0.0962 0.5246 0.2222   -0.157696
 C 0.5148 0.3301 0.2544   0.027236
 C 0.3942 0.2057 0.2972   -0.420245
 N 0.6671 0.5278 0.7295   0.047502
 N 0.8285 0.3093 0.6678   -0.456583
 N 0.3329 0.4722 0.2705   0.047506
 N 0.1715 0.6907 0.3322   -0.456585
 O 0.8277 0.9033 0.5236   -0.880321
 O 0.4314 0.7801 0.5059   -0.8051
 O 0.8967 0.6381 0.5432   -0.700631
 O 0.5381 0.0789 0.7167   -0.833446
 O 0.1143 0.9849 0.6937   -0.807629
 O 0.3242 0.9562 0.8675   -0.789608
 O 0.8538 0.7853 0.7549   -0.466405
 O 0.1723 0.0967 0.4764   -0.880318
 O 0.5686 0.2199 0.4941   -0.8051
 O 0.1033 0.3619 0.4568   -0.70063
 O 0.4619 0.9211 0.2833   -0.833447
 O 0.8857 0.0151 0.3063   -0.807627
 O 0.6758 0.0438 0.1325   -0.789608
 O 0.1462 0.2147 0.2451   -0.466405
