{'_ref': 'TBD', '_srcid': 'CAKYAQ_clean', 'submitters': [{'name': 'Dalar Nazarian Jeff Camp and David Sholl', 'email': 'dalar@gatech.edu jcamp6@gatech.edu'}], '_method': 'VASP DFT with PBE;DDEC'}
data_PrH5C7NO5
_symmetry_space_group_name_H-M   'P 1'
_cell_length_a   8.30900000
_cell_length_b   9.34999967
_cell_length_c   16.15800000
_cell_angle_alpha   90.00000000
_cell_angle_beta   90.00000000
_cell_angle_gamma   94.07799952
_symmetry_Int_Tables_number   1
_chemical_formula_structural   PrH5C7NO5
_chemical_formula_sum   'Pr4 H20 C28 N4 O20'
_cell_volume   1252.12302395
_cell_formula_units_Z   4
loop_
 _symmetry_equiv_pos_site_id
 _symmetry_equiv_pos_as_xyz
  1  'x, y, z'
loop_
 _atom_site_label
 _atom_site_fract_x
 _atom_site_fract_y
 _atom_site_fract_z
 _atom_site_charge
 Pr 0.4681 0.39198 0.60653   1.909409
 Pr 0.0319 0.60802 0.10653   1.909409
 Pr 0.5319 0.60802 0.39347   1.909416
 Pr 0.9681 0.39198 0.89347   1.909416
 H 0.654 0.9662 0.7155   0.11269
 H 0.7235 0.7696 0.7823   0.08369
 H 0.8947 0.0185 0.9645   0.057993
 H 0.2213 0.4063 0.4537   0.483348
 H 0.3447 0.5194 0.4455   0.201947
 H 0.846 0.0338 0.2155   0.11269
 H 0.7765 0.2304 0.2823   0.08369
 H 0.6053 0.9815 0.4645   0.057993
 H 0.2787 0.5937 0.9537   0.483348
 H 0.1553 0.4806 0.9455   0.201947
 H 0.346 0.0338 0.2845   0.112691
 H 0.2765 0.2304 0.2177   0.08369
 H 0.1053 0.9815 0.0355   0.057992
 H 0.7787 0.5937 0.5463   0.48335
 H 0.6553 0.4806 0.5545   0.201948
 H 0.154 0.9662 0.7845   0.112691
 H 0.2235 0.7696 0.7177   0.083691
 H 0.3947 0.0185 0.5355   0.057991
 H 0.7213 0.4063 0.0463   0.483351
 H 0.8447 0.5194 0.0545   0.201948
 C 0.707 0.245 0.754   0.68368
 C 0.742 0.107 0.7966   0.119241
 C 0.707 0.976 0.766   -0.14176
 C 0.744 0.86 0.806   0.010755
 C 0.815 0.874 0.8835   -0.271018
 C 0.848 0.008 0.9124   0.25376
 C 0.871 0.744 0.9295   0.760324
 C 0.793 0.755 0.254   0.68368
 C 0.758 0.893 0.2966   0.119241
 C 0.793 0.024 0.266   -0.14176
 C 0.756 0.14 0.306   0.010755
 C 0.685 0.126 0.3835   -0.271018
 C 0.652 0.992 0.4124   0.25376
 C 0.629 0.256 0.4295   0.760324
 C 0.293 0.755 0.246   0.683679
 C 0.258 0.893 0.2034   0.119241
 C 0.293 0.024 0.234   -0.141762
 C 0.256 0.14 0.194   0.010755
 C 0.185 0.126 0.1165   -0.271018
 C 0.152 0.992 0.0876   0.253762
 C 0.129 0.256 0.0705   0.760324
 C 0.207 0.245 0.746   0.683679
 C 0.242 0.107 0.7034   0.119241
 C 0.207 0.976 0.734   -0.141761
 C 0.244 0.86 0.694   0.010755
 C 0.315 0.874 0.6165   -0.271018
 C 0.348 0.008 0.5876   0.253763
 C 0.371 0.744 0.5705   0.760324
 N 0.816 0.127 0.8702   -0.525838
 N 0.684 0.873 0.3702   -0.525838
 N 0.184 0.873 0.1298   -0.525837
 N 0.316 0.127 0.6298   -0.525837
 O 0.919 0.761 0.9988   -0.68926
 O 0.855 0.6256 0.8914   -0.774187
 O 0.622 0.236 0.6925   -0.689771
 O 0.767 0.357 0.789   -0.772691
 O 0.324 0.441 0.4709   -0.812316
 O 0.581 0.239 0.4988   -0.68926
 O 0.645 0.3744 0.3914   -0.774187
 O 0.878 0.764 0.1925   -0.689771
 O 0.733 0.643 0.289   -0.772691
 O 0.176 0.559 0.9709   -0.812316
 O 0.081 0.239 0.0012   -0.689261
 O 0.145 0.3744 0.1086   -0.774186
 O 0.378 0.764 0.3075   -0.689772
 O 0.233 0.643 0.211   -0.772691
 O 0.676 0.559 0.5291   -0.812317
 O 0.419 0.761 0.5012   -0.689261
 O 0.355 0.6256 0.6086   -0.774186
 O 0.122 0.236 0.8075   -0.689772
 O 0.267 0.357 0.711   -0.772691
 O 0.824 0.441 0.0291   -0.812317
