{'_ref': 'TBD', '_srcid': 'CAKYAQ_clean', 'submitters': [{'name': 'Dalar Nazarian Jeff Camp and David Sholl', 'email': 'dalar@gatech.edu jcamp6@gatech.edu'}], '_method': 'VASP DFT with PBE;DDEC'}
data_MnH6(C3O)4
_symmetry_space_group_name_H-M   'P 1'
_cell_length_a   7.52730000
_cell_length_b   9.65200026
_cell_length_c   22.10600000
_cell_angle_alpha   90.00000000
_cell_angle_beta   90.00000000
_cell_angle_gamma   110.75900040
_symmetry_Int_Tables_number   1
_chemical_formula_structural   MnH6(C3O)4
_chemical_formula_sum   'Mn4 H24 C48 O16'
_cell_volume   1501.81096916
_cell_formula_units_Z   4
loop_
 _symmetry_equiv_pos_site_id
 _symmetry_equiv_pos_as_xyz
  1  'x, y, z'
loop_
 _atom_site_label
 _atom_site_fract_x
 _atom_site_fract_y
 _atom_site_fract_z
 _atom_site_charge
 Mn 0.63094 0.65031 0.75367   1.096981
 Mn 0.86906 0.34969 0.25367   1.096981
 Mn 0.36906 0.34969 0.24633   1.097001
 Mn 0.13094 0.65031 0.74633   1.097001
 H 0.1035 0.6224 0.6073   0.085417
 H 0.5566 0.4284 0.5603   0.102559
 H 0.6429 0.374 0.4665   0.104781
 H 0.7731 0.9273 0.9053   0.114297
 H 0.2807 0.8798 0.9072   0.102679
 H 0.6675 0.033 0.9959   0.106674
 H 0.3965 0.3776 0.1073   0.085417
 H 0.9434 0.5716 0.0603   0.102559
 H 0.8571 0.626 0.9665   0.104782
 H 0.7269 0.0727 0.4053   0.114297
 H 0.2193 0.1202 0.4072   0.102679
 H 0.8325 0.967 0.4959   0.106674
 H 0.8965 0.3776 0.3927   0.085417
 H 0.4434 0.5716 0.4397   0.102559
 H 0.3571 0.626 0.5335   0.104782
 H 0.2269 0.0727 0.0947   0.114297
 H 0.7193 0.1202 0.0928   0.102679
 H 0.3325 0.967 0.0041   0.106671
 H 0.6035 0.6224 0.8927   0.085417
 H 0.0566 0.4284 0.9397   0.102559
 H 0.1429 0.374 0.0335   0.104782
 H 0.2731 0.9273 0.5947   0.114297
 H 0.7807 0.8798 0.5928   0.102679
 H 0.1675 0.033 0.5041   0.106671
 C 0.7607 0.56231 0.65478   0.690981
 C 0.8245 0.53013 0.59373   -0.147192
 C 0.0121 0.57143 0.5791   -0.058842
 C 0.6846 0.4554 0.55052   -0.040333
 C 0.7364 0.4228 0.49454   -0.119289
 C 0.0703 0.53797 0.52137   0.041619
 C 0.9823 0.83135 0.83371   0.705782
 C 0.021 0.8974 0.89631   -0.13968
 C 0.8859 0.93738 0.92524   -0.07387
 C 0.9147 0.99381 0.98498   0.039061
 C 0.1898 0.9084 0.92666   -0.047654
 C 0.7793 0.0391 0.0155   -0.131015
 C 0.7393 0.43769 0.15478   0.690981
 C 0.6755 0.46987 0.09373   -0.147192
 C 0.4879 0.42857 0.0791   -0.058842
 C 0.8154 0.5446 0.05052   -0.040333
 C 0.7636 0.5772 0.99454   -0.119291
 C 0.4297 0.46203 0.02137   0.04162
 C 0.5177 0.16865 0.33371   0.705782
 C 0.479 0.1026 0.39631   -0.13968
 C 0.6141 0.06262 0.42524   -0.07387
 C 0.5853 0.00619 0.48498   0.03906
 C 0.3102 0.0916 0.42666   -0.047654
 C 0.7207 0.9609 0.5155   -0.131015
 C 0.2393 0.43769 0.34522   0.690981
 C 0.1755 0.46987 0.40627   -0.147193
 C 0.9879 0.42857 0.4209   -0.05884
 C 0.3154 0.5446 0.44948   -0.040333
 C 0.2636 0.5772 0.50546   -0.119297
 C 0.9297 0.46203 0.47863   0.041606
 C 0.0177 0.16865 0.16629   0.705783
 C 0.979 0.1026 0.10369   -0.139679
 C 0.1141 0.06262 0.07476   -0.07387
 C 0.0853 0.00619 0.01502   0.039053
 C 0.8102 0.0916 0.07334   -0.047659
 C 0.2207 0.9609 0.9845   -0.131019
 C 0.2607 0.56231 0.84522   0.690981
 C 0.3245 0.53013 0.90627   -0.147193
 C 0.5121 0.57143 0.9209   -0.05884
 C 0.1846 0.4554 0.94948   -0.040333
 C 0.2364 0.4228 0.00546   -0.119299
 C 0.5703 0.53797 0.97863   0.041606
 C 0.4823 0.83135 0.66629   0.705783
 C 0.521 0.8974 0.60369   -0.139679
 C 0.3859 0.93738 0.57476   -0.07387
 C 0.4147 0.99381 0.51502   0.039052
 C 0.6898 0.9084 0.57334   -0.047659
 C 0.2793 0.0391 0.4845   -0.131019
 O 0.8832 0.63428 0.69412   -0.663785
 O 0.58752 0.52099 0.66596   -0.571314
 O 0.81471 0.79299 0.81536   -0.608711
 O 0.12023 0.82073 0.80495   -0.589135
 O 0.6168 0.36572 0.19412   -0.663785
 O 0.91248 0.47901 0.16596   -0.571314
 O 0.68529 0.20701 0.31536   -0.608711
 O 0.37977 0.17927 0.30495   -0.589135
 O 0.1168 0.36572 0.30588   -0.663784
 O 0.41248 0.47901 0.33404   -0.571316
 O 0.18529 0.20701 0.18464   -0.608713
 O 0.87977 0.17927 0.19505   -0.589134
 O 0.3832 0.63428 0.80588   -0.663784
 O 0.08752 0.52099 0.83404   -0.571316
 O 0.31471 0.79299 0.68464   -0.608713
 O 0.62023 0.82073 0.69505   -0.589134
