{'_ref': 'TBD', '_srcid': 'CAKYAQ_clean', 'submitters': [{'name': 'Dalar Nazarian Jeff Camp and David Sholl', 'email': 'dalar@gatech.edu jcamp6@gatech.edu'}], '_method': 'VASP DFT with PBE;DDEC'}
data_PrH3(CO)6
_symmetry_space_group_name_H-M   'P 1'
_cell_length_a   8.65590000
_cell_length_b   9.19989975
_cell_length_c   15.85700000
_cell_angle_alpha   90.00000000
_cell_angle_beta   90.00000000
_cell_angle_gamma   114.43799908
_symmetry_Int_Tables_number   1
_chemical_formula_structural   PrH3(CO)6
_chemical_formula_sum   'Pr4 H12 C24 O24'
_cell_volume   1149.61686323
_cell_formula_units_Z   4
loop_
 _symmetry_equiv_pos_site_id
 _symmetry_equiv_pos_as_xyz
  1  'x, y, z'
loop_
 _atom_site_label
 _atom_site_fract_x
 _atom_site_fract_y
 _atom_site_fract_z
 _atom_site_charge
 Pr 0.73237 0.74917 0.73101   2.232104
 Pr 0.76763 0.25083 0.23101   2.232099
 Pr 0.26763 0.25083 0.26899   2.232082
 Pr 0.23237 0.74917 0.76899   2.232077
 H 0.363 0.521 0.022   0.133234
 H 0.136 0.339 0.673   0.141512
 H 0.318 0.161 0.72   0.127173
 H 0.137 0.479 0.522   0.133235
 H 0.364 0.661 0.173   0.141513
 H 0.182 0.839 0.22   0.127173
 H 0.637 0.479 0.978   0.133229
 H 0.864 0.661 0.327   0.141513
 H 0.682 0.839 0.28   0.127174
 H 0.863 0.521 0.478   0.133229
 H 0.636 0.339 0.827   0.141514
 H 0.818 0.161 0.78   0.127174
 C 0.2267 0.1815 0.7023   -0.191888
 C 0.46 0.6123 0.9057   0.805618
 C 0.0673 0.0349 0.7039   0.764614
 C 0.3966 0.4701 0.6939   0.744648
 C 0.2352 0.3245 0.6842   -0.135474
 C 0.4441 0.5266 0.9874   -0.180701
 C 0.2733 0.8185 0.2023   -0.191888
 C 0.04 0.3877 0.4057   0.805618
 C 0.4327 0.9651 0.2039   0.764614
 C 0.1034 0.5299 0.1939   0.744648
 C 0.2648 0.6755 0.1842   -0.135475
 C 0.0559 0.4734 0.4874   -0.180701
 C 0.7733 0.8185 0.2977   -0.191888
 C 0.54 0.3877 0.0943   0.805611
 C 0.9327 0.9651 0.2961   0.764614
 C 0.6034 0.5299 0.3061   0.744648
 C 0.7648 0.6755 0.3158   -0.135474
 C 0.5559 0.4734 0.0126   -0.180649
 C 0.7267 0.1815 0.7977   -0.191888
 C 0.96 0.6123 0.5943   0.805611
 C 0.5673 0.0349 0.7961   0.764614
 C 0.8966 0.4701 0.8061   0.744648
 C 0.7352 0.3245 0.8158   -0.135475
 C 0.9441 0.5266 0.5126   -0.180649
 O 0.352 0.6677 0.8915   -0.727994
 O 0.5785 0.6223 0.8578   -0.741077
 O 0.931 0.0339 0.6765   -0.662357
 O 0.5374 0.4606 0.6896   -0.637233
 O 0.0705 0.9101 0.7367   -0.861572
 O 0.3885 0.6021 0.70803   -0.810616
 O 0.148 0.3323 0.3915   -0.727994
 O 0.9215 0.3777 0.3578   -0.741077
 O 0.569 0.9661 0.1765   -0.662357
 O 0.9626 0.5394 0.1896   -0.637233
 O 0.4295 0.0899 0.2367   -0.861573
 O 0.1115 0.3979 0.20803   -0.810617
 O 0.648 0.3323 0.1085   -0.727994
 O 0.4215 0.3777 0.1422   -0.741075
 O 0.069 0.9661 0.3235   -0.662357
 O 0.4626 0.5394 0.3104   -0.637232
 O 0.9295 0.0899 0.2633   -0.861572
 O 0.6115 0.3979 0.29197   -0.810616
 O 0.852 0.6677 0.6085   -0.727994
 O 0.0785 0.6223 0.6422   -0.741075
 O 0.431 0.0339 0.8235   -0.662357
 O 0.0374 0.4606 0.8104   -0.637232
 O 0.5705 0.9101 0.7633   -0.861572
 O 0.8885 0.6021 0.79197   -0.810616
