{'_ref': 'TBD', '_srcid': 'CAKYAQ_clean', 'submitters': [{'name': 'Dalar Nazarian Jeff Camp and David Sholl', 'email': 'dalar@gatech.edu jcamp6@gatech.edu'}], '_method': 'VASP DFT with PBE;DDEC'}
data_Cd3H24C36(NO7)2
_symmetry_space_group_name_H-M   'P 1'
_cell_length_a   12.67839946
_cell_length_b   13.54329963
_cell_length_c   17.13220000
_cell_angle_alpha   77.83899973
_cell_angle_beta   76.40400154
_cell_angle_gamma   80.61400182
_symmetry_Int_Tables_number   1
_chemical_formula_structural   Cd3H24C36(NO7)2
_chemical_formula_sum   'Cd6 H48 C72 N4 O28'
_cell_volume   2775.09009057
_cell_formula_units_Z   2
loop_
 _symmetry_equiv_pos_site_id
 _symmetry_equiv_pos_as_xyz
  1  'x, y, z'
loop_
 _atom_site_label
 _atom_site_fract_x
 _atom_site_fract_y
 _atom_site_fract_z
 _atom_site_charge
 Cd 0.47832 0.52757 0.73899   1.090884
 Cd 0.72066 0.24598 0.24118   1.114546
 Cd 0.71925 0.30059 0.74905   1.244542
 Cd 0.52168 0.47243 0.26101   1.090884
 Cd 0.27934 0.75402 0.75882   1.114546
 Cd 0.28075 0.69941 0.25095   1.244542
 H 0.8008 0.6796 0.6578   0.104319
 H 0.9544 0.7486 0.6578   0.100806
 H 0.9762 0.5671 0.8723   0.10804
 H 0.7215 0.5492 0.9715   0.109859
 H 0.7255 0.2527 0.0696   0.090707
 H 0.8461 0.2135 0.9532   0.112996
 H 0.5258 0.7074 0.4502   0.117435
 H 0.1655 0.8509 0.4729   0.106473
 H 0.2218 0.7483 0.5843   0.103536
 H 0.305 0.0213 0.4138   0.122884
 H 0.32 0.1168 0.3441   0.127072
 H 0.2031 0.098 0.3959   0.11028
 H 0.1443 0.0856 0.2545   0.111858
 H 0.2576 0.128 0.2238   0.112947
 H 0.2399 0.0283 0.1983   0.120342
 H 0.6754 0.7736 0.1532   0.102389
 H 0.7171 0.9371 0.1364   0.10839
 H 0.5 0.9762 0.3414   0.105465
 H 0.0734 0.3245 0.6876   0.114488
 H 0.1746 0.3342 0.7222   0.117485
 H 0.1263 0.2302 0.7418   0.105083
 H 0.1344 0.2957 0.8874   0.109443
 H 0.1322 0.4098 0.8436   0.128645
 H 0.0336 0.3747 0.913   0.11717
 H 0.1992 0.3204 0.3422   0.104318
 H 0.0456 0.2514 0.3422   0.100806
 H 0.0238 0.4329 0.1277   0.108041
 H 0.2785 0.4508 0.0285   0.109859
 H 0.2745 0.7473 0.9304   0.090708
 H 0.1539 0.7865 0.0468   0.112995
 H 0.4742 0.2926 0.5498   0.117435
 H 0.8345 0.1491 0.5271   0.106473
 H 0.7782 0.2517 0.4157   0.103536
 H 0.695 0.9787 0.5862   0.122884
 H 0.68 0.8832 0.6559   0.127071
 H 0.7969 0.902 0.6041   0.11028
 H 0.8557 0.9144 0.7455   0.111858
 H 0.7424 0.872 0.7762   0.112947
 H 0.7601 0.9717 0.8017   0.120342
 H 0.3246 0.2264 0.8468   0.102388
 H 0.2829 0.0629 0.8636   0.108388
 H 0.5 0.0238 0.6586   0.105465
 H 0.9266 0.6755 0.3124   0.114488
 H 0.8254 0.6658 0.2778   0.117485
 H 0.8737 0.7698 0.2582   0.105083
 H 0.8656 0.7043 0.1126   0.109443
 H 0.8678 0.5902 0.1564   0.128645
 H 0.9664 0.6253 0.087   0.11717
 C 0.6948 0.5391 0.7596   0.684655
 C 0.7977 0.5792 0.7623   -0.158745
 C 0.837 0.6559 0.7007   -0.057296
 C 0.9282 0.6984 0.7009   -0.095237
 C 0.9812 0.6654 0.7664   -0.070483
 C 0.9413 0.5887 0.8286   -0.11511
 C 0.8519 0.5432 0.8281   0.051144
 C 0.0827 0.7077 0.7677   0.643682
 C 0.8168 0.4588 0.8967   0.055693
 C 0.7464 0.4816 0.9675   -0.065885
 C 0.7121 0.4048 0.0332   -0.103954
 C 0.7489 0.3045 0.0269   -0.015845
 C 0.8207 0.281 0.957   -0.104326
 C 0.855 0.3581 0.8926   -0.165092
 C 0.6349 0.432 0.1083   0.682314
 C 0.9303 0.3267 0.8173   0.497948
 C 0.4169 0.645 0.5991   0.67631
 C 0.3797 0.7151 0.5277   -0.093958
 C 0.4538 0.7374 0.4546   -0.058187
 C 0.4234 0.803 0.3881   0.043831
 C 0.3124 0.8454 0.3952   -0.194034
 C 0.2383 0.8231 0.4686   -0.088703
 C 0.2714 0.7605 0.5348   -0.038399
 C 0.273 0.9068 0.3226   0.499322
 C 0.2729 0.0658 0.3718   -0.189102
 C 0.222 0.0674 0.2413   -0.17837
 C 0.5445 0.6669 0.2677   0.704854
 C 0.5613 0.7765 0.2575   -0.170372
 C 0.64 0.8143 0.1913   -0.06659
 C 0.666 0.9117 0.1818   -0.072756
 C 0.6166 0.9713 0.2392   -0.07942
 C 0.5356 0.9346 0.304   -0.099572
 C 0.5067 0.838 0.3142   0.045227
 C 0.655 0.0719 0.2352   0.634179
 C 0.1088 0.3028 0.7332   -0.172386
 C 0.0886 0.3552 0.8681   -0.184247
 C 0.3052 0.4609 0.2404   0.684655
 C 0.2023 0.4208 0.2377   -0.158745
 C 0.163 0.3441 0.2993   -0.057295
 C 0.0718 0.3016 0.2991   -0.095237
 C 0.0188 0.3346 0.2336   -0.070483
 C 0.0587 0.4113 0.1714   -0.11511
 C 0.1481 0.4568 0.1719   0.051145
 C 0.9173 0.2923 0.2323   0.643682
 C 0.1832 0.5412 0.1033   0.055693
 C 0.2536 0.5184 0.0325   -0.065885
 C 0.2879 0.5952 0.9668   -0.103954
 C 0.2511 0.6955 0.9731   -0.015846
 C 0.1793 0.719 0.043   -0.104326
 C 0.145 0.6419 0.1074   -0.165092
 C 0.3651 0.568 0.8917   0.682314
 C 0.0697 0.6733 0.1827   0.497948
 C 0.5831 0.355 0.4009   0.67631
 C 0.6203 0.2849 0.4723   -0.093958
 C 0.5462 0.2626 0.5454   -0.058187
 C 0.5766 0.197 0.6119   0.043831
 C 0.6876 0.1546 0.6048   -0.194034
 C 0.7617 0.1769 0.5314   -0.088703
 C 0.7286 0.2395 0.4652   -0.038399
 C 0.727 0.0932 0.6774   0.499322
 C 0.7271 0.9342 0.6282   -0.189101
 C 0.778 0.9326 0.7587   -0.17837
 C 0.4555 0.3331 0.7323   0.704854
 C 0.4387 0.2235 0.7425   -0.170372
 C 0.36 0.1857 0.8087   -0.06659
 C 0.334 0.0883 0.8182   -0.072755
 C 0.3834 0.0287 0.7608   -0.07942
 C 0.4644 0.0654 0.696   -0.099572
 C 0.4933 0.162 0.6858   0.045227
 C 0.345 0.9281 0.7648   0.634179
 C 0.8912 0.6972 0.2668   -0.172386
 C 0.9114 0.6448 0.1319   -0.184246
 N 0.0353 0.3327 0.8066   -0.067215
 N 0.2586 0.0069 0.3134   -0.059222
 N 0.9647 0.6673 0.1934   -0.067215
 N 0.7414 0.9931 0.6866   -0.059222
 O 0.8932 0.294 0.768   -0.597282
 O 0.6753 0.4519 0.7965   -0.665112
 O 0.632 0.598 0.719   -0.559262
 O 0.6151 0.1192 0.295   -0.619961
 O 0.7279 0.1044 0.1772   -0.603946
 O 0.5024 0.5861 0.5889   -0.57139
 O 0.3576 0.6475 0.6702   -0.660701
 O 0.5955 0.52 0.1117   -0.57569
 O 0.6125 0.3601 0.1698   -0.665133
 O 0.1146 0.7811 0.7137   -0.626905
 O 0.1338 0.6657 0.8225   -0.606277
 O 0.4478 0.6425 0.2864   -0.694217
 O 0.6249 0.6031 0.257   -0.533231
 O 0.2537 0.8634 0.271   -0.593632
 O 0.1068 0.706 0.232   -0.597282
 O 0.3247 0.5481 0.2035   -0.665112
 O 0.368 0.402 0.281   -0.559262
 O 0.3849 0.8808 0.705   -0.619961
 O 0.2721 0.8956 0.8228   -0.603946
 O 0.4976 0.4139 0.4111   -0.57139
 O 0.6424 0.3525 0.3298   -0.660701
 O 0.4045 0.48 0.8883   -0.57569
 O 0.3875 0.6399 0.8302   -0.665133
 O 0.8854 0.2189 0.2863   -0.626905
 O 0.8662 0.3343 0.1775   -0.606277
 O 0.5522 0.3575 0.7136   -0.694217
 O 0.3751 0.3969 0.743   -0.533231
 O 0.7463 0.1366 0.729   -0.593632
