{'_ref': 'TBD', '_srcid': 'CAKYAQ_clean', 'submitters': [{'name': 'Dalar Nazarian Jeff Camp and David Sholl', 'email': 'dalar@gatech.edu jcamp6@gatech.edu'}], '_method': 'VASP DFT with PBE;DDEC'}
data_Mn2H6C18O9F8
_symmetry_space_group_name_H-M   'P 1'
_cell_length_a   8.43750000
_cell_length_b   9.74229954
_cell_length_c   19.51200000
_cell_angle_alpha   90.00000000
_cell_angle_beta   90.00000000
_cell_angle_gamma   101.82399867
_symmetry_Int_Tables_number   1
_chemical_formula_structural   Mn2H6C18O9F8
_chemical_formula_sum   'Mn4 H12 C36 O18 F16'
_cell_volume   1569.86703288
_cell_formula_units_Z   2
loop_
 _symmetry_equiv_pos_site_id
 _symmetry_equiv_pos_as_xyz
  1  'x, y, z'
loop_
 _atom_site_label
 _atom_site_fract_x
 _atom_site_fract_y
 _atom_site_fract_z
 _atom_site_charge
 Mn 0.27853 0.15882 0.29386   1.123893
 Mn 0.64043 0.04638 0.24178   1.206426
 Mn 0.72147 0.84118 0.79386   1.123893
 Mn 0.35957 0.95362 0.74178   1.206426
 H 0.1366 0.2062 0.33   0.203565
 H 0.0038 0.407 0.3668   0.044216
 H 0.9923 0.2678 0.4068   0.014194
 H 0.2307 0.4914 0.406   0.115842
 H 0.2563 0.3457 0.4325   0.117454
 H 0.1265 0.4175 0.4672   0.148067
 H 0.8634 0.7938 0.83   0.203565
 H 0.9962 0.593 0.8668   0.044216
 H 0.0077 0.7322 0.9068   0.014194
 H 0.7693 0.5086 0.906   0.115842
 H 0.7437 0.6543 0.9325   0.117454
 H 0.8735 0.5825 0.9672   0.148067
 C 0.4727 0.1834 0.0472   0.205317
 C 0.5203 0.1491 0.9835   0.195257
 C 0.4757 0.0145 0.9587   -0.27768
 C 0.3796 0.9182 0.9994   0.204127
 C 0.3302 0.9529 0.063   0.190915
 C 0.3772 0.0873 0.0886   -0.308025
 C 0.3289 0.1204 0.1602   0.754879
 C 0.5278 0.9767 0.8882   0.792757
 C 0.869 0.7075 0.2307   0.193874
 C 0.7907 0.5682 0.2297   0.215963
 C 0.7063 0.5067 0.2851   -0.275245
 C 0.7085 0.5894 0.3427   0.200625
 C 0.7886 0.7269 0.344   0.199903
 C 0.8704 0.7884 0.2875   -0.326252
 C 0.958 0.9421 0.2888   0.766016
 C 0.6135 0.357 0.2825   0.767303
 C 0.0654 0.337 0.3801   0.260855
 C 0.178 0.403 0.4246   -0.421447
 C 0.5273 0.8166 0.5472   0.205317
 C 0.4797 0.8509 0.4835   0.195257
 C 0.5243 0.9855 0.4587   -0.27768
 C 0.6204 0.0818 0.4994   0.204127
 C 0.6698 0.0471 0.563   0.190915
 C 0.6228 0.9127 0.5886   -0.308025
 C 0.6711 0.8796 0.6602   0.754879
 C 0.4722 0.0233 0.3882   0.792757
 C 0.131 0.2925 0.7307   0.193874
 C 0.2093 0.4318 0.7297   0.215963
 C 0.2937 0.4933 0.7851   -0.275245
 C 0.2915 0.4106 0.8427   0.200625
 C 0.2114 0.2731 0.844   0.199903
 C 0.1296 0.2116 0.7875   -0.326252
 C 0.042 0.0579 0.7888   0.766016
 C 0.3865 0.643 0.7825   0.767303
 C 0.9346 0.663 0.8801   0.260855
 C 0.822 0.597 0.9246   -0.421447
 O 0.4015 0.0758 0.20845   -0.701518
 O 0.2258 0.191 0.1693   -0.525117
 O 0.6272 0.8985 0.8873   -0.607044
 O 0.4679 0.0219 0.838   -0.634798
 O 0.106 0.9642 0.2966   -0.558622
 O 0.8749 0.0327 0.2812   -0.609305
 O 0.6942 0.2644 0.2724   -0.614244
 O 0.4646 0.3419 0.2904   -0.599604
 O 0.0924 0.2716 0.321   -0.425591
 O 0.5985 0.9242 0.70845   -0.701518
 O 0.7742 0.809 0.6693   -0.525117
 O 0.3728 0.1015 0.3873   -0.607044
 O 0.5321 0.9781 0.338   -0.634798
 O 0.894 0.0358 0.7966   -0.558622
 O 0.1251 0.9673 0.7812   -0.609305
 O 0.3058 0.7356 0.7724   -0.614244
 O 0.5354 0.6581 0.7904   -0.599604
 O 0.9076 0.7284 0.821   -0.425591
 F 0.525 0.3148 0.0694   -0.128055
 F 0.6153 0.2473 0.9454   -0.12543
 F 0.3294 0.7858 0.9772   -0.134136
 F 0.235 0.8548 0.1009   -0.125348
 F 0.9435 0.7639 0.1734   -0.138909
 F 0.7913 0.4968 0.1716   -0.128095
 F 0.6322 0.5349 0.4   -0.128182
 F 0.7875 0.802 0.402   -0.128801
 F 0.475 0.6852 0.5694   -0.128055
 F 0.3847 0.7527 0.4454   -0.12543
 F 0.6706 0.2142 0.4772   -0.134136
 F 0.765 0.1452 0.6009   -0.125348
 F 0.0565 0.2361 0.6734   -0.138909
 F 0.2087 0.5032 0.6716   -0.128095
 F 0.3678 0.4651 0.9   -0.128182
 F 0.2125 0.198 0.902   -0.128801
