{'_ref': 'TBD', '_srcid': 'CAKYAQ_clean', 'submitters': [{'name': 'Dalar Nazarian Jeff Camp and David Sholl', 'email': 'dalar@gatech.edu jcamp6@gatech.edu'}], '_method': 'VASP DFT with PBE;DDEC'}
data_ZnH22C16(NO)4
_symmetry_space_group_name_H-M   'P 1'
_cell_length_a   6.55680000
_cell_length_b   15.07800000
_cell_length_c   20.54300000
_cell_angle_alpha   90.00000000
_cell_angle_beta   90.00000000
_cell_angle_gamma   90.00000000
_symmetry_Int_Tables_number   1
_chemical_formula_structural   ZnH22C16(NO)4
_chemical_formula_sum   'Zn4 H88 C64 N16 O16'
_cell_volume   2030.95145071
_cell_formula_units_Z   4
loop_
 _symmetry_equiv_pos_site_id
 _symmetry_equiv_pos_as_xyz
  1  'x, y, z'
loop_
 _atom_site_label
 _atom_site_fract_x
 _atom_site_fract_y
 _atom_site_fract_z
 _atom_site_charge
 Zn 0.85132 0.48638 0.81217   0.868451
 Zn 0.64868 0.51362 0.31217   0.868451
 Zn 0.14868 0.98638 0.68783   0.868451
 Zn 0.35132 0.01362 0.18783   0.868451
 H 0.2017 0.4032 0.7235   0.112302
 H 0.8794 0.2814 0.8576   0.100583
 H 0.1318 0.1727 0.8177   0.13833
 H 0.3711 0.2666 0.6719   0.099338
 H 0.328 0.1739 0.702   0.097254
 H 0.6088 0.3002 0.753   0.106397
 H 0.5547 0.2129 0.7894   0.115739
 H 0.804 0.0879 0.7696   0.119958
 H 0.7696 0.2661 0.6171   0.156921
 H 0.0499 0.1597 0.6001   0.116007
 H 0.0414 0.4636 0.1439   0.10313
 H 0.9269 0.5423 0.1068   0.106576
 H 0.8287 0.3598 0.0939   0.050437
 H 0.7073 0.4378 0.0581   0.069458
 H 0.0188 0.4761 0.002   0.062315
 H 0.9278 0.3818 0.9817   0.072909
 H 0.2639 0.407 0.0682   0.064609
 H 0.1686 0.3118 0.052   0.064608
 H 0.2693 0.3283 0.9407   0.048328
 H 0.4622 0.3301 0.9884   0.06271
 H 0.2784 0.4809 0.9286   0.115774
 H 0.4477 0.4903 0.9841   0.110127
 H 0.2983 0.5968 0.2235   0.112303
 H 0.6206 0.7186 0.3576   0.100583
 H 0.3682 0.8273 0.3177   0.13833
 H 0.1289 0.7334 0.1719   0.099339
 H 0.172 0.8261 0.202   0.097254
 H 0.8912 0.6998 0.253   0.106397
 H 0.9453 0.7871 0.2894   0.115739
 H 0.696 0.9121 0.2696   0.119958
 H 0.7304 0.7339 0.1171   0.156921
 H 0.4501 0.8403 0.1001   0.116007
 H 0.4586 0.5364 0.6439   0.103131
 H 0.5731 0.4577 0.6068   0.106578
 H 0.6713 0.6402 0.5939   0.050437
 H 0.7927 0.5622 0.5581   0.069458
 H 0.4812 0.5239 0.502   0.062315
 H 0.5722 0.6182 0.4817   0.072909
 H 0.2361 0.593 0.5682   0.064609
 H 0.3314 0.6882 0.552   0.064608
 H 0.2307 0.6717 0.4407   0.048328
 H 0.0378 0.6699 0.4884   0.06271
 H 0.2216 0.5191 0.4286   0.115774
 H 0.0523 0.5097 0.4841   0.110127
 H 0.7983 0.9032 0.7765   0.112302
 H 0.1206 0.7814 0.6424   0.100583
 H 0.8682 0.6727 0.6823   0.13833
 H 0.6289 0.7666 0.8281   0.099337
 H 0.672 0.6739 0.798   0.097254
 H 0.3912 0.8002 0.747   0.106397
 H 0.4453 0.7129 0.7106   0.115739
 H 0.196 0.5879 0.7304   0.119957
 H 0.2304 0.7661 0.8829   0.156918
 H 0.9501 0.6597 0.8999   0.116005
 H 0.9586 0.9636 0.3561   0.10313
 H 0.0731 0.0423 0.3932   0.106576
 H 0.1713 0.8598 0.4061   0.050437
 H 0.2927 0.9378 0.4419   0.069458
 H 0.9812 0.9761 0.498   0.062315
 H 0.0722 0.8818 0.5183   0.072909
 H 0.7361 0.907 0.4318   0.064609
 H 0.8314 0.8118 0.448   0.064609
 H 0.7307 0.8283 0.5593   0.048328
 H 0.5378 0.8301 0.5116   0.062711
 H 0.7216 0.9809 0.5714   0.115774
 H 0.5523 0.9903 0.5159   0.110127
 H 0.7017 0.0968 0.2765   0.112303
 H 0.3794 0.2186 0.1424   0.100583
 H 0.6318 0.3273 0.1823   0.13833
 H 0.8711 0.2334 0.3281   0.099339
 H 0.828 0.3261 0.298   0.097254
 H 0.1088 0.1998 0.247   0.106397
 H 0.0547 0.2871 0.2106   0.115739
 H 0.304 0.4121 0.2304   0.119957
 H 0.2696 0.2339 0.3829   0.156919
 H 0.5499 0.3403 0.3999   0.116005
 H 0.5414 0.0364 0.8561   0.10313
 H 0.4269 0.9577 0.8932   0.106578
 H 0.3287 0.1402 0.9061   0.050437
 H 0.2073 0.0622 0.9419   0.069458
 H 0.5188 0.0239 0.998   0.062315
 H 0.4278 0.1182 0.0183   0.072909
 H 0.7639 0.093 0.9318   0.064609
 H 0.6686 0.1882 0.948   0.064609
 H 0.7693 0.1717 0.0593   0.048328
 H 0.9622 0.1699 0.0116   0.062711
 H 0.7784 0.0191 0.0714   0.115774
 H 0.9477 0.0097 0.0159   0.110127
 C 0.1519 0.3599 0.7539   0.115683
 C 0.9855 0.295 0.82768   0.041679
 C 0.1191 0.2363 0.80446   -0.162711
 C 0.3621 0.2343 0.712   -0.07098
 C 0.5673 0.2397 0.7472   -0.061782
 C 0.8194 0.1164 0.7281   0.157669
 C 0.7952 0.2103 0.64199   -0.20278
 C 0.9498 0.1543 0.63326   0.079299
 C 0.7595 0.49211 0.18352   0.693185
 C 0.9076 0.4831 0.12668   -0.323927
 C 0.8428 0.4197 0.07468   -0.066523
 C 0.9924 0.4151 0.01773   -0.12142
 C 0.1949 0.3717 0.03403   -0.139975
 C 0.3383 0.363 0.97513   -0.060043
 C 0.4 0.4523 0.9479   -0.343362
 C 0.5655 0.4477 0.89697   0.730563
 C 0.3481 0.6401 0.2539   0.115682
 C 0.5145 0.705 0.32768   0.041679
 C 0.3809 0.7637 0.30446   -0.162711
 C 0.1379 0.7657 0.212   -0.070981
 C 0.9327 0.7603 0.2472   -0.061782
 C 0.6806 0.8836 0.2281   0.157669
 C 0.7048 0.7897 0.14199   -0.20278
 C 0.5502 0.8457 0.13326   0.0793
 C 0.7405 0.50789 0.68352   0.693186
 C 0.5924 0.5169 0.62668   -0.323929
 C 0.6572 0.5803 0.57468   -0.066522
 C 0.5076 0.5849 0.51773   -0.12142
 C 0.3051 0.6283 0.53403   -0.139975
 C 0.1617 0.637 0.47513   -0.060043
 C 0.1 0.5477 0.4479   -0.343362
 C 0.9345 0.5523 0.39697   0.730563
 C 0.8481 0.8599 0.7461   0.115683
 C 0.0145 0.795 0.67232   0.041678
 C 0.8809 0.7363 0.69554   -0.162711
 C 0.6379 0.7343 0.788   -0.07098
 C 0.4327 0.7397 0.7528   -0.061782
 C 0.1806 0.6164 0.7719   0.157669
 C 0.2048 0.7103 0.85801   -0.20278
 C 0.0502 0.6543 0.86674   0.0793
 C 0.2405 0.99211 0.31648   0.693185
 C 0.0924 0.9831 0.37332   -0.323927
 C 0.1572 0.9197 0.42532   -0.066523
 C 0.0076 0.9151 0.48227   -0.12142
 C 0.8051 0.8717 0.46597   -0.139976
 C 0.6617 0.863 0.52487   -0.060043
 C 0.6 0.9523 0.5521   -0.343362
 C 0.4345 0.9477 0.60303   0.730562
 C 0.6519 0.1401 0.2461   0.115682
 C 0.4855 0.205 0.17232   0.041678
 C 0.6191 0.2637 0.19554   -0.162711
 C 0.8621 0.2657 0.288   -0.07098
 C 0.0673 0.2603 0.2528   -0.061782
 C 0.3194 0.3836 0.2719   0.157669
 C 0.2952 0.2897 0.35801   -0.20278
 C 0.4498 0.3457 0.36674   0.0793
 C 0.2595 0.00789 0.81648   0.693186
 C 0.4076 0.0169 0.87332   -0.323928
 C 0.3428 0.0803 0.92532   -0.066523
 C 0.4924 0.0849 0.98227   -0.12142
 C 0.6949 0.1283 0.96597   -0.139975
 C 0.8383 0.137 0.02487   -0.060043
 C 0.9 0.0477 0.0521   -0.343362
 C 0.0655 0.0523 0.10303   0.730562
 N 0.022 0.37686 0.80272   -0.353954
 N 0.2038 0.2736 0.7536   0.072886
 N 0.7228 0.19 0.7089   0.028039
 N 0.945 0.08783 0.6786   -0.404153
 N 0.478 0.62314 0.30272   -0.353954
 N 0.2962 0.7264 0.2536   0.072886
 N 0.7772 0.81 0.2089   0.028039
 N 0.555 0.91217 0.1786   -0.404153
 N 0.978 0.87686 0.69728   -0.353954
 N 0.7962 0.7736 0.7464   0.072886
 N 0.2772 0.69 0.7911   0.028039
 N 0.055 0.58783 0.8214   -0.404153
 N 0.522 0.12314 0.19728   -0.353954
 N 0.7038 0.2264 0.2464   0.072886
 N 0.2228 0.31 0.2911   0.028039
 N 0.445 0.41217 0.3214   -0.404153
 O 0.8396 0.49521 0.23945   -0.63547
 O 0.5736 0.49372 0.1746   -0.645233
 O 0.6773 0.51633 0.88971   -0.664023
 O 0.5906 0.38205 0.86342   -0.624926
 O 0.6604 0.50479 0.73945   -0.63547
 O 0.9264 0.50628 0.6746   -0.645233
 O 0.8227 0.48367 0.38971   -0.664023
 O 0.9094 0.61795 0.36342   -0.624926
 O 0.1604 0.99521 0.26055   -0.63547
 O 0.4264 0.99372 0.3254   -0.645233
 O 0.3227 0.01633 0.61029   -0.664023
 O 0.4094 0.88205 0.63658   -0.624926
 O 0.3396 0.00479 0.76055   -0.63547
 O 0.0736 0.00628 0.8254   -0.645233
 O 0.1773 0.98367 0.11029   -0.664023
 O 0.0906 0.11795 0.13658   -0.624926
