{'_ref': 'TBD', '_srcid': 'CAKYAQ_clean', 'submitters': [{'name': 'Dalar Nazarian Jeff Camp and David Sholl', 'email': 'dalar@gatech.edu jcamp6@gatech.edu'}], '_method': 'VASP DFT with PBE;DDEC'}
data_La2Ni3H30C24(NO4)6
_symmetry_space_group_name_H-M   'P 1'
_cell_length_a   7.48810000
_cell_length_b   13.25389991
_cell_length_c   13.25390000
_cell_angle_alpha   120.00000021
_cell_angle_beta   90.00000000
_cell_angle_gamma   90.00000000
_symmetry_Int_Tables_number   1
_chemical_formula_structural   La2Ni3H30C24(NO4)6
_chemical_formula_sum   'La2 Ni3 H30 C24 N6 O24'
_cell_volume   1139.17289391
_cell_formula_units_Z   1
loop_
 _symmetry_equiv_pos_site_id
 _symmetry_equiv_pos_as_xyz
  1  'x, y, z'
loop_
 _atom_site_label
 _atom_site_fract_x
 _atom_site_fract_y
 _atom_site_fract_z
 _atom_site_charge
 La 0.33051 0.66667 0.33334   2.139211
 La 0.66949 0.33333 0.66666   2.139211
 Ni 0.0 0.5 0.5   0.764755
 Ni 0.0 0.0 0.5   0.76476
 Ni 0.0 0.5 0.0   0.764808
 H 0.7147 0.7312 0.5575   0.122826
 H 0.6052 0.6665 0.6086   0.142185
 H 0.8389 0.6455 0.682   0.25577
 H 0.0663 0.7557 0.7178   0.121743
 H 0.9351 0.8163 0.6722   0.109952
 H 0.7147 0.8263 0.2688   0.12283
 H 0.6052 0.9421 0.3335   0.142184
 H 0.8389 0.0365 0.3545   0.255766
 H 0.0663 0.9621 0.2443   0.121741
 H 0.9351 0.8559 0.1837   0.109951
 H 0.7147 0.4425 0.1737   0.122823
 H 0.6052 0.3914 0.0579   0.142182
 H 0.8389 0.318 0.9635   0.255766
 H 0.0663 0.2822 0.0379   0.121742
 H 0.9351 0.3278 0.1441   0.109948
 H 0.2853 0.2688 0.4425   0.122826
 H 0.3948 0.3335 0.3914   0.142188
 H 0.1611 0.3545 0.318   0.255769
 H 0.9337 0.2443 0.2822   0.121747
 H 0.0649 0.1837 0.3278   0.109954
 H 0.2853 0.1737 0.7312   0.12283
 H 0.3948 0.0579 0.6665   0.142187
 H 0.1611 0.9635 0.6455   0.255765
 H 0.9337 0.0379 0.7557   0.121744
 H 0.0649 0.1441 0.8163   0.109953
 H 0.2853 0.5575 0.8263   0.122823
 H 0.3948 0.6086 0.9421   0.142184
 H 0.1611 0.682 0.0365   0.255766
 H 0.9337 0.7178 0.9621   0.121745
 H 0.0649 0.6722 0.8559   0.109949
 C 0.6766 0.5604 0.4402   0.741917
 C 0.7076 0.6599 0.5609   -0.220072
 C 0.9985 0.7445 0.6506   -0.185154
 C 0.1258 0.7178 0.5511   0.677127
 C 0.6766 0.8798 0.4396   0.741917
 C 0.7076 0.901 0.3401   -0.22007
 C 0.9985 0.9061 0.2555   -0.185154
 C 0.1258 0.8333 0.2822   0.677132
 C 0.6766 0.5598 0.1202   0.741916
 C 0.7076 0.4391 0.099   -0.220065
 C 0.9985 0.3494 0.0939   -0.185158
 C 0.1258 0.4489 0.1667   0.67715
 C 0.3234 0.4396 0.5598   0.741918
 C 0.2924 0.3401 0.4391   -0.220073
 C 0.0015 0.2555 0.3494   -0.185156
 C 0.8742 0.2822 0.4489   0.677128
 C 0.3234 0.1202 0.5604   0.741917
 C 0.2924 0.099 0.6599   -0.220071
 C 0.0015 0.0939 0.7445   -0.185156
 C 0.8742 0.1667 0.7178   0.677132
 C 0.3234 0.4402 0.8798   0.741917
 C 0.2924 0.5609 0.901   -0.220067
 C 0.0015 0.6506 0.9061   -0.18516
 C 0.8742 0.5511 0.8333   0.67715
 N 0.8695 0.65014 0.61804   -0.275018
 N 0.8695 0.9679 0.34986   -0.275018
 N 0.8695 0.38196 0.0321   -0.27502
 N 0.1305 0.34986 0.38196   -0.275017
 N 0.1305 0.0321 0.65014   -0.275017
 N 0.1305 0.61804 0.9679   -0.275019
 O 0.5395 0.5658 0.3897   -0.718388
 O 0.7851 0.47644 0.39616   -0.580728
 O 0.1105 0.62027 0.45805   -0.666982
 O 0.2394 0.79012 0.56127   -0.620603
 O 0.5395 0.8239 0.4342   -0.718386
 O 0.7851 0.91972 0.52356   -0.580731
 O 0.1105 0.83778 0.37973   -0.667002
 O 0.2394 0.77115 0.20988   -0.620605
 O 0.5395 0.6103 0.1761   -0.718383
 O 0.7851 0.60384 0.08028   -0.580741
 O 0.1105 0.54195 0.16222   -0.667052
 O 0.2394 0.43873 0.22885   -0.62062
 O 0.4605 0.4342 0.6103   -0.718388
 O 0.2149 0.52356 0.60384   -0.580728
 O 0.8895 0.37973 0.54195   -0.666982
 O 0.7606 0.20988 0.43873   -0.620603
 O 0.4605 0.1761 0.5658   -0.718386
 O 0.2149 0.08028 0.47644   -0.580731
 O 0.8895 0.16222 0.62027   -0.667002
 O 0.7606 0.22885 0.79012   -0.620605
 O 0.4605 0.3897 0.8239   -0.718383
 O 0.2149 0.39616 0.91972   -0.580741
 O 0.8895 0.45805 0.83778   -0.667052
 O 0.7606 0.56127 0.77115   -0.62062
