{'_ref': 'TBD', '_srcid': 'CAKYAQ_clean', 'submitters': [{'name': 'Dalar Nazarian Jeff Camp and David Sholl', 'email': 'dalar@gatech.edu jcamp6@gatech.edu'}], '_method': 'VASP DFT with PBE;DDEC'}
data_CdH10C12S2N2O3
_symmetry_space_group_name_H-M   'P 1'
_cell_length_a   10.40790000
_cell_length_b   14.93280000
_cell_length_c   21.28400000
_cell_angle_alpha   90.00000000
_cell_angle_beta   90.00000000
_cell_angle_gamma   90.00000000
_symmetry_Int_Tables_number   1
_chemical_formula_structural   CdH10C12S2N2O3
_chemical_formula_sum   'Cd8 H80 C96 S16 N16 O24'
_cell_volume   3307.93989283
_cell_formula_units_Z   8
loop_
 _symmetry_equiv_pos_site_id
 _symmetry_equiv_pos_as_xyz
  1  'x, y, z'
loop_
 _atom_site_label
 _atom_site_fract_x
 _atom_site_fract_y
 _atom_site_fract_z
 _atom_site_charge
 Cd 0.5 0.25 0.63323   0.758553
 Cd 0.5 0.25 0.86677   0.758553
 Cd 0.5 0.75 0.36677   0.758553
 Cd 0.5 0.75 0.13323   0.758553
 Cd 0.5 0.02973 0.75   0.809082
 Cd 0.5 0.47027 0.75   0.809081
 Cd 0.5 0.97027 0.25   0.809082
 Cd 0.5 0.52973 0.25   0.809081
 H 0.5416 0.1626 0.4989   0.085097
 H 0.5416 0.3374 0.0011   0.085097
 H 0.4584 0.3374 0.4989   0.085097
 H 0.4584 0.1626 0.0011   0.085097
 H 0.4584 0.8374 0.5011   0.085097
 H 0.4584 0.6626 0.9989   0.085097
 H 0.5416 0.6626 0.5011   0.085097
 H 0.5416 0.8374 0.9989   0.085097
 H 0.7001 0.1207 0.4304   0.131133
 H 0.7001 0.3793 0.0696   0.131133
 H 0.2999 0.3793 0.4304   0.131133
 H 0.2999 0.1207 0.0696   0.131133
 H 0.2999 0.8793 0.5696   0.131133
 H 0.2999 0.6207 0.9304   0.131133
 H 0.7001 0.6207 0.5696   0.131133
 H 0.7001 0.8793 0.9304   0.131133
 H 0.9582 0.1575 0.5664   0.140172
 H 0.9582 0.3425 0.9336   0.140172
 H 0.0418 0.3425 0.5664   0.140172
 H 0.0418 0.1575 0.9336   0.140172
 H 0.0418 0.8425 0.4336   0.140172
 H 0.0418 0.6575 0.0664   0.140172
 H 0.9582 0.6575 0.4336   0.140172
 H 0.9582 0.8425 0.0664   0.140172
 H 0.7931 0.2022 0.6315   0.084228
 H 0.7931 0.2978 0.8685   0.084228
 H 0.2069 0.2978 0.6315   0.084228
 H 0.2069 0.2022 0.8685   0.084228
 H 0.2069 0.7978 0.3685   0.084228
 H 0.2069 0.7022 0.1315   0.084228
 H 0.7931 0.7022 0.3685   0.084228
 H 0.7931 0.7978 0.1315   0.084228
 H 0.4701 0.0468 0.3903   0.081115
 H 0.4701 0.4532 0.1097   0.081115
 H 0.5299 0.4532 0.3903   0.081115
 H 0.5299 0.0468 0.1097   0.081115
 H 0.5299 0.9532 0.6097   0.081115
 H 0.5299 0.5468 0.8903   0.081115
 H 0.4701 0.5468 0.6097   0.081115
 H 0.4701 0.9532 0.8903   0.081115
 H 0.3174 0.0879 0.4626   0.13704
 H 0.3174 0.4121 0.0374   0.13704
 H 0.6826 0.4121 0.4626   0.13704
 H 0.6826 0.0879 0.0374   0.13704
 H 0.6826 0.9121 0.5374   0.13704
 H 0.6826 0.5879 0.9626   0.13704
 H 0.3174 0.5879 0.5374   0.13704
 H 0.3174 0.9121 0.9626   0.13704
 H 0.0466 0.0381 0.336   0.143166
 H 0.0466 0.4619 0.164   0.143166
 H 0.9534 0.4619 0.336   0.143166
 H 0.9534 0.0381 0.164   0.143166
 H 0.9534 0.9619 0.664   0.143166
 H 0.9534 0.5381 0.836   0.143166
 H 0.0466 0.5381 0.664   0.143166
 H 0.0466 0.9619 0.836   0.143166
 H 0.2054 0.9976 0.266   0.081497
 H 0.2054 0.5024 0.234   0.081497
 H 0.7946 0.5024 0.266   0.081497
 H 0.7946 0.9976 0.234   0.081497
 H 0.7946 0.0024 0.734   0.081497
 H 0.7946 0.4976 0.766   0.081497
 H 0.2054 0.4976 0.734   0.081497
 H 0.2054 0.0024 0.766   0.081497
 H 0.9184 0.0934 0.4034   0.108488
 H 0.9184 0.4066 0.0966   0.108488
 H 0.0816 0.4066 0.4034   0.108488
 H 0.0816 0.0934 0.0966   0.108488
 H 0.0816 0.9066 0.5966   0.108488
 H 0.0816 0.5934 0.9034   0.108488
 H 0.9184 0.5934 0.5966   0.108488
 H 0.9184 0.9066 0.9034   0.108488
 H 0.0995 0.1154 0.4944   0.113081
 H 0.0995 0.3846 0.0056   0.113081
 H 0.9005 0.3846 0.4944   0.113081
 H 0.9005 0.1154 0.0056   0.113081
 H 0.9005 0.8846 0.5056   0.113081
 H 0.9005 0.6154 0.9944   0.113081
 H 0.0995 0.6154 0.5056   0.113081
 H 0.0995 0.8846 0.9944   0.113081
 C 0.6266 0.1626 0.5125   0.151843
 C 0.6266 0.3374 0.9875   0.151843
 C 0.3734 0.3374 0.5125   0.151843
 C 0.3734 0.1626 0.9875   0.151843
 C 0.3734 0.8374 0.4875   0.151843
 C 0.3734 0.6626 0.0125   0.151843
 C 0.6266 0.6626 0.4875   0.151843
 C 0.6266 0.8374 0.0125   0.151843
 C 0.7218 0.137 0.4712   -0.181857
 C 0.7218 0.363 0.0288   -0.181857
 C 0.2782 0.363 0.4712   -0.181857
 C 0.2782 0.137 0.0288   -0.181857
 C 0.2782 0.863 0.5288   -0.181857
 C 0.2782 0.637 0.9712   -0.181857
 C 0.7218 0.637 0.5288   -0.181857
 C 0.7218 0.863 0.9712   -0.181857
 C 0.8482 0.1351 0.4896   0.132646
 C 0.8482 0.3649 0.0104   0.132646
 C 0.1518 0.3649 0.4896   0.132646
 C 0.1518 0.1351 0.0104   0.132646
 C 0.1518 0.8649 0.5104   0.132646
 C 0.1518 0.6351 0.9896   0.132646
 C 0.8482 0.6351 0.5104   0.132646
 C 0.8482 0.8649 0.9896   0.132646
 C 0.8744 0.1591 0.5513   -0.188058
 C 0.8744 0.3409 0.9487   -0.188058
 C 0.1256 0.3409 0.5513   -0.188058
 C 0.1256 0.1591 0.9487   -0.188058
 C 0.1256 0.8409 0.4487   -0.188058
 C 0.1256 0.6591 0.0513   -0.188058
 C 0.8744 0.6591 0.4487   -0.188058
 C 0.8744 0.8409 0.0513   -0.188058
 C 0.774 0.1855 0.5904   0.167945
 C 0.774 0.3145 0.9096   0.167945
 C 0.226 0.3145 0.5904   0.167944
 C 0.226 0.1855 0.9096   0.167944
 C 0.226 0.8145 0.4096   0.167945
 C 0.226 0.6855 0.0904   0.167945
 C 0.774 0.6855 0.4096   0.167944
 C 0.774 0.8145 0.0904   0.167944
 C 0.3839 0.0454 0.3788   0.171206
 C 0.3839 0.4546 0.1212   0.171206
 C 0.6161 0.4546 0.3788   0.171206
 C 0.6161 0.0454 0.1212   0.171206
 C 0.6161 0.9546 0.6212   0.171206
 C 0.6161 0.5454 0.8788   0.171206
 C 0.3839 0.5454 0.6212   0.171206
 C 0.3839 0.9546 0.8788   0.171206
 C 0.2918 0.0707 0.4225   -0.203138
 C 0.2918 0.4293 0.0775   -0.203138
 C 0.7082 0.4293 0.4225   -0.203138
 C 0.7082 0.0707 0.0775   -0.203138
 C 0.7082 0.9293 0.5775   -0.203138
 C 0.7082 0.5707 0.9225   -0.203138
 C 0.2918 0.5707 0.5775   -0.203138
 C 0.2918 0.9293 0.9225   -0.203138
 C 0.1664 0.0708 0.4078   0.143609
 C 0.1664 0.4292 0.0922   0.143609
 C 0.8336 0.4292 0.4078   0.143609
 C 0.8336 0.0708 0.0922   0.143609
 C 0.8336 0.9292 0.5922   0.143609
 C 0.8336 0.5708 0.9078   0.143609
 C 0.1664 0.5708 0.5922   0.143609
 C 0.1664 0.9292 0.9078   0.143609
 C 0.1325 0.0412 0.3478   -0.197069
 C 0.1325 0.4588 0.1522   -0.197069
 C 0.8675 0.4588 0.3478   -0.197069
 C 0.8675 0.0412 0.1522   -0.197069
 C 0.8675 0.9588 0.6522   -0.197069
 C 0.8675 0.5412 0.8478   -0.197069
 C 0.1325 0.5412 0.6522   -0.197069
 C 0.1325 0.9588 0.8478   -0.197069
 C 0.229 0.0166 0.306   0.16318
 C 0.229 0.4834 0.194   0.16318
 C 0.771 0.4834 0.306   0.16318
 C 0.771 0.0166 0.194   0.16318
 C 0.771 0.9834 0.694   0.16318
 C 0.771 0.5166 0.806   0.16318
 C 0.229 0.5166 0.694   0.16318
 C 0.229 0.9834 0.806   0.16318
 C 0.9467 0.1073 0.4437   -0.0917
 C 0.9467 0.3927 0.0563   -0.0917
 C 0.0533 0.3927 0.4437   -0.0917
 C 0.0533 0.1073 0.0563   -0.0917
 C 0.0533 0.8927 0.5563   -0.0917
 C 0.0533 0.6073 0.9437   -0.0917
 C 0.9467 0.6073 0.5563   -0.0917
 C 0.9467 0.8927 0.9437   -0.0917
 C 0.0701 0.1005 0.4545   -0.109141
 C 0.0701 0.3995 0.0455   -0.109141
 C 0.9299 0.3995 0.4545   -0.109141
 C 0.9299 0.1005 0.0455   -0.109141
 C 0.9299 0.8995 0.5455   -0.109141
 C 0.9299 0.6005 0.9545   -0.109141
 C 0.0701 0.6005 0.5455   -0.109141
 C 0.0701 0.8995 0.9545   -0.109141
 S 0.35287 0.15849 0.70271   -0.568817
 S 0.35287 0.34151 0.79729   -0.568816
 S 0.64713 0.34151 0.70271   -0.568816
 S 0.64713 0.15849 0.79729   -0.568816
 S 0.64713 0.84151 0.29729   -0.568817
 S 0.64713 0.65849 0.20271   -0.568816
 S 0.35287 0.65849 0.29729   -0.568816
 S 0.35287 0.84151 0.20271   -0.568816
 S 0.29284 0.07003 0.63295   1.328704
 S 0.29284 0.42997 0.86705   1.328704
 S 0.70716 0.42997 0.63295   1.328704
 S 0.70716 0.07003 0.86705   1.328704
 S 0.70716 0.92997 0.36705   1.328704
 S 0.70716 0.57003 0.13295   1.328704
 S 0.29284 0.57003 0.36705   1.328704
 S 0.29284 0.92997 0.13295   1.328704
 N 0.6532 0.1878 0.572   -0.322117
 N 0.6532 0.3122 0.928   -0.322117
 N 0.3468 0.3122 0.572   -0.322117
 N 0.3468 0.1878 0.928   -0.322117
 N 0.3468 0.8122 0.428   -0.322117
 N 0.3468 0.6878 0.072   -0.322117
 N 0.6532 0.6878 0.428   -0.322117
 N 0.6532 0.8122 0.072   -0.322117
 N 0.3527 0.0189 0.3203   -0.33161
 N 0.3527 0.4811 0.1797   -0.331609
 N 0.6473 0.4811 0.3203   -0.331609
 N 0.6473 0.0189 0.1797   -0.33161
 N 0.6473 0.9811 0.6797   -0.33161
 N 0.6473 0.5189 0.8203   -0.331609
 N 0.3527 0.5189 0.6797   -0.331609
 N 0.3527 0.9811 0.8203   -0.33161
 O 0.1587 0.0828 0.6243   -0.622951
 O 0.1587 0.4172 0.8757   -0.622951
 O 0.8413 0.4172 0.6243   -0.622951
 O 0.8413 0.0828 0.8757   -0.622951
 O 0.8413 0.9172 0.3757   -0.622951
 O 0.8413 0.5828 0.1243   -0.622951
 O 0.1587 0.5828 0.3757   -0.622951
 O 0.1587 0.9172 0.1243   -0.622951
 O 0.3678 0.0915 0.57777   -0.667405
 O 0.3678 0.4085 0.92223   -0.667405
 O 0.6322 0.4085 0.57777   -0.667405
 O 0.6322 0.0915 0.92223   -0.667405
 O 0.6322 0.9085 0.42223   -0.667405
 O 0.6322 0.5915 0.07777   -0.667405
 O 0.3678 0.5915 0.42223   -0.667405
 O 0.3678 0.9085 0.07777   -0.667405
 O 0.3267 0.9825 0.6595   -0.664104
 O 0.3267 0.5175 0.8405   -0.664104
 O 0.6733 0.5175 0.6595   -0.664104
 O 0.6733 0.9825 0.8405   -0.664104
 O 0.6733 0.0175 0.3405   -0.664104
 O 0.6733 0.4825 0.1595   -0.664104
 O 0.3267 0.4825 0.3405   -0.664104
 O 0.3267 0.0175 0.1595   -0.664104
