{'_ref': 'TBD', '_srcid': 'CAKYAQ_clean', 'submitters': [{'name': 'Dalar Nazarian Jeff Camp and David Sholl', 'email': 'dalar@gatech.edu jcamp6@gatech.edu'}], '_method': 'VASP DFT with PBE;DDEC'}
data_CaH8(C3O2)2
_symmetry_space_group_name_H-M   'P 1'
_cell_length_a   7.75360028
_cell_length_b   15.07360000
_cell_length_c   16.80080000
_cell_angle_alpha   90.00000000
_cell_angle_beta   99.79899949
_cell_angle_gamma   90.00000000
_symmetry_Int_Tables_number   1
_chemical_formula_structural   CaH8(C3O2)2
_chemical_formula_sum   'Ca4 H32 C24 O16'
_cell_volume   1934.94090284
_cell_formula_units_Z   4
loop_
 _symmetry_equiv_pos_site_id
 _symmetry_equiv_pos_as_xyz
  1  'x, y, z'
loop_
 _atom_site_label
 _atom_site_fract_x
 _atom_site_fract_y
 _atom_site_fract_z
 _atom_site_charge
 Ca 0.50477 0.21911 0.2495   1.611574
 Ca 0.99523 0.71911 0.7505   1.611574
 Ca 0.49523 0.78089 0.7505   1.611574
 Ca 0.00477 0.28089 0.2495   1.611574
 H 0.6162 0.4928 0.1345   0.11796
 H 0.736 0.4401 0.087   0.106958
 H 0.6295 0.5434 0.9645   0.062795
 H 0.5129 0.5923 0.0144   0.060573
 H 0.3793 0.4937 0.3631   0.117807
 H 0.2714 0.4381 0.4135   0.107989
 H 0.6347 0.4731 0.4578   0.06397
 H 0.5432 0.4098 0.5084   0.062218
 H 0.8838 0.9928 0.8655   0.11796
 H 0.764 0.9401 0.913   0.106959
 H 0.8705 0.0434 0.0355   0.062795
 H 0.9871 0.0923 0.9856   0.060573
 H 0.1207 0.9937 0.6369   0.117807
 H 0.2286 0.9381 0.5865   0.107989
 H 0.8653 0.9731 0.5422   0.06397
 H 0.9568 0.9098 0.4916   0.062218
 H 0.3838 0.5072 0.8655   0.11796
 H 0.264 0.5599 0.913   0.106959
 H 0.3705 0.4566 0.0355   0.062795
 H 0.4871 0.4077 0.9856   0.060573
 H 0.6207 0.5063 0.6369   0.117807
 H 0.7286 0.5619 0.5865   0.107989
 H 0.3653 0.5269 0.5422   0.06397
 H 0.4568 0.5902 0.4916   0.062218
 H 0.1162 0.0072 0.1345   0.11796
 H 0.236 0.0599 0.087   0.106959
 H 0.1295 0.9566 0.9645   0.062795
 H 0.0129 0.9077 0.0144   0.060573
 H 0.8793 0.0063 0.3631   0.117807
 H 0.7714 0.0619 0.4135   0.107989
 H 0.1347 0.0269 0.4578   0.06397
 H 0.0432 0.0902 0.5084   0.062218
 C 0.58984 0.36197 0.14754   0.792719
 C 0.61902 0.44353 0.09851   -0.326623
 C 0.48571 0.45694 0.02175   -0.065292
 C 0.4181 0.36326 0.35059   0.7923
 C 0.38609 0.44455 0.3999   -0.327963
 C 0.52449 0.46147 0.47455   -0.067564
 C 0.91016 0.86197 0.85246   0.792719
 C 0.88098 0.94353 0.90149   -0.326623
 C 0.01429 0.95694 0.97825   -0.065292
 C 0.0819 0.86326 0.64941   0.7923
 C 0.11391 0.94455 0.6001   -0.327963
 C 0.97551 0.96147 0.52545   -0.067564
 C 0.41016 0.63803 0.85246   0.792719
 C 0.38098 0.55647 0.90149   -0.326623
 C 0.51429 0.54306 0.97825   -0.065292
 C 0.5819 0.63674 0.64941   0.7923
 C 0.61391 0.55545 0.6001   -0.327963
 C 0.47551 0.53853 0.52545   -0.067565
 C 0.08984 0.13803 0.14754   0.792719
 C 0.11902 0.05647 0.09851   -0.326623
 C 0.98571 0.04306 0.02175   -0.065292
 C 0.9181 0.13674 0.35059   0.7923
 C 0.88609 0.05545 0.3999   -0.327963
 C 0.02449 0.03853 0.47455   -0.067565
 O 0.43701 0.33237 0.14428   -0.703215
 O 0.71919 0.32674 0.19169   -0.851003
 O 0.28984 0.32718 0.30662   -0.85079
 O 0.57193 0.33461 0.35421   -0.704413
 O 0.06299 0.83237 0.85572   -0.703215
 O 0.78081 0.82674 0.80831   -0.851003
 O 0.21016 0.82718 0.69338   -0.85079
 O 0.92807 0.83461 0.64579   -0.704413
 O 0.56299 0.66763 0.85572   -0.703215
 O 0.28081 0.67326 0.80831   -0.851003
 O 0.71016 0.67282 0.69338   -0.85079
 O 0.42807 0.66539 0.64579   -0.704413
 O 0.93701 0.16763 0.14428   -0.703215
 O 0.21919 0.17326 0.19169   -0.851003
 O 0.78984 0.17282 0.30662   -0.85079
 O 0.07193 0.16539 0.35421   -0.704413
