{'_ref': 'TBD', '_srcid': 'CAKYAQ_clean', 'submitters': [{'name': 'Dalar Nazarian Jeff Camp and David Sholl', 'email': 'dalar@gatech.edu jcamp6@gatech.edu'}], '_method': 'VASP DFT with PBE;DDEC'}
data_CdH20C26(N2O3)2
_symmetry_space_group_name_H-M   'P 1'
_cell_length_a   9.36100053
_cell_length_b   12.71299978
_cell_length_c   12.75500000
_cell_angle_alpha   111.84300212
_cell_angle_beta   105.93800158
_cell_angle_gamma   97.10399852
_symmetry_Int_Tables_number   1
_chemical_formula_structural   CdH20C26(N2O3)2
_chemical_formula_sum   'Cd2 H40 C52 N8 O12'
_cell_volume   1310.70094361
_cell_formula_units_Z   2
loop_
 _symmetry_equiv_pos_site_id
 _symmetry_equiv_pos_as_xyz
  1  'x, y, z'
loop_
 _atom_site_label
 _atom_site_fract_x
 _atom_site_fract_y
 _atom_site_fract_z
 _atom_site_charge
 Cd 0.01485 0.39669 0.57774   1.005693
 Cd 0.98515 0.60331 0.42226   1.005693
 H 0.6252 0.3526 0.4471   0.09666
 H 0.444 0.1765 0.2802   0.13108
 H 0.8649 0.1349 0.3396   0.088669
 H 0.3881 0.9564 0.2026   0.109338
 H 0.2909 0.7732 0.0405   0.129263
 H 0.6652 0.8291 0.9529   0.109258
 H 0.7595 0.0109 0.1148   0.105387
 H 0.1819 0.6575 0.8238   0.094659
 H 0.5951 0.6048 0.8537   0.152703
 H 0.4067 0.4394 0.6792   0.112665
 H 0.064 0.0611 0.6339   0.104728
 H 0.2294 0.1412 0.7141   0.077314
 H 0.4179 0.2386 0.6886   0.11695
 H 0.2252 0.8534 0.4071   0.098235
 H 0.675 0.2836 0.7061   0.107354
 H 0.6984 0.6712 0.6403   0.095576
 H 0.8494 0.7378 0.6377   0.096033
 H 0.8352 0.9027 0.6941   0.133189
 H 0.9158 0.1055 0.786   0.099271
 H 0.029 0.2042 0.9903   0.115169
 H 0.3748 0.6474 0.5529   0.096653
 H 0.556 0.8235 0.7198   0.131078
 H 0.1351 0.8651 0.6604   0.088669
 H 0.6119 0.0436 0.7974   0.109338
 H 0.7091 0.2268 0.9595   0.129266
 H 0.3348 0.1709 0.0471   0.109257
 H 0.2405 0.9891 0.8852   0.105386
 H 0.8181 0.3425 0.1762   0.094659
 H 0.4049 0.3952 0.1463   0.152707
 H 0.5933 0.5606 0.3208   0.112663
 H 0.936 0.9389 0.3661   0.104728
 H 0.7706 0.8588 0.2859   0.077314
 H 0.5821 0.7614 0.3114   0.11695
 H 0.7748 0.1466 0.5929   0.098234
 H 0.325 0.7164 0.2939   0.107355
 H 0.3016 0.3288 0.3597   0.095567
 H 0.1506 0.2622 0.3623   0.096031
 H 0.1648 0.0973 0.3059   0.133189
 H 0.0842 0.8945 0.214   0.09927
 H 0.971 0.7958 0.0097   0.115175
 C 0.6508 0.2852 0.4044   0.044917
 C 0.55 0.1893 0.3114   -0.158686
 C 0.7825 0.1678 0.3462   0.16645
 C 0.5791 0.0015 0.1717   0.100254
 C 0.4426 0.9306 0.1511   -0.111046
 C 0.3843 0.821 0.0547   -0.135681
 C 0.4691 0.7841 0.9798   0.105691
 C 0.6087 0.855 0.0028   -0.125442
 C 0.665 0.9636 0.099   -0.121698
 C 0.2607 0.6232 0.8092   0.161364
 C 0.4894 0.5956 0.8268   -0.155044
 C 0.3847 0.5042 0.7306   0.028846
 C 0.1069 0.2092 0.6072   0.633531
 C 0.1533 0.1085 0.6337   -0.077116
 C 0.3671 0.0729 0.5686   0.227738
 C 0.4578 0.1819 0.6436   -0.264511
 C 0.4214 0.9855 0.4937   -0.039099
 C 0.3276 0.8726 0.414   -0.143147
 C 0.6125 0.2091 0.6533   -0.037018
 C 0.8668 0.5835 0.6489   0.657601
 C 0.8096 0.6924 0.6747   -0.059641
 C 0.905 0.8815 0.8463   0.221843
 C 0.8823 0.9422 0.7773   -0.26226
 C 0.9305 0.0637 0.8328   -0.01422
 C 0.999 0.1228 0.9549   -0.162155
 C 0.9751 0.9382 0.9722   -0.035361
 C 0.3492 0.7148 0.5956   0.044918
 C 0.45 0.8107 0.6886   -0.158686
 C 0.2175 0.8322 0.6538   0.166449
 C 0.4209 0.9985 0.8283   0.100253
 C 0.5574 0.0694 0.8489   -0.111045
 C 0.6157 0.179 0.9453   -0.135682
 C 0.5309 0.2159 0.0202   0.105691
 C 0.3913 0.145 0.9972   -0.125442
 C 0.335 0.0364 0.901   -0.121696
 C 0.7393 0.3768 0.1908   0.161363
 C 0.5106 0.4044 0.1732   -0.155045
 C 0.6153 0.4958 0.2694   0.028847
 C 0.8931 0.7908 0.3928   0.633531
 C 0.8467 0.8915 0.3663   -0.077117
 C 0.6329 0.9271 0.4314   0.227737
 C 0.5422 0.8181 0.3564   -0.264514
 C 0.5786 0.0145 0.5063   -0.039099
 C 0.6724 0.1274 0.586   -0.143137
 C 0.3875 0.7909 0.3467   -0.037008
 C 0.1332 0.4165 0.3511   0.6576
 C 0.1904 0.3076 0.3253   -0.059638
 C 0.095 0.1185 0.1537   0.221843
 C 0.1177 0.0578 0.2227   -0.26226
 C 0.0695 0.9363 0.1672   -0.014218
 C 0.000999999999998 0.8772 0.0451   -0.162157
 C 0.0249 0.0618 0.0278   -0.035363
 N 0.7957 0.2697 0.4272   -0.375128
 N 0.6374 0.1143 0.2724   0.042364
 N 0.4106 0.6728 0.8778   0.032226
 N 0.2383 0.5217 0.72   -0.363222
 N 0.2043 0.7303 0.5728   -0.375128
 N 0.3626 0.8857 0.7276   0.042364
 N 0.5894 0.3272 0.1222   0.032226
 N 0.7617 0.4783 0.28   -0.363222
 O 0.1229 0.222 0.5195   -0.609941
 O 0.051 0.2744 0.6776   -0.614315
 O 0.8957 0.5454 0.5538   -0.640133
 O 0.8873 0.5348 0.717   -0.602773
 O 0.8576 0.7612 0.8014   -0.257697
 O 0.2137 0.0346 0.553   -0.236687
 O 0.8771 0.778 0.4805   -0.609941
 O 0.949 0.7256 0.3224   -0.614315
 O 0.1043 0.4546 0.4462   -0.640133
 O 0.1127 0.4652 0.283   -0.602773
 O 0.1424 0.2388 0.1986   -0.257697
 O 0.7863 0.9654 0.447   -0.236687
