{'_ref': 'TBD', '_srcid': 'CAKYAQ_clean', 'submitters': [{'name': 'Dalar Nazarian Jeff Camp and David Sholl', 'email': 'dalar@gatech.edu jcamp6@gatech.edu'}], '_method': 'VASP DFT with PBE;DDEC'}
data_Cu5H14(CO)24
_symmetry_space_group_name_H-M   'P 1'
_cell_length_a   8.38630002
_cell_length_b   9.52190006
_cell_length_c   27.08760000
_cell_angle_alpha   83.10509725
_cell_angle_beta   81.09479767
_cell_angle_gamma   63.87249915
_symmetry_Int_Tables_number   1
_chemical_formula_structural   Cu5H14(CO)24
_chemical_formula_sum   'Cu10 H28 C48 O48'
_cell_volume   1915.31865008
_cell_formula_units_Z   2
loop_
 _symmetry_equiv_pos_site_id
 _symmetry_equiv_pos_as_xyz
  1  'x, y, z'
loop_
 _atom_site_label
 _atom_site_fract_x
 _atom_site_fract_y
 _atom_site_fract_z
 _atom_site_charge
 Cu 0.45276 0.71066 0.41822   1.005488
 Cu 0.10587 0.13551 0.22443   0.952852
 Cu 0.58164 0.78934 0.08178   1.005508
 Cu 0.46581 0.36449 0.27557   0.952748
 Cu 0.54724 0.28934 0.58178   1.005488
 Cu 0.89413 0.86449 0.77557   0.952852
 Cu 0.41836 0.21066 0.91822   1.005508
 Cu 0.53419 0.63551 0.72443   0.952748
 Cu 0.76199 0.75 0.25   0.733711
 Cu 0.23801 0.25 0.75   0.733711
 H 0.9684 0.4046 0.3822   0.141885
 H 0.7432 0.4415 0.4423   0.104957
 H 0.9795 0.215 0.4508   0.13642
 H 0.0571 0.982 0.4224   0.103093
 H 0.1526 0.1395 0.3729   0.132737
 H 0.0362 0.3027 0.3085   0.100565
 H 0.7992 0.9348 0.45   0.403351
 H 0.7552 0.0954 0.1178   0.141397
 H 0.627 0.0585 0.0577   0.104977
 H 0.6453 0.285 0.0492   0.136345
 H 0.4615 0.518 0.0776   0.103237
 H 0.665 0.3605 0.1271   0.132755
 H 0.6474 0.1973 0.1915   0.100146
 H 0.184 0.5652 0.05   0.403289
 H 0.0316 0.5954 0.6178   0.141885
 H 0.2568 0.5585 0.5577   0.104956
 H 0.0205 0.785 0.5492   0.136417
 H 0.9429 0.018 0.5776   0.103093
 H 0.8474 0.8605 0.6271   0.132737
 H 0.9638 0.6973 0.6915   0.100565
 H 0.2008 0.0652 0.55   0.403349
 H 0.2448 0.9046 0.8822   0.141397
 H 0.373 0.9415 0.9423   0.104976
 H 0.3547 0.715 0.9508   0.136343
 H 0.5385 0.482 0.9224   0.103237
 H 0.335 0.6395 0.8729   0.132755
 H 0.3526 0.8027 0.8085   0.100146
 H 0.816 0.4348 0.95   0.403287
 C 0.8656 0.40191 0.37009   -0.157129
 C 0.76014 0.36539 0.41833   -0.177861
 C 0.8783 0.20283 0.44137   -0.134954
 C 0.965 0.06868 0.40492   -0.17716
 C 0.06592 0.11713 0.35883   -0.172683
 C 0.9511 0.27432 0.33148   -0.17088
 C 0.77411 0.56246 0.34412   0.73508
 C 0.57389 0.38007 0.41355   0.623827
 C 0.78698 0.16445 0.49079   0.661504
 C 0.85217 0.99962 0.38804   0.669096
 C 0.18186 0.97689 0.32719   0.69317
 C 0.81473 0.27787 0.29907   0.703314
 C 0.6376 0.09809 0.12991   -0.155498
 C 0.54386 0.13461 0.08167   -0.178812
 C 0.5225 0.29717 0.05863   -0.134478
 C 0.4386 0.43132 0.09508   -0.177611
 C 0.54188 0.38287 0.14117   -0.171657
 C 0.5569 0.22568 0.16852   -0.170954
 C 0.68069 0.93754 0.15588   0.733814
 C 0.36751 0.11993 0.08645   0.62343
 C 0.44222 0.33555 0.00921   0.661493
 C 0.23983 0.50038 0.11196   0.669187
 C 0.48594 0.52311 0.17281   0.692159
 C 0.39167 0.22213 0.20093   0.704322
 C 0.1344 0.59809 0.62991   -0.157129
 C 0.23986 0.63461 0.58167   -0.177861
 C 0.1217 0.79717 0.55863   -0.134953
 C 0.035 0.93132 0.59508   -0.17716
 C 0.93408 0.88287 0.64117   -0.172683
 C 0.0489 0.72568 0.66852   -0.17088
 C 0.22589 0.43754 0.65588   0.73508
 C 0.42611 0.61993 0.58645   0.623827
 C 0.21302 0.83555 0.50921   0.661504
 C 0.14783 0.00038 0.61196   0.669096
 C 0.81814 0.02311 0.67281   0.69317
 C 0.18527 0.72213 0.70093   0.703314
 C 0.3624 0.90191 0.87009   -0.155498
 C 0.45614 0.86539 0.91833   -0.178812
 C 0.4775 0.70283 0.94137   -0.134477
 C 0.5614 0.56868 0.90492   -0.177612
 C 0.45812 0.61713 0.85883   -0.171657
 C 0.4431 0.77432 0.83148   -0.170954
 C 0.31931 0.06246 0.84412   0.733814
 C 0.63249 0.88007 0.91355   0.62343
 C 0.55778 0.66445 0.99079   0.661493
 C 0.76017 0.49962 0.88804   0.669187
 C 0.51406 0.47689 0.82719   0.692159
 C 0.60833 0.77787 0.79907   0.704322
 O 0.83961 0.57798 0.3006   -0.54719
 O 0.65015 0.67573 0.36697   -0.614941
 O 0.445 0.51679 0.41061   -0.501657
 O 0.55089 0.25913 0.41589   -0.46741
 O 0.71426 0.27259 0.52089   -0.589181
 O 0.79344 0.02948 0.50084   -0.562549
 O 0.78845 0.91878 0.42192   -0.522092
 O 0.83686 0.00157 0.34431   -0.496233
 O 0.25111 0.84635 0.34983   -0.525516
 O 0.21844 0.99683 0.28009   -0.561964
 O 0.86655 0.20729 0.25901   -0.61058
 O 0.65262 0.3603 0.31246   -0.544052
 O 0.71819 0.92202 0.1994   -0.546885
 O 0.69285 0.82427 0.13303   -0.614357
 O 0.3724 0.98321 0.08939   -0.50125
 O 0.22591 0.24087 0.08411   -0.466993
 O 0.50774 0.22741 0.97911   -0.589248
 O 0.32376 0.47052 0.99916   -0.562706
 O 0.12915 0.58122 0.07808   -0.522047
 O 0.18274 0.49843 0.15569   -0.496641
 O 0.44729 0.65365 0.15017   -0.525556
 O 0.49536 0.50317 0.21991   -0.561419
 O 0.33285 0.29271 0.24099   -0.611125
 O 0.32538 0.1397 0.18754   -0.544579
 O 0.16039 0.42202 0.6994   -0.54719
 O 0.34985 0.32427 0.63303   -0.614941
 O 0.555 0.48321 0.58939   -0.501658
 O 0.44911 0.74087 0.58411   -0.46741
 O 0.28574 0.72741 0.47911   -0.589183
 O 0.20656 0.97052 0.49916   -0.562549
 O 0.21155 0.08122 0.57808   -0.522092
 O 0.16314 0.99843 0.65569   -0.496233
 O 0.74889 0.15365 0.65017   -0.525516
 O 0.78156 0.00317 0.71991   -0.561964
 O 0.13345 0.79271 0.74099   -0.61058
 O 0.34738 0.6397 0.68754   -0.544052
 O 0.28181 0.07798 0.8006   -0.546885
 O 0.30715 0.17573 0.86697   -0.614357
 O 0.6276 0.01679 0.91061   -0.501251
 O 0.77409 0.75913 0.91589   -0.466993
 O 0.49226 0.77259 0.02089   -0.58925
 O 0.67624 0.52948 0.000839999999997   -0.562706
 O 0.87085 0.41878 0.92192   -0.522046
 O 0.81726 0.50157 0.84431   -0.496641
 O 0.55271 0.34635 0.84983   -0.525556
 O 0.50464 0.49683 0.78009   -0.561419
 O 0.66715 0.70729 0.75901   -0.611125
 O 0.67462 0.8603 0.81246   -0.544579
