{'_ref': 'TBD', '_srcid': 'CAKYAQ_clean', 'submitters': [{'name': 'Dalar Nazarian Jeff Camp and David Sholl', 'email': 'dalar@gatech.edu jcamp6@gatech.edu'}], '_method': 'VASP DFT with PBE;DDEC'}
data_Co3H8C12O13
_symmetry_space_group_name_H-M   'P 1'
_cell_length_a   11.81510000
_cell_length_b   13.83619954
_cell_length_c   16.32160000
_cell_angle_alpha   90.00000000
_cell_angle_beta   90.00000000
_cell_angle_gamma   112.76599992
_symmetry_Int_Tables_number   1
_chemical_formula_structural   Co3H8C12O13
_chemical_formula_sum   'Co12 H32 C48 O52'
_cell_volume   2460.32029116
_cell_formula_units_Z   4
loop_
 _symmetry_equiv_pos_site_id
 _symmetry_equiv_pos_as_xyz
  1  'x, y, z'
loop_
 _atom_site_label
 _atom_site_fract_x
 _atom_site_fract_y
 _atom_site_fract_z
 _atom_site_charge
 Co 0.10152 0.09914 0.95411   1.027851
 Co 0.75967 0.21783 0.04652   0.996606
 Co 0.05133 0.12669 0.63109   1.184154
 Co 0.39848 0.40086 0.45411   1.027852
 Co 0.74033 0.28217 0.54652   0.996604
 Co 0.44867 0.37331 0.13109   1.184154
 Co 0.89848 0.90086 0.04589   1.027851
 Co 0.24033 0.78217 0.95348   0.996601
 Co 0.94867 0.87331 0.36891   1.184155
 Co 0.60152 0.59914 0.54589   1.027852
 Co 0.25967 0.71783 0.45348   0.9966
 Co 0.55133 0.62669 0.86891   1.184155
 H 0.6664 0.1054 0.7956   0.118465
 H 0.8338 0.1284 0.7257   0.111771
 H 0.677 0.9803 0.7022   0.113968
 H 0.6185 0.8224 0.7559   0.131207
 H 0.549 0.9375 0.8091   0.130206
 H 0.6036 0.0389 0.9202   0.137964
 H 0.9794 0.9154 0.8961   0.446888
 H 0.0619 0.9016 0.9484   0.444048
 H 0.8336 0.3946 0.2956   0.118465
 H 0.6662 0.3716 0.2257   0.111771
 H 0.823 0.5197 0.2022   0.113968
 H 0.8815 0.6776 0.2559   0.131207
 H 0.951 0.5625 0.3091   0.130206
 H 0.8964 0.4611 0.4202   0.137964
 H 0.5206 0.5846 0.3961   0.446888
 H 0.4381 0.5984 0.4484   0.444048
 H 0.3336 0.8946 0.2044   0.118465
 H 0.1662 0.8716 0.2743   0.111771
 H 0.323 0.0197 0.2978   0.113968
 H 0.3815 0.1776 0.2441   0.131207
 H 0.451 0.0625 0.1909   0.130206
 H 0.3964 0.9611 0.0798   0.137964
 H 0.0206 0.0846 0.1039   0.446888
 H 0.9381 0.0984 0.0516   0.444048
 H 0.1664 0.6054 0.7044   0.118465
 H 0.3338 0.6284 0.7743   0.111771
 H 0.177 0.4803 0.7978   0.113968
 H 0.1185 0.3224 0.7441   0.131207
 H 0.049 0.4375 0.6909   0.130206
 H 0.1036 0.5389 0.5798   0.137964
 H 0.4794 0.4154 0.6039   0.446888
 H 0.5619 0.4016 0.5516   0.444048
 C 0.9423 0.0951 0.8064   0.745316
 C 0.8078 0.936 0.6614   0.726633
 C 0.7645 0.8333 0.8273   0.734894
 C 0.4977 0.831 0.8965   0.724713
 C 0.7443 0.0071 0.9666   0.7548
 C 0.7927 0.2177 0.8599   0.691459
 C 0.7337 0.105 0.8306   -0.143022
 C 0.8174 0.0775 0.7704   -0.19254
 C 0.7442 0.969 0.7304   -0.143535
 C 0.6765 0.8785 0.7895   -0.191889
 C 0.5976 0.9155 0.848   -0.156574
 C 0.6671 0.0188 0.8957   -0.189016
 C 0.5577 0.4049 0.3064   0.745316
 C 0.6922 0.564 0.1614   0.726633
 C 0.7355 0.6667 0.3273   0.734894
 C 0.0023 0.669 0.3965   0.724713
 C 0.7557 0.4929 0.4666   0.7548
 C 0.7073 0.2823 0.3599   0.691459
 C 0.7663 0.395 0.3306   -0.143022
 C 0.6826 0.4225 0.2704   -0.19254
 C 0.7558 0.531 0.2304   -0.143535
 C 0.8235 0.6215 0.2895   -0.191889
 C 0.9024 0.5845 0.348   -0.156574
 C 0.8329 0.4812 0.3957   -0.189016
 C 0.0577 0.9049 0.1936   0.745316
 C 0.1922 0.064 0.3386   0.726633
 C 0.2355 0.1667 0.1727   0.734894
 C 0.5023 0.169 0.1035   0.724713
 C 0.2557 0.9929 0.0334   0.7548
 C 0.2073 0.7823 0.1401   0.691459
 C 0.2663 0.895 0.1694   -0.143022
 C 0.1826 0.9225 0.2296   -0.19254
 C 0.2558 0.031 0.2696   -0.143535
 C 0.3235 0.1215 0.2105   -0.191889
 C 0.4024 0.0845 0.152   -0.156574
 C 0.3329 0.9812 0.1043   -0.189015
 C 0.4423 0.5951 0.6936   0.745316
 C 0.3078 0.436 0.8386   0.726633
 C 0.2645 0.3333 0.6727   0.734894
 C 0.9977 0.331 0.6035   0.724713
 C 0.2443 0.5071 0.5334   0.7548
 C 0.2927 0.7177 0.6401   0.691459
 C 0.2337 0.605 0.6694   -0.143022
 C 0.3174 0.5775 0.7296   -0.19254
 C 0.2442 0.469 0.7696   -0.143535
 C 0.1765 0.3785 0.7105   -0.191889
 C 0.0976 0.4155 0.652   -0.156574
 C 0.1671 0.5188 0.6043   -0.189015
 O 0.8831 0.0043 0.6155   -0.658367
 O 0.7734 0.8412 0.6469   -0.57204
 O 0.8764 0.8846 0.8173   -0.574846
 O 0.7224 0.7443 0.8612   -0.667089
 O 0.4739 0.7363 0.885   -0.631437
 O 0.431 0.863 0.941   -0.581291
 O 0.7666 0.9257 0.9715   -0.581963
 O 0.7785 0.0785 0.0214   -0.666299
 O 0.7568 0.245 0.9256   -0.623413
 O 0.8676 0.2824 0.8125   -0.566976
 O 0.9581 0.1054 0.8821   -0.610563
 O 0.0296 0.1055 0.7569   -0.63039
 O 0.0176 0.9366 0.9409   -0.839694
 O 0.6169 0.4957 0.1155   -0.658367
 O 0.7266 0.6588 0.1469   -0.57204
 O 0.6236 0.6154 0.3173   -0.574845
 O 0.7776 0.7557 0.3612   -0.667089
 O 0.0261 0.7637 0.385   -0.631437
 O 0.069 0.637 0.441   -0.581291
 O 0.7334 0.5743 0.4715   -0.581963
 O 0.7215 0.4215 0.5214   -0.666299
 O 0.7432 0.255 0.4256   -0.623413
 O 0.6324 0.2176 0.3125   -0.566976
 O 0.5419 0.3946 0.3821   -0.610563
 O 0.4704 0.3945 0.2569   -0.63039
 O 0.4824 0.5634 0.4409   -0.839694
 O 0.1169 0.9957 0.3845   -0.658367
 O 0.2266 0.1588 0.3531   -0.57204
 O 0.1236 0.1154 0.1827   -0.574846
 O 0.2776 0.2557 0.1388   -0.667089
 O 0.5261 0.2637 0.115   -0.631437
 O 0.569 0.137 0.059   -0.581291
 O 0.2334 0.0743 0.0285   -0.581963
 O 0.2215 0.9215 0.9786   -0.666299
 O 0.2432 0.755 0.0744   -0.623412
 O 0.1324 0.7176 0.1875   -0.566976
 O 0.0419 0.8946 0.1179   -0.610563
 O 0.9704 0.8945 0.2431   -0.63039
 O 0.9824 0.0634 0.0591   -0.839694
 O 0.3831 0.5043 0.8845   -0.658367
 O 0.2734 0.3412 0.8531   -0.57204
 O 0.3764 0.3846 0.6827   -0.574845
 O 0.2224 0.2443 0.6388   -0.667089
 O 0.9739 0.2363 0.615   -0.631437
 O 0.931 0.363 0.559   -0.581291
 O 0.2666 0.4257 0.5285   -0.581963
 O 0.2785 0.5785 0.4786   -0.666298
 O 0.2568 0.745 0.5744   -0.623412
 O 0.3676 0.7824 0.6875   -0.566976
 O 0.4581 0.6054 0.6179   -0.610563
 O 0.5296 0.6055 0.7431   -0.63039
 O 0.5176 0.4366 0.5591   -0.839694
