{'_ref': 'TBD', '_srcid': 'CAKYAQ_clean', 'submitters': [{'name': 'Dalar Nazarian Jeff Camp and David Sholl', 'email': 'dalar@gatech.edu jcamp6@gatech.edu'}], '_method': 'VASP DFT with PBE;DDEC'}
data_CdH8C10N5Cl
_symmetry_space_group_name_H-M   'P 1'
_cell_length_a   13.90169976
_cell_length_b   13.90170037
_cell_length_c   13.90170000
_cell_angle_alpha   108.01699863
_cell_angle_beta   108.01699945
_cell_angle_gamma   108.01700032
_symmetry_Int_Tables_number   1
_chemical_formula_structural   CdH8C10N5Cl
_chemical_formula_sum   'Cd6 H48 C60 N30 Cl6'
_cell_volume   2172.37068662
_cell_formula_units_Z   6
loop_
 _symmetry_equiv_pos_site_id
 _symmetry_equiv_pos_as_xyz
  1  'x, y, z'
loop_
 _atom_site_label
 _atom_site_fract_x
 _atom_site_fract_y
 _atom_site_fract_z
 _atom_site_charge
 Cd 0.96475 0.47813 0.61612   0.934516
 Cd 0.61612 0.96475 0.47813   0.934516
 Cd 0.47813 0.61612 0.96475   0.934516
 Cd 0.03525 0.52187 0.38388   0.934516
 Cd 0.38388 0.03525 0.52187   0.934515
 Cd 0.52187 0.38388 0.03525   0.934516
 H 0.7114 0.4693 0.4142   0.073014
 H 0.574 0.1436 0.2596   0.106273
 H 0.7252 0.1082 0.385   0.118238
 H 0.8428 0.2035 0.4178   0.119898
 H 0.0231 0.4556 0.8692   0.110939
 H 0.0051 0.3988 0.0049   0.096248
 H 0.877 0.219 0.954   0.097725
 H 0.7602 0.0913 0.7668   0.11409
 H 0.4142 0.7114 0.4693   0.073012
 H 0.2596 0.574 0.1436   0.106275
 H 0.385 0.7252 0.1082   0.118238
 H 0.4178 0.8428 0.2035   0.119898
 H 0.8692 0.0231 0.4556   0.110939
 H 0.0049 0.0051 0.3988   0.096248
 H 0.954 0.877 0.219   0.097726
 H 0.7668 0.7602 0.0913   0.11409
 H 0.4693 0.4142 0.7114   0.073014
 H 0.1436 0.2596 0.574   0.106275
 H 0.1082 0.385 0.7252   0.118238
 H 0.2035 0.4178 0.8428   0.119898
 H 0.4556 0.8692 0.0231   0.110939
 H 0.3988 0.0049 0.0051   0.09625
 H 0.219 0.954 0.877   0.097725
 H 0.0913 0.7668 0.7602   0.11409
 H 0.2886 0.5307 0.5858   0.073014
 H 0.426 0.8564 0.7404   0.106273
 H 0.2748 0.8918 0.615   0.118238
 H 0.1572 0.7965 0.5822   0.119898
 H 0.9769 0.5444 0.1308   0.11094
 H 0.9949 0.6012 0.9951   0.096249
 H 0.123 0.781 0.046   0.097726
 H 0.2398 0.9087 0.2332   0.114091
 H 0.5858 0.2886 0.5307   0.073012
 H 0.7404 0.426 0.8564   0.106275
 H 0.615 0.2748 0.8918   0.118238
 H 0.5822 0.1572 0.7965   0.119898
 H 0.1308 0.9769 0.5444   0.11094
 H 0.9951 0.9949 0.6012   0.096249
 H 0.046 0.123 0.781   0.097727
 H 0.2332 0.2398 0.9087   0.114091
 H 0.5307 0.5858 0.2886   0.073014
 H 0.8564 0.7404 0.426   0.106275
 H 0.8918 0.615 0.2748   0.118238
 H 0.7965 0.5822 0.1572   0.119898
 H 0.5444 0.1308 0.9769   0.11094
 H 0.6012 0.9951 0.9949   0.096251
 H 0.781 0.046 0.123   0.097726
 H 0.9087 0.2332 0.2398   0.114091
 C 0.6993 0.395 0.3953   0.314521
 C 0.6233 0.2189 0.3105   0.173881
 C 0.7765 0.1882 0.4313   -0.195305
 C 0.8114 0.2154 0.5537   0.431941
 C 0.9007 0.3057 0.735   0.167049
 C 0.9707 0.3831 0.8486   -0.188923
 C 0.9597 0.3486 0.9286   -0.091618
 C 0.8819 0.2401 0.8977   -0.092221
 C 0.8125 0.1636 0.7868   -0.169997
 C 0.8228 0.1974 0.7052   0.165837
 C 0.3953 0.6993 0.395   0.31452
 C 0.3105 0.6233 0.2189   0.17388
 C 0.4313 0.7765 0.1882   -0.195305
 C 0.5537 0.8114 0.2154   0.431941
 C 0.735 0.9007 0.3057   0.167049
 C 0.8486 0.9707 0.3831   -0.188923
 C 0.9286 0.9597 0.3486   -0.091617
 C 0.8977 0.8819 0.2401   -0.092222
 C 0.7868 0.8125 0.1636   -0.169997
 C 0.7052 0.8228 0.1974   0.165837
 C 0.395 0.3953 0.6993   0.31452
 C 0.2189 0.3105 0.6233   0.17388
 C 0.1882 0.4313 0.7765   -0.195304
 C 0.2154 0.5537 0.8114   0.431939
 C 0.3057 0.735 0.9007   0.167053
 C 0.3831 0.8486 0.9707   -0.188921
 C 0.3486 0.9286 0.9597   -0.091619
 C 0.2401 0.8977 0.8819   -0.092221
 C 0.1636 0.7868 0.8125   -0.169997
 C 0.1974 0.7052 0.8228   0.165837
 C 0.3007 0.605 0.6047   0.31452
 C 0.3767 0.7811 0.6895   0.173881
 C 0.2235 0.8118 0.5687   -0.195305
 C 0.1886 0.7846 0.4463   0.43194
 C 0.0993 0.6943 0.265   0.167049
 C 0.0293 0.6169 0.1514   -0.188923
 C 0.0403 0.6514 0.0714   -0.091618
 C 0.1181 0.7599 0.1023   -0.09222
 C 0.1875 0.8364 0.2132   -0.169997
 C 0.1772 0.8026 0.2948   0.165837
 C 0.6047 0.3007 0.605   0.314519
 C 0.6895 0.3767 0.7811   0.173881
 C 0.5687 0.2235 0.8118   -0.195305
 C 0.4463 0.1886 0.7846   0.431941
 C 0.265 0.0993 0.6943   0.167049
 C 0.1514 0.0293 0.6169   -0.188923
 C 0.0714 0.0403 0.6514   -0.091618
 C 0.1023 0.1181 0.7599   -0.092221
 C 0.2132 0.1875 0.8364   -0.169998
 C 0.2948 0.1772 0.8026   0.165837
 C 0.605 0.6047 0.3007   0.314519
 C 0.7811 0.6895 0.3767   0.173881
 C 0.8118 0.5687 0.2235   -0.195303
 C 0.7846 0.4463 0.1886   0.431939
 C 0.6943 0.265 0.0993   0.167053
 C 0.6169 0.1514 0.0293   -0.188921
 C 0.6514 0.0714 0.0403   -0.091619
 C 0.7599 0.1023 0.1181   -0.09222
 C 0.8364 0.2132 0.1875   -0.169997
 C 0.8026 0.2948 0.1772   0.165837
 N 0.6056 0.3067 0.3064   -0.485553
 N 0.7728 0.369 0.4537   -0.392499
 N 0.721 0.254 0.3973   0.178031
 N 0.8929 0.3168 0.6372   -0.52873
 N 0.7651 0.1395 0.5868   -0.528222
 N 0.3064 0.6056 0.3067   -0.485553
 N 0.4537 0.7728 0.369   -0.392498
 N 0.3973 0.721 0.254   0.178031
 N 0.6372 0.8929 0.3168   -0.52873
 N 0.5868 0.7651 0.1395   -0.528222
 N 0.3067 0.3064 0.6056   -0.485553
 N 0.369 0.4537 0.7728   -0.392499
 N 0.254 0.3973 0.721   0.178031
 N 0.3168 0.6372 0.8929   -0.528733
 N 0.1395 0.5868 0.7651   -0.528222
 N 0.3944 0.6933 0.6936   -0.485553
 N 0.2272 0.631 0.5463   -0.392499
 N 0.279 0.746 0.6027   0.178031
 N 0.1071 0.6832 0.3628   -0.528729
 N 0.2349 0.8605 0.4132   -0.528222
 N 0.6936 0.3944 0.6933   -0.485553
 N 0.5463 0.2272 0.631   -0.392498
 N 0.6027 0.279 0.746   0.178031
 N 0.3628 0.1071 0.6832   -0.52873
 N 0.4132 0.2349 0.8605   -0.528222
 N 0.6933 0.6936 0.3944   -0.485553
 N 0.631 0.5463 0.2272   -0.392499
 N 0.746 0.6027 0.279   0.178031
 N 0.6832 0.3628 0.1071   -0.528733
 N 0.8605 0.4132 0.2349   -0.528222
 Cl 0.96415 0.61849 0.52538   -0.529136
 Cl 0.52538 0.96415 0.61849   -0.529136
 Cl 0.61849 0.52538 0.96415   -0.529136
 Cl 0.03585 0.38151 0.47462   -0.529136
 Cl 0.47462 0.03585 0.38151   -0.529136
 Cl 0.38151 0.47462 0.03585   -0.529136
