{'_ref': 'TBD', '_srcid': 'CAKYAQ_clean', 'submitters': [{'name': 'Dalar Nazarian Jeff Camp and David Sholl', 'email': 'dalar@gatech.edu jcamp6@gatech.edu'}], '_method': 'VASP DFT with PBE;DDEC'}
data_Sm2CoH32C56(N2O5)4
_symmetry_space_group_name_H-M   'P 1'
_cell_length_a   10.12200014
_cell_length_b   10.80600020
_cell_length_c   13.72300000
_cell_angle_alpha   79.15300024
_cell_angle_beta   78.79600182
_cell_angle_gamma   86.39200034
_symmetry_Int_Tables_number   1
_chemical_formula_structural   Sm2CoH32C56(N2O5)4
_chemical_formula_sum   'Sm2 Co1 H32 C56 N8 O20'
_cell_volume   1445.5437606
_cell_formula_units_Z   1
loop_
 _symmetry_equiv_pos_site_id
 _symmetry_equiv_pos_as_xyz
  1  'x, y, z'
loop_
 _atom_site_label
 _atom_site_fract_x
 _atom_site_fract_y
 _atom_site_fract_z
 _atom_site_charge
 Sm 0.31899 0.92252 0.29687   2.204968
 Sm 0.68101 0.07748 0.70313   2.204964
 Co 0.0 0.5 0.5   0.957228
 H 0.3274 0.6697 0.153   0.12501
 H 0.3465 0.3287 0.0766   0.122554
 H 0.2815 0.3604 0.3681   0.105597
 H 0.3457 0.7738 0.8509   0.123291
 H 0.3534 0.8813 0.6899   0.070533
 H 0.3653 0.5717 0.5851   0.077417
 H 0.3569 0.4543 0.7427   0.124583
 H 0.8234 0.9138 0.2815   0.110681
 H 0.0894 0.8388 0.0408   0.121471
 H 0.6952 0.8534 0.0363   0.136713
 H 0.0171 0.8293 0.7159   0.13199
 H 0.0328 0.7492 0.5713   0.082669
 H 0.014 0.4071 0.723   0.074227
 H 0.0084 0.4772 0.8708   0.129641
 H 0.3795 0.6459 0.9822   0.317448
 H 0.8814 0.8428 0.8807   0.297318
 H 0.6726 0.3303 0.847   0.12501
 H 0.6535 0.6713 0.9234   0.122553
 H 0.7185 0.6396 0.6319   0.105598
 H 0.6543 0.2262 0.1491   0.123291
 H 0.6466 0.1187 0.3101   0.070531
 H 0.6347 0.4283 0.4149   0.077414
 H 0.6431 0.5457 0.2573   0.124583
 H 0.1766 0.0862 0.7185   0.11068
 H 0.9106 0.1612 0.9592   0.12147
 H 0.3048 0.1466 0.9637   0.136712
 H 0.9829 0.1707 0.2841   0.13199
 H 0.9672 0.2508 0.4287   0.08267
 H 0.986 0.5929 0.277   0.074227
 H 0.9916 0.5228 0.1292   0.129641
 H 0.6205 0.3541 0.0178   0.317447
 H 0.1186 0.1572 0.1193   0.297318
 C 0.2984 0.5277 0.2732   -0.175364
 C 0.3217 0.5826 0.1714   -0.106619
 C 0.3364 0.5096 0.0975   0.211602
 C 0.3348 0.3792 0.1257   -0.14462
 C 0.3159 0.3249 0.2263   -0.109854
 C 0.2962 0.3981 0.3004   -0.028146
 C 0.3127 0.1849 0.2528   0.661236
 C 0.2674 0.6059 0.3537   0.800342
 C 0.3339 0.5178 0.9181   0.507966
 C 0.3479 0.5997 0.8161   -0.031988
 C 0.3486 0.7301 0.7982   -0.188227
 C 0.3538 0.7937 0.7009   0.209023
 C 0.3606 0.613 0.6394   0.191713
 C 0.3554 0.5418 0.7341   -0.161124
 C 0.7375 0.8858 0.1681   -0.118993
 C 0.8414 0.8961 0.2164   -0.022615
 C 0.9741 0.88 0.1683   -0.140078
 C 0.000799999999998 0.8504 0.0727   -0.109759
 C 0.8958 0.8378 0.0242   0.192486
 C 0.7654 0.8581 0.0702   -0.07633
 C 0.5929 0.9019 0.215   0.673837
 C 0.0911 0.8906 0.2176   0.663972
 C 0.0059 0.705 0.9078   0.50423
 C 0.0095 0.6617 0.8097   0.013043
 C 0.017 0.7426 0.7189   -0.16002
 C 0.0246 0.6936 0.6327   0.187774
 C 0.015 0.4934 0.7214   0.171085
 C 0.0106 0.5344 0.8108   -0.114543
 C 0.7016 0.4723 0.7268   -0.175364
 C 0.6783 0.4174 0.8286   -0.106618
 C 0.6636 0.4904 0.9025   0.211603
 C 0.6652 0.6208 0.8743   -0.144618
 C 0.6841 0.6751 0.7737   -0.109854
 C 0.7038 0.6019 0.6996   -0.028147
 C 0.6873 0.8151 0.7472   0.661236
 C 0.7326 0.3941 0.6463   0.800342
 C 0.6661 0.4822 0.0819   0.507966
 C 0.6521 0.4003 0.1839   -0.031988
 C 0.6514 0.2699 0.2018   -0.188227
 C 0.6462 0.2063 0.2991   0.209023
 C 0.6394 0.387 0.3606   0.191714
 C 0.6446 0.4582 0.2659   -0.161124
 C 0.2625 0.1142 0.8319   -0.118994
 C 0.1586 0.1039 0.7836   -0.022614
 C 0.0259 0.12 0.8317   -0.140078
 C 0.9992 0.1496 0.9273   -0.109758
 C 0.1042 0.1622 0.9758   0.192487
 C 0.2346 0.1419 0.9298   -0.07633
 C 0.4071 0.0981 0.785   0.673837
 C 0.9089 0.1094 0.7824   0.663972
 C 0.9941 0.295 0.0922   0.50423
 C 0.9905 0.3383 0.1903   0.013044
 C 0.983 0.2574 0.2811   -0.160019
 C 0.9754 0.3064 0.3673   0.187775
 C 0.985 0.5066 0.2786   0.171086
 C 0.9894 0.4656 0.1892   -0.114541
 N 0.3537 0.5692 0.996   -0.40101
 N 0.3593 0.7384 0.6218   -0.434414
 N 0.9211 0.8018 0.9274   -0.396636
 N 0.0207 0.5704 0.6321   -0.409868
 N 0.6463 0.4308 0.004   -0.40101
 N 0.6407 0.2616 0.3782   -0.434414
 N 0.0789 0.1982 0.0726   -0.396636
 N 0.9793 0.4296 0.3679   -0.409868
 O 0.1929 0.5644 0.4351   -0.615119
 O 0.3201 0.7126 0.3356   -0.779421
 O 0.3293 0.129 0.3388   -0.716368
 O 0.2939 0.1228 0.1895   -0.668317
 O 0.3079 0.4083 0.926   -0.468723
 O 0.559 0.9011 0.3093   -0.712527
 O 0.5037 0.916 0.1625   -0.660416
 O 0.0732 0.9052 0.3092   -0.743747
 O 0.2082 0.8854 0.1674   -0.648765
 O 0.0754 0.6487 0.9669   -0.479422
 O 0.8071 0.4356 0.5649   -0.615119
 O 0.6799 0.2874 0.6644   -0.779421
 O 0.6707 0.871 0.6612   -0.716368
 O 0.7061 0.8772 0.8105   -0.668317
 O 0.6921 0.5917 0.074   -0.468723
 O 0.441 0.0989 0.6907   -0.712527
 O 0.4963 0.084 0.8375   -0.660416
 O 0.9268 0.0948 0.6908   -0.743747
 O 0.7918 0.1146 0.8326   -0.648765
 O 0.9246 0.3513 0.0331   -0.479422
