{'_ref': 'TBD', '_srcid': 'CAKYAQ_clean', 'submitters': [{'name': 'Dalar Nazarian Jeff Camp and David Sholl', 'email': 'dalar@gatech.edu jcamp6@gatech.edu'}], '_method': 'VASP DFT with PBE;DDEC'}
data_BaTiC4O9
_symmetry_space_group_name_H-M   'P 1'
_cell_length_a   13.36699995
_cell_length_b   13.85200000
_cell_length_c   14.02300000
_cell_angle_alpha   90.00000000
_cell_angle_beta   91.61000167
_cell_angle_gamma   90.00000000
_symmetry_Int_Tables_number   1
_chemical_formula_structural   BaTiC4O9
_chemical_formula_sum   'Ba8 Ti8 C32 O72'
_cell_volume   2595.46920944
_cell_formula_units_Z   8
loop_
 _symmetry_equiv_pos_site_id
 _symmetry_equiv_pos_as_xyz
  1  'x, y, z'
loop_
 _atom_site_label
 _atom_site_fract_x
 _atom_site_fract_y
 _atom_site_fract_z
 _atom_site_charge
 Ba 0.03349 0.06976 0.23622   1.760366
 Ba 0.96536 0.3378 0.0445   1.604144
 Ba 0.46651 0.56976 0.26378   1.760367
 Ba 0.53464 0.8378 0.4555   1.604146
 Ba 0.96651 0.93024 0.76378   1.760378
 Ba 0.03464 0.6622 0.9555   1.604149
 Ba 0.53349 0.43024 0.73622   1.760378
 Ba 0.46536 0.1622 0.5445   1.604151
 Ti 0.8727 0.3772 0.4723   2.160107
 Ti 0.582 0.1111 0.1171   2.154994
 Ti 0.6273 0.8772 0.0277   2.16011
 Ti 0.918 0.6111 0.3829   2.154997
 Ti 0.1273 0.6228 0.5277   2.160116
 Ti 0.418 0.8889 0.8829   2.155003
 Ti 0.3727 0.1228 0.9723   2.160119
 Ti 0.082 0.3889 0.6171   2.155006
 C 0.9518 0.32 0.2946   0.555249
 C 0.8448 0.35 0.2677   0.553864
 C 0.7934 0.152 0.108   0.599013
 C 0.74 0.209 0.0285   0.561786
 C 0.0328 0.4245 0.8112   0.58392
 C 0.04 0.317 0.8027   0.553011
 C 0.227 0.273 0.0094   0.572839
 C 0.1832 0.176 0.0458   0.585932
 C 0.5482 0.82 0.2054   0.555249
 C 0.6552 0.85 0.2323   0.553864
 C 0.7066 0.652 0.392   0.599013
 C 0.76 0.709 0.4715   0.561786
 C 0.4672 0.9245 0.6888   0.58392
 C 0.46 0.817 0.6973   0.553011
 C 0.273 0.773 0.4906   0.572839
 C 0.3168 0.676 0.4542   0.585932
 C 0.0482 0.68 0.7054   0.555249
 C 0.1552 0.65 0.7323   0.553865
 C 0.2066 0.848 0.892   0.599013
 C 0.26 0.791 0.9715   0.561787
 C 0.9672 0.5755 0.1888   0.58392
 C 0.96 0.683 0.1973   0.553011
 C 0.773 0.727 0.9906   0.572839
 C 0.8168 0.824 0.9542   0.585932
 C 0.4518 0.18 0.7946   0.555249
 C 0.3448 0.15 0.7677   0.553865
 C 0.2934 0.348 0.608   0.599013
 C 0.24 0.291 0.5285   0.561787
 C 0.5328 0.0755 0.3112   0.58392
 C 0.54 0.183 0.3027   0.553011
 C 0.727 0.227 0.5094   0.572839
 C 0.6832 0.324 0.5458   0.585932
 O 0.4566 0.1391 0.0738   -1.042251
 O 0.8939 0.5044 0.4518   -1.037021
 O 0.7942 0.373 0.3399   -0.635215
 O 0.9745 0.3255 0.3842   -0.616472
 O 0.8153 0.3507 0.1837   -0.585093
 O 0.0099 0.2887 0.2355   -0.668324
 O 0.8854 0.1521 0.1141   -0.70341
 O 0.6432 0.2043 0.0299   -0.615068
 O 0.7878 0.2576 0.9713   -0.598999
 O 0.733 0.1093 0.1628   -0.637822
 O 0.0127 0.4664 0.8867   -0.636313
 O 0.0511 0.4698 0.7333   -0.619502
 O 0.0157 0.2626 0.8699   -0.626327
 O 0.0685 0.2858 0.7231   -0.629865
 O 0.3146 0.2657 0.9799   -0.664354
 O 0.1758 0.346 0.0165   -0.605135
 O 0.2415 0.1025 0.0343   -0.66357
 O 0.0991 0.1726 0.0779   -0.660508
 O 0.0434 0.6391 0.4262   -1.042251
 O 0.6061 0.0044 0.0482   -1.037021
 O 0.7058 0.873 0.1601   -0.635215
 O 0.5255 0.8255 0.1158   -0.616472
 O 0.6847 0.8507 0.3163   -0.585093
 O 0.4901 0.7887 0.2645   -0.668324
 O 0.6146 0.6521 0.3859   -0.70341
 O 0.8568 0.7043 0.4701   -0.615068
 O 0.7122 0.7576 0.5287   -0.598999
 O 0.767 0.6093 0.3372   -0.637822
 O 0.4873 0.9664 0.6133   -0.636313
 O 0.4489 0.9698 0.7667   -0.619502
 O 0.4843 0.7626 0.6301   -0.626327
 O 0.4315 0.7858 0.7769   -0.629865
 O 0.1854 0.7657 0.5201   -0.664354
 O 0.3242 0.846 0.4835   -0.605135
 O 0.2585 0.6025 0.4657   -0.66357
 O 0.4009 0.6726 0.4221   -0.660508
 O 0.5434 0.8609 0.9262   -1.04225
 O 0.1061 0.4956 0.5482   -1.037023
 O 0.2058 0.627 0.6601   -0.635215
 O 0.0255 0.6745 0.6158   -0.616472
 O 0.1847 0.6493 0.8163   -0.585092
 O 0.9901 0.7113 0.7645   -0.668325
 O 0.1146 0.8479 0.8859   -0.70341
 O 0.3568 0.7957 0.9701   -0.615067
 O 0.2122 0.7424 0.0287   -0.598999
 O 0.267 0.8907 0.8372   -0.637822
 O 0.9873 0.5336 0.1133   -0.636313
 O 0.9489 0.5302 0.2667   -0.619501
 O 0.9843 0.7374 0.1301   -0.626327
 O 0.9315 0.7142 0.2769   -0.629863
 O 0.6854 0.7343 0.0201   -0.664354
 O 0.8242 0.654 0.9835   -0.605135
 O 0.7585 0.8975 0.9657   -0.663569
 O 0.9009 0.8274 0.9221   -0.660508
 O 0.9566 0.3609 0.5738   -1.04225
 O 0.3939 0.9956 0.9518   -1.037023
 O 0.2942 0.127 0.8399   -0.635215
 O 0.4745 0.1745 0.8842   -0.616472
 O 0.3153 0.1493 0.6837   -0.585092
 O 0.5099 0.2113 0.7355   -0.668325
 O 0.3854 0.3479 0.6141   -0.70341
 O 0.1432 0.2957 0.5299   -0.615067
 O 0.2878 0.2424 0.4713   -0.598999
 O 0.233 0.3907 0.6628   -0.637822
 O 0.5127 0.0336 0.3867   -0.636313
 O 0.5511 0.0302 0.2333   -0.619501
 O 0.5157 0.2374 0.3699   -0.626327
 O 0.5685 0.2142 0.2231   -0.629863
 O 0.8146 0.2343 0.4799   -0.664354
 O 0.6758 0.154 0.5165   -0.605135
 O 0.7415 0.3975 0.5343   -0.663569
 O 0.5991 0.3274 0.5779   -0.660508
