{'_ref': 'TBD', '_srcid': 'CAKYAQ_clean', 'submitters': [{'name': 'Dalar Nazarian Jeff Camp and David Sholl', 'email': 'dalar@gatech.edu jcamp6@gatech.edu'}], '_method': 'VASP DFT with PBE;DDEC'}
data_SmH9C18(NO2)3
_symmetry_space_group_name_H-M   'P 1'
_cell_length_a   11.35100000
_cell_length_b   17.01840000
_cell_length_c   27.09510042
_cell_angle_alpha   98.21799948
_cell_angle_beta   90.00000000
_cell_angle_gamma   90.00000000
_symmetry_Int_Tables_number   1
_chemical_formula_structural   SmH9C18(NO2)3
_chemical_formula_sum   'Sm8 H72 C144 N24 O48'
_cell_volume   5180.37207503
_cell_formula_units_Z   8
loop_
 _symmetry_equiv_pos_site_id
 _symmetry_equiv_pos_as_xyz
  1  'x, y, z'
loop_
 _atom_site_label
 _atom_site_fract_x
 _atom_site_fract_y
 _atom_site_fract_z
 _atom_site_charge
 Sm 0.12356 0.69044 0.75181   2.315761
 Sm 0.68661 0.53017 0.24912   2.328717
 Sm 0.62356 0.80956 0.24819   2.31576
 Sm 0.18661 0.96983 0.75088   2.328716
 Sm 0.87644 0.30956 0.24819   2.315761
 Sm 0.31339 0.46983 0.75088   2.328717
 Sm 0.37644 0.19044 0.75181   2.31576
 Sm 0.81339 0.03017 0.24912   2.328716
 H 0.9302 0.6199 0.8943   0.094892
 H 0.1706 0.4448 0.8786   0.101193
 H 0.1319 0.4207 0.9592   0.118564
 H 0.0864 0.3882 0.5157   0.108986
 H 0.1381 0.3894 0.5986   0.091475
 H 0.0044 0.6093 0.6318   0.072132
 H 0.464 0.5567 0.8582   0.069402
 H 0.3445 0.7789 0.8979   0.098264
 H 0.4306 0.7821 0.9759   0.112942
 H 0.497 0.7754 0.0385   0.109072
 H 0.532 0.7643 0.1216   0.081721
 H 0.6277 0.5366 0.0825   0.078524
 H 0.4371 0.7719 0.4867   0.112094
 H 0.4754 0.7825 0.4038   0.094598
 H 0.6381 0.5706 0.3874   0.07897
 H 0.5141 0.5439 0.6181   0.0906
 H 0.3085 0.7376 0.6268   0.095602
 H 0.3654 0.7556 0.547   0.11581
 H 0.4302 0.8801 0.1057   0.094892
 H 0.6706 0.0552 0.1214   0.101193
 H 0.6319 0.0793 0.0408   0.118564
 H 0.5864 0.1118 0.4843   0.108986
 H 0.6381 0.1106 0.4014   0.091475
 H 0.5044 0.8907 0.3682   0.072132
 H 0.964 0.9433 0.1418   0.069402
 H 0.8445 0.7211 0.1021   0.098264
 H 0.9306 0.7179 0.0241   0.112942
 H 0.997 0.7246 0.9615   0.109072
 H 0.032 0.7357 0.8784   0.081721
 H 0.1277 0.9634 0.9175   0.078524
 H 0.9371 0.7281 0.5133   0.112094
 H 0.9754 0.7175 0.5962   0.094598
 H 0.1381 0.9294 0.6126   0.07897
 H 0.0141 0.9561 0.3819   0.0906
 H 0.8085 0.7624 0.3732   0.095602
 H 0.8654 0.7444 0.453   0.11581
 H 0.0698 0.3801 0.1057   0.094892
 H 0.8294 0.5552 0.1214   0.101193
 H 0.8681 0.5793 0.0408   0.118564
 H 0.9136 0.6118 0.4843   0.108987
 H 0.8619 0.6106 0.4014   0.091475
 H 0.9956 0.3907 0.3682   0.072132
 H 0.536 0.4433 0.1418   0.069402
 H 0.6555 0.2211 0.1021   0.098264
 H 0.5694 0.2179 0.0241   0.112942
 H 0.503 0.2246 0.9615   0.109072
 H 0.468 0.2357 0.8784   0.081721
 H 0.3723 0.4634 0.9175   0.078525
 H 0.5629 0.2281 0.5133   0.112094
 H 0.5246 0.2175 0.5962   0.094598
 H 0.3619 0.4294 0.6126   0.07897
 H 0.4859 0.4561 0.3819   0.0906
 H 0.6915 0.2624 0.3732   0.095602
 H 0.6346 0.2444 0.453   0.11581
 H 0.5698 0.1199 0.8943   0.094892
 H 0.3294 0.9448 0.8786   0.101193
 H 0.3681 0.9207 0.9592   0.118564
 H 0.4136 0.8882 0.5157   0.108987
 H 0.3619 0.8894 0.5986   0.091475
 H 0.4956 0.1093 0.6318   0.072132
 H 0.036 0.0567 0.8582   0.069402
 H 0.1555 0.2789 0.8979   0.098264
 H 0.0694 0.2821 0.9759   0.112942
 H 0.003 0.2754 0.0385   0.109072
 H 0.968 0.2643 0.1216   0.081721
 H 0.8723 0.0366 0.0825   0.078525
 H 0.0629 0.2719 0.4867   0.112094
 H 0.0246 0.2825 0.4038   0.094598
 H 0.8619 0.0706 0.3874   0.07897
 H 0.9859 0.0439 0.6181   0.0906
 H 0.1915 0.2376 0.6268   0.095602
 H 0.1346 0.2556 0.547   0.11581
 C 0.0079 0.5059 0.975   0.22372
 C 0.9706 0.5799 0.9073   0.19903
 C 0.0542 0.5347 0.87844   -0.241761
 C 0.1147 0.475 0.8979   0.041205
 C 0.0915 0.4606 0.9462   -0.164561
 C 0.0831 0.5517 0.8277   0.836983
 C 0.0145 0.498 0.524   0.22933
 C 0.07 0.4325 0.5389   -0.145187
 C 0.101 0.4332 0.5886   0.038379
 C 0.0764 0.4995 0.6234   -0.241622
 C 0.0209 0.565 0.6085   0.211595
 C 0.1202 0.5041 0.6756   0.829819
 C 0.4989 0.6712 0.96368   0.219004
 C 0.4573 0.6018 0.8817   0.201527
 C 0.3957 0.6675 0.8703   -0.248547
 C 0.3857 0.735 0.9056   0.02681
 C 0.4373 0.7369 0.9523   -0.170507
 C 0.3258 0.6646 0.8236   0.837838
 C 0.5414 0.6627 0.01073   0.233982
 C 0.5232 0.7276 0.0473   -0.194446
 C 0.5442 0.7209 0.0971   0.047779
 C 0.5833 0.6493 0.11028   -0.261416
 C 0.6015 0.5844 0.0737   0.222053
 C 0.5921 0.642 0.1643   0.869219
 C 0.5147 0.6649 0.48671   0.229095
 C 0.4774 0.7315 0.4668   -0.182743
 C 0.5003 0.7379 0.4171   0.029554
 C 0.5605 0.6776 0.38738   -0.230751
 C 0.5978 0.611 0.4073   0.194163
 C 0.5803 0.6885 0.3344   0.831256
 C 0.4738 0.6606 0.5347   0.21957
 C 0.4843 0.5863 0.6038   0.204365
 C 0.4056 0.6389 0.6304   -0.246295
 C 0.3611 0.7024 0.6091   0.040872
 C 0.3952 0.7132 0.5612   -0.194119
 C 0.357 0.6203 0.6783   0.825851
 C 0.5079 0.9941 0.025   0.22372
 C 0.4706 0.9201 0.0927   0.19903
 C 0.5542 0.9653 0.12156   -0.241761
 C 0.6147 0.025 0.1021   0.041205
 C 0.5915 0.0394 0.0538   -0.164561
 C 0.5831 0.9483 0.1723   0.836983
 C 0.5145 0.002 0.476   0.22933
 C 0.57 0.0675 0.4611   -0.145187
 C 0.601 0.0668 0.4114   0.038379
 C 0.5764 0.000500000000002 0.3766   -0.241622
 C 0.5209 0.935 0.3915   0.211595
 C 0.6202 0.9959 0.3244   0.829819
 C 0.9989 0.8288 0.03632   0.219004
 C 0.9573 0.8982 0.1183   0.201527
 C 0.8957 0.8325 0.1297   -0.248547
 C 0.8857 0.765 0.0944   0.02681
 C 0.9373 0.7631 0.0477   -0.170507
 C 0.8258 0.8354 0.1764   0.837838
 C 0.0414 0.8373 0.98927   0.233982
 C 0.0232 0.7724 0.9527   -0.194446
 C 0.0442 0.7791 0.9029   0.047779
 C 0.0833 0.8507 0.88972   -0.261417
 C 0.1015 0.9156 0.9263   0.222053
 C 0.0921 0.858 0.8357   0.869219
 C 0.0147 0.8351 0.51329   0.229095
 C 0.9774 0.7685 0.5332   -0.182743
 C 0.000300000000003 0.7621 0.5829   0.029554
 C 0.0605 0.8224 0.61262   -0.230751
 C 0.0978 0.889 0.5927   0.194163
 C 0.0803 0.8115 0.6656   0.831256
 C 0.9738 0.8394 0.4653   0.21957
 C 0.9843 0.9137 0.3962   0.204365
 C 0.9056 0.8611 0.3696   -0.246294
 C 0.8611 0.7976 0.3909   0.040872
 C 0.8952 0.7868 0.4388   -0.194119
 C 0.857 0.8797 0.3217   0.82585
 C 0.9921 0.4941 0.025   0.223721
 C 0.0294 0.4201 0.0927   0.19903
 C 0.9458 0.4653 0.12156   -0.241761
 C 0.8853 0.525 0.1021   0.041205
 C 0.9085 0.5394 0.0538   -0.164561
 C 0.9169 0.4483 0.1723   0.836983
 C 0.9855 0.502 0.476   0.229343
 C 0.93 0.5675 0.4611   -0.145189
 C 0.899 0.5668 0.4114   0.03838
 C 0.9236 0.5005 0.3766   -0.241622
 C 0.9791 0.435 0.3915   0.211595
 C 0.8798 0.4959 0.3244   0.829819
 C 0.5011 0.3288 0.03632   0.219004
 C 0.5427 0.3982 0.1183   0.201527
 C 0.6043 0.3325 0.1297   -0.248547
 C 0.6143 0.265 0.0944   0.02681
 C 0.5627 0.2631 0.0477   -0.170507
 C 0.6742 0.3354 0.1764   0.837838
 C 0.4586 0.3373 0.98927   0.233982
 C 0.4768 0.2724 0.9527   -0.194446
 C 0.4558 0.2791 0.9029   0.047779
 C 0.4167 0.3507 0.88972   -0.261416
 C 0.3985 0.4156 0.9263   0.222053
 C 0.4079 0.358 0.8357   0.869219
 C 0.4853 0.3351 0.51329   0.229095
 C 0.5226 0.2685 0.5332   -0.182743
 C 0.4997 0.2621 0.5829   0.029554
 C 0.4395 0.3224 0.61262   -0.230751
 C 0.4022 0.389 0.5927   0.194163
 C 0.4197 0.3115 0.6656   0.831256
 C 0.5262 0.3394 0.4653   0.219569
 C 0.5157 0.4137 0.3962   0.204365
 C 0.5944 0.3611 0.3696   -0.246295
 C 0.6389 0.2976 0.3909   0.040872
 C 0.6048 0.2868 0.4388   -0.194119
 C 0.643 0.3797 0.3217   0.825851
 C 0.4921 0.0059 0.975   0.223721
 C 0.5294 0.0799 0.9073   0.19903
 C 0.4458 0.0347 0.87844   -0.24176
 C 0.3853 0.975 0.8979   0.041205
 C 0.4085 0.9606 0.9462   -0.164561
 C 0.4169 0.0517 0.8277   0.836983
 C 0.4855 0.998 0.524   0.229343
 C 0.43 0.9325 0.5389   -0.145189
 C 0.399 0.9332 0.5886   0.03838
 C 0.4236 0.9995 0.6234   -0.241622
 C 0.4791 0.065 0.6085   0.211595
 C 0.3798 0.0041 0.6756   0.829819
 C 0.0011 0.1712 0.96368   0.219004
 C 0.0427 0.1018 0.8817   0.201527
 C 0.1043 0.1675 0.8703   -0.248547
 C 0.1143 0.235 0.9056   0.02681
 C 0.0627 0.2369 0.9523   -0.170507
 C 0.1742 0.1646 0.8236   0.837838
 C 0.9586 0.1627 0.01073   0.233982
 C 0.9768 0.2276 0.0473   -0.194446
 C 0.9558 0.2209 0.0971   0.047779
 C 0.9167 0.1493 0.11028   -0.261416
 C 0.8985 0.0844 0.0737   0.222053
 C 0.9079 0.142 0.1643   0.869219
 C 0.9853 0.1649 0.48671   0.229095
 C 0.0226 0.2315 0.4668   -0.182743
 C 0.9997 0.2379 0.4171   0.029554
 C 0.9395 0.1776 0.38738   -0.230751
 C 0.9022 0.111 0.4073   0.194163
 C 0.9197 0.1885 0.3344   0.831257
 C 0.0262 0.1606 0.5347   0.21957
 C 0.0157 0.0863 0.6038   0.204365
 C 0.0944 0.1389 0.6304   -0.246294
 C 0.1389 0.2024 0.6091   0.040872
 C 0.1048 0.2132 0.5612   -0.194119
 C 0.143 0.1203 0.6783   0.82585
 N 0.9474 0.5655 0.9555   -0.41143
 N 0.9899 0.5643 0.5588   -0.4063
 N 0.5089 0.6037 0.9284   -0.383943
 N 0.5805 0.5911 0.0239   -0.373851
 N 0.5749 0.6046 0.457   -0.372552
 N 0.5184 0.5971 0.556   -0.381797
 N 0.4474 0.9345 0.0445   -0.41143
 N 0.4899 0.9357 0.4412   -0.4063
 N 0.0089 0.8963 0.0716   -0.383943
 N 0.0805 0.9089 0.9761   -0.373851
 N 0.0749 0.8954 0.543   -0.372552
 N 0.0184 0.9029 0.444   -0.381797
 N 0.0526 0.4345 0.0445   -0.41143
 N 0.0101 0.4357 0.4412   -0.406301
 N 0.4911 0.3963 0.0716   -0.383943
 N 0.4195 0.4089 0.9761   -0.373851
 N 0.4251 0.3954 0.543   -0.372552
 N 0.4816 0.4029 0.444   -0.381797
 N 0.5526 0.0655 0.9555   -0.41143
 N 0.5101 0.0643 0.5588   -0.406301
 N 0.9911 0.1037 0.9284   -0.383943
 N 0.9195 0.0911 0.0239   -0.373851
 N 0.9251 0.1046 0.457   -0.372552
 N 0.9816 0.0971 0.556   -0.381797
 O 0.1004 0.5682 0.703   -0.843245
 O 0.2742 0.723 0.8152   -0.696664
 O 0.3013 0.6759 0.7031   -0.758672
 O 0.0543 0.6161 0.8166   -0.750303
 O 0.5613 0.6984 0.195   -0.832386
 O 0.5891 0.754 0.3221   -0.739487
 O 0.6382 0.58 0.1746   -0.788239
 O 0.3294 0.6011 0.7966   -0.853735
 O 0.1411 0.4976 0.8008   -0.789114
 O 0.1715 0.4445 0.6866   -0.715099
 O 0.377 0.5535 0.689   -0.749851
 O 0.5758 0.6209 0.3048   -0.843702
 O 0.6004 0.9318 0.297   -0.843245
 O 0.7742 0.777 0.1848   -0.696664
 O 0.8013 0.8241 0.2969   -0.758672
 O 0.5543 0.8839 0.1834   -0.750303
 O 0.0613 0.8016 0.805   -0.832386
 O 0.0891 0.746 0.6779   -0.739487
 O 0.1382 0.92 0.8254   -0.788239
 O 0.8294 0.8989 0.2034   -0.853735
 O 0.6411 0.0024 0.1992   -0.789114
 O 0.6715 0.0555 0.3134   -0.715099
 O 0.877 0.9465 0.311   -0.749851
 O 0.0758 0.8791 0.6952   -0.843702
 O 0.8996 0.4318 0.297   -0.843245
 O 0.7258 0.277 0.1848   -0.696664
 O 0.6987 0.3241 0.2969   -0.758672
 O 0.9457 0.3839 0.1834   -0.750303
 O 0.4387 0.3016 0.805   -0.832386
 O 0.4109 0.246 0.6779   -0.739487
 O 0.3618 0.42 0.8254   -0.788239
 O 0.6706 0.3989 0.2034   -0.853735
 O 0.8589 0.5024 0.1992   -0.789114
 O 0.8285 0.5555 0.3134   -0.715099
 O 0.623 0.4465 0.311   -0.749851
 O 0.4242 0.3791 0.6952   -0.843702
 O 0.3996 0.0682 0.703   -0.843245
 O 0.2258 0.223 0.8152   -0.696664
 O 0.1987 0.1759 0.7031   -0.758672
 O 0.4457 0.1161 0.8166   -0.750303
 O 0.9387 0.1984 0.195   -0.832386
 O 0.9109 0.254 0.3221   -0.739487
 O 0.8618 0.08 0.1746   -0.788239
 O 0.1706 0.1011 0.7966   -0.853735
 O 0.3589 0.9976 0.8008   -0.789114
 O 0.3285 0.9445 0.6866   -0.715099
 O 0.123 0.0535 0.689   -0.749851
 O 0.9242 0.1209 0.3048   -0.843702
