{'_ref': 'TBD', '_srcid': 'CAKYAQ_clean', 'submitters': [{'name': 'Dalar Nazarian Jeff Camp and David Sholl', 'email': 'dalar@gatech.edu jcamp6@gatech.edu'}], '_method': 'VASP DFT with PBE;DDEC'}
data_CuH11C9(NO)3
_symmetry_space_group_name_H-M   'P 1'
_cell_length_a   9.69720000
_cell_length_b   10.79570000
_cell_length_c   26.96710000
_cell_angle_alpha   90.00000000
_cell_angle_beta   90.00000000
_cell_angle_gamma   90.00000000
_symmetry_Int_Tables_number   1
_chemical_formula_structural   CuH11C9(NO)3
_chemical_formula_sum   'Cu8 H88 C72 N24 O24'
_cell_volume   2823.13343784
_cell_formula_units_Z   8
loop_
 _symmetry_equiv_pos_site_id
 _symmetry_equiv_pos_as_xyz
  1  'x, y, z'
loop_
 _atom_site_label
 _atom_site_fract_x
 _atom_site_fract_y
 _atom_site_fract_z
 _atom_site_charge
 Cu 0.31405 0.61493 0.33212   0.788163
 Cu 0.18675 0.3898 0.16609   0.811423
 Cu 0.31405 0.38507 0.66788   0.788163
 Cu 0.18675 0.6102 0.83391   0.811423
 Cu 0.68595 0.88507 0.83212   0.788163
 Cu 0.81325 0.1102 0.66609   0.811423
 Cu 0.68595 0.11493 0.16788   0.788163
 Cu 0.81325 0.8898 0.33391   0.811423
 H 0.0878 0.714 0.3986   0.258732
 H 0.4177 0.2798 0.1007   0.263051
 H 0.4829 0.7237 0.1907   0.11753
 H 0.459 0.8142 0.2369   0.122731
 H 0.6122 0.7845 0.2184   0.113742
 H 0.5861 0.5752 0.2433   0.087969
 H 0.9695 0.3174 0.2629   0.091758
 H 0.903 0.519 0.2864   0.13055
 H 0.8646 0.5514 0.2302   0.114101
 H 0.7761 0.4509 0.26   0.109979
 H 0.4548 0.4663 0.3995   0.125633
 H 0.4797 0.4772 0.458   0.119899
 H 0.3915 0.3644 0.4361   0.12594
 H 0.9252 0.7282 0.464   0.137718
 H 0.9086 0.6014 0.4941   0.127921
 H 0.9995 0.7118 0.5165   0.133499
 H 0.5899 0.2728 0.0372   0.134525
 H 0.5263 0.2979 0.9834   0.128308
 H 0.6087 0.4054 0.0115   0.127696
 H 0.0514 0.5354 0.0977   0.125438
 H 0.1272 0.6404 0.0659   0.133565
 H 0.0354 0.5376 0.0386   0.119684
 H 0.0878 0.286 0.6014   0.258732
 H 0.4177 0.7202 0.8993   0.263051
 H 0.4829 0.2763 0.8093   0.117531
 H 0.459 0.1858 0.7631   0.122731
 H 0.6122 0.2155 0.7816   0.113742
 H 0.5861 0.4248 0.7567   0.087969
 H 0.9695 0.6826 0.7371   0.091758
 H 0.903 0.481 0.7136   0.13055
 H 0.8646 0.4486 0.7698   0.114101
 H 0.7761 0.5491 0.74   0.109979
 H 0.4548 0.5337 0.6005   0.125633
 H 0.4797 0.5228 0.542   0.119899
 H 0.3915 0.6356 0.5639   0.12594
 H 0.9252 0.2718 0.536   0.137718
 H 0.9086 0.3986 0.5059   0.127919
 H 0.9995 0.2882 0.4835   0.133498
 H 0.5899 0.7272 0.9628   0.134525
 H 0.5263 0.7021 0.0166   0.128308
 H 0.6087 0.5946 0.9885   0.127696
 H 0.0514 0.4646 0.9023   0.125438
 H 0.1272 0.3596 0.9341   0.133565
 H 0.0354 0.4624 0.9614   0.119684
 H 0.9122 0.786 0.8986   0.258732
 H 0.5823 0.2202 0.6007   0.263052
 H 0.5171 0.7763 0.6907   0.117533
 H 0.541 0.6858 0.7369   0.122733
 H 0.3878 0.7155 0.7184   0.113743
 H 0.4139 0.9248 0.7433   0.08797
 H 0.0305 0.1826 0.7629   0.09176
 H 0.097 0.981 0.7864   0.13055
 H 0.1354 0.9486 0.7302   0.114102
 H 0.2239 0.0491 0.76   0.109981
 H 0.5452 0.0337 0.8995   0.125634
 H 0.5203 0.0228 0.958   0.119899
 H 0.6085 0.1356 0.9361   0.12594
 H 0.0748 0.7718 0.964   0.137718
 H 0.0914 0.8986 0.9941   0.12792
 H 0.000500000000002 0.7882 0.0165   0.133496
 H 0.4101 0.2272 0.5372   0.134525
 H 0.4737 0.2021 0.4834   0.128307
 H 0.3913 0.0946 0.5115   0.127696
 H 0.9486 0.9646 0.5977   0.125438
 H 0.8728 0.8596 0.5659   0.133562
 H 0.9646 0.9624 0.5386   0.119683
 H 0.9122 0.214 0.1014   0.258732
 H 0.5823 0.7798 0.3993   0.263052
 H 0.5171 0.2237 0.3093   0.117533
 H 0.541 0.3142 0.2631   0.122733
 H 0.3878 0.2845 0.2816   0.113743
 H 0.4139 0.0752 0.2567   0.08797
 H 0.0305 0.8174 0.2371   0.09176
 H 0.097 0.019 0.2136   0.13055
 H 0.1354 0.0514 0.2698   0.114102
 H 0.2239 0.9509 0.24   0.109981
 H 0.5452 0.9663 0.1005   0.125634
 H 0.5203 0.9772 0.042   0.119899
 H 0.6085 0.8644 0.0639   0.12594
 H 0.0748 0.2282 0.036   0.137718
 H 0.0914 0.1014 0.0059   0.127919
 H 0.000500000000002 0.2118 0.9835   0.133495
 H 0.4101 0.7728 0.4628   0.134525
 H 0.4737 0.7979 0.5166   0.128308
 H 0.3913 0.9054 0.4885   0.127697
 H 0.9486 0.0354 0.4023   0.125438
 H 0.8728 0.1404 0.4341   0.133562
 H 0.9646 0.0376 0.4614   0.119684
 C 0.5194 0.7505 0.22285   -0.342377
 C 0.5255 0.641 0.25768   0.089586
 C 0.5835 0.6826 0.30823   0.637953
 C 0.3166 0.527 0.23703   0.406601
 C 0.1811 0.4869 0.25987   0.416474
 C 0.965 0.3837 0.23709   0.090626
 C 0.8686 0.4852 0.255   -0.3463
 C 0.9139 0.3267 0.18863   0.636125
 C 0.4139 0.4524 0.4322   -0.362787
 C 0.2853 0.5277 0.43708   0.230403
 C 0.1935 0.5352 0.47644   -0.179193
 C 0.0947 0.6194 0.46104   0.159037
 C 0.9718 0.6694 0.486   -0.368136
 C 0.5462 0.3348 0.0158   -0.356815
 C 0.4147 0.3781 0.03913   0.159223
 C 0.3197 0.4643 0.0233   -0.173284
 C 0.2222 0.4722 0.06151   0.226862
 C 0.0984 0.5534 0.0663   -0.367278
 C 0.5194 0.2495 0.77715   -0.342377
 C 0.5255 0.359 0.74232   0.089586
 C 0.5835 0.3174 0.69177   0.637953
 C 0.3166 0.473 0.76297   0.406601
 C 0.1811 0.5131 0.74013   0.416474
 C 0.965 0.6163 0.76291   0.090626
 C 0.8686 0.5148 0.745   -0.3463
 C 0.9139 0.6733 0.81137   0.636125
 C 0.4139 0.5476 0.5678   -0.362787
 C 0.2853 0.4723 0.56292   0.230403
 C 0.1935 0.4648 0.52356   -0.179198
 C 0.0947 0.3806 0.53896   0.159037
 C 0.9718 0.3306 0.514   -0.368136
 C 0.5462 0.6652 0.9842   -0.356816
 C 0.4147 0.6219 0.96087   0.159224
 C 0.3197 0.5357 0.9767   -0.173288
 C 0.2222 0.5278 0.93849   0.226862
 C 0.0984 0.4466 0.9337   -0.367278
 C 0.4806 0.7495 0.72285   -0.342379
 C 0.4745 0.859 0.75768   0.089586
 C 0.4165 0.8174 0.80823   0.637953
 C 0.6834 0.973 0.73703   0.406601
 C 0.8189 0.0131 0.75987   0.416474
 C 0.035 0.1163 0.73709   0.090625
 C 0.1314 0.0148 0.755   -0.346301
 C 0.0861 0.1733 0.68863   0.636125
 C 0.5861 0.0476 0.9322   -0.362787
 C 0.7147 0.9723 0.93708   0.230403
 C 0.8065 0.9648 0.97644   -0.179193
 C 0.9053 0.8806 0.96104   0.159037
 C 0.0282 0.8306 0.986   -0.368135
 C 0.4538 0.1652 0.5158   -0.356815
 C 0.5853 0.1219 0.53913   0.159223
 C 0.6803 0.0357 0.5233   -0.173284
 C 0.7778 0.0278 0.56151   0.226861
 C 0.9016 0.9466 0.5663   -0.367276
 C 0.4806 0.2505 0.27715   -0.342379
 C 0.4745 0.141 0.24232   0.089586
 C 0.4165 0.1826 0.19177   0.637953
 C 0.6834 0.027 0.26297   0.406601
 C 0.8189 0.9869 0.24013   0.416474
 C 0.035 0.8837 0.26291   0.090625
 C 0.1314 0.9852 0.245   -0.346301
 C 0.0861 0.8267 0.31137   0.636125
 C 0.5861 0.9524 0.0678   -0.362787
 C 0.7147 0.0277 0.06292   0.230404
 C 0.8065 0.0352 0.02356   -0.179198
 C 0.9053 0.1194 0.03896   0.159037
 C 0.0282 0.1694 0.014   -0.368134
 C 0.4538 0.8348 0.4842   -0.356816
 C 0.5853 0.8781 0.46087   0.159224
 C 0.6803 0.9643 0.4767   -0.173288
 C 0.7778 0.9722 0.43849   0.226862
 C 0.9016 0.0534 0.4337   -0.367277
 N 0.3907 0.5901 0.26792   -0.490437
 N 0.1032 0.4296 0.22803   -0.501124
 N 0.2478 0.6035 0.40102   -0.32762
 N 0.1332 0.6584 0.41609   -0.031324
 N 0.3735 0.3366 0.08349   -0.044148
 N 0.2552 0.3926 0.09877   -0.335488
 N 0.3907 0.4099 0.73208   -0.490437
 N 0.1032 0.5704 0.77197   -0.501124
 N 0.2478 0.3965 0.59898   -0.32762
 N 0.1332 0.3416 0.58391   -0.031324
 N 0.3735 0.6634 0.91651   -0.044148
 N 0.2552 0.6074 0.90123   -0.335488
 N 0.6093 0.9099 0.76792   -0.490437
 N 0.8968 0.0704 0.72803   -0.501124
 N 0.7522 0.8965 0.90102   -0.32762
 N 0.8668 0.8416 0.91609   -0.031324
 N 0.6265 0.1634 0.58349   -0.044148
 N 0.7448 0.1074 0.59877   -0.335488
 N 0.6093 0.0901 0.23208   -0.490437
 N 0.8968 0.9296 0.27197   -0.501124
 N 0.7522 0.1035 0.09898   -0.32762
 N 0.8668 0.1584 0.08391   -0.031324
 N 0.6265 0.8366 0.41651   -0.044148
 N 0.7448 0.8926 0.40123   -0.335488
 O 0.5018 0.6829 0.34531   -0.586333
 O 0.157 0.513 0.30488   -0.504076
 O 0.3428 0.4968 0.19227   -0.507048
 O 0.0019 0.3176 0.15277   -0.597163
 O 0.7922 0.296 0.1849   -0.585887
 O 0.7054 0.7167 0.31043   -0.595626
 O 0.5018 0.3171 0.65469   -0.586333
 O 0.157 0.487 0.69512   -0.504076
 O 0.3428 0.5032 0.80773   -0.507048
 O 0.0019 0.6824 0.84723   -0.597163
 O 0.7922 0.704 0.8151   -0.585887
 O 0.7054 0.2833 0.68957   -0.595626
 O 0.4982 0.8171 0.84531   -0.586333
 O 0.843 0.987 0.80488   -0.504076
 O 0.6572 0.0032 0.69227   -0.507048
 O 0.9981 0.1824 0.65277   -0.597163
 O 0.2078 0.204 0.6849   -0.585887
 O 0.2946 0.7833 0.81043   -0.595626
 O 0.4982 0.1829 0.15469   -0.586333
 O 0.843 0.013 0.19512   -0.504076
 O 0.6572 0.9968 0.30773   -0.507048
 O 0.9981 0.8176 0.34723   -0.597163
 O 0.2078 0.796 0.3151   -0.585887
 O 0.2946 0.2167 0.18957   -0.595626
