{'_ref': 'TBD', '_srcid': 'CAKYAQ_clean', 'submitters': [{'name': 'Dalar Nazarian Jeff Camp and David Sholl', 'email': 'dalar@gatech.edu jcamp6@gatech.edu'}], '_method': 'VASP DFT with PBE;DDEC'}
data_ZnH8C7N6
_symmetry_space_group_name_H-M   'P 1'
_cell_length_a   10.66499996
_cell_length_b   12.41950000
_cell_length_c   17.14160000
_cell_angle_alpha   90.00000000
_cell_angle_beta   95.38000091
_cell_angle_gamma   90.00000000
_symmetry_Int_Tables_number   1
_chemical_formula_structural   ZnH8C7N6
_chemical_formula_sum   'Zn8 H64 C56 N48'
_cell_volume   2260.47092656
_cell_formula_units_Z   8
loop_
 _symmetry_equiv_pos_site_id
 _symmetry_equiv_pos_as_xyz
  1  'x, y, z'
loop_
 _atom_site_label
 _atom_site_fract_x
 _atom_site_fract_y
 _atom_site_fract_z
 _atom_site_charge
 Zn 0.27401 0.26479 0.39881   0.803007
 Zn 0.79362 0.25658 0.54374   0.802984
 Zn 0.22599 0.76479 0.10119   0.803007
 Zn 0.70638 0.75658 0.95626   0.802984
 Zn 0.72599 0.73521 0.60119   0.803007
 Zn 0.20638 0.74342 0.45626   0.802984
 Zn 0.77401 0.23521 0.89881   0.803007
 Zn 0.29362 0.24342 0.04374   0.802984
 H 0.9335 0.3618 0.7861   0.141509
 H 0.9901 0.318 0.7111   0.150765
 H 0.885 0.4067 0.7032   0.152418
 H 0.5214 0.0585 0.643   0.167291
 H 0.6404 0.019 0.6043   0.145033
 H 0.532 0.3163 0.3382   0.130228
 H 0.6394 0.3627 0.3975   0.149083
 H 0.6624 0.2575 0.3504   0.161958
 H 0.9833 0.0076 0.3294   0.153781
 H 0.0689 0.0941 0.294   0.134227
 H 0.1282 0.0107 0.3554   0.136649
 H 0.0467 0.3674 0.5732   0.149958
 H 0.1754 0.3059 0.5818   0.152347
 H 0.3815 0.6131 0.3626   0.142995
 H 0.4634 0.5145 0.3937   0.151271
 H 0.3597 0.4998 0.3234   0.141886
 H 0.5665 0.8618 0.7139   0.141509
 H 0.5099 0.818 0.7889   0.150765
 H 0.615 0.9067 0.7968   0.152418
 H 0.9786 0.5585 0.857   0.167291
 H 0.8596 0.519 0.8957   0.145033
 H 0.968 0.8163 0.1618   0.130228
 H 0.8606 0.8627 0.1025   0.149083
 H 0.8376 0.7575 0.1496   0.161958
 H 0.5167 0.5076 0.1706   0.153781
 H 0.4311 0.5941 0.206   0.134227
 H 0.3718 0.5107 0.1446   0.136649
 H 0.4533 0.8674 0.9268   0.149958
 H 0.3246 0.8059 0.9182   0.152347
 H 0.1185 0.1131 0.1374   0.142995
 H 0.0366 0.0145 0.1063   0.151272
 H 0.1403 0.9998 0.1766   0.141886
 H 0.0665 0.6382 0.2139   0.141509
 H 0.0099 0.682 0.2889   0.150764
 H 0.115 0.5933 0.2968   0.152418
 H 0.4786 0.9415 0.357   0.167291
 H 0.3596 0.981 0.3957   0.145033
 H 0.468 0.6837 0.6618   0.130228
 H 0.3606 0.6373 0.6025   0.149083
 H 0.3376 0.7425 0.6496   0.161956
 H 0.0167 0.9924 0.6706   0.153781
 H 0.9311 0.9059 0.706   0.134227
 H 0.8718 0.9893 0.6446   0.136649
 H 0.9533 0.6326 0.4268   0.149958
 H 0.8246 0.6941 0.4182   0.152347
 H 0.6185 0.3869 0.6374   0.142995
 H 0.5366 0.4855 0.6063   0.151272
 H 0.6403 0.5002 0.6766   0.141886
 H 0.4335 0.1382 0.2861   0.141509
 H 0.4901 0.182 0.2111   0.150764
 H 0.385 0.0933 0.2032   0.152418
 H 0.0214 0.4415 0.143   0.167291
 H 0.1404 0.481 0.1043   0.145033
 H 0.032 0.1837 0.8382   0.130228
 H 0.1394 0.1373 0.8975   0.149083
 H 0.1624 0.2425 0.8504   0.161956
 H 0.4833 0.4924 0.8294   0.153781
 H 0.5689 0.4059 0.794   0.134227
 H 0.6282 0.4893 0.8554   0.136648
 H 0.5467 0.1326 0.0732   0.149958
 H 0.6754 0.1941 0.0818   0.152347
 H 0.8815 0.8869 0.8626   0.142996
 H 0.9634 0.9855 0.8937   0.151272
 H 0.8597 0.0002 0.8234   0.141886
 C 0.915 0.3438 0.73177   -0.448928
 C 0.8166 0.25839 0.72381   0.442723
 C 0.6769 0.1482 0.67556   0.4307
 C 0.5942 0.0825 0.61789   -0.367907
 C 0.5495 0.14109 0.54404   0.441429
 C 0.5545 0.23226 0.43956   0.444649
 C 0.6012 0.298 0.37576   -0.452967
 C 0.0551 0.0537 0.3402   -0.437491
 C 0.0321 0.1288 0.4047   0.472537
 C 0.0571 0.25114 0.49164   0.433505
 C 0.1124 0.3376 0.54418   -0.385555
 C 0.1719 0.4272 0.50267   0.446861
 C 0.2863 0.5108 0.42829   0.442795
 C 0.3813 0.5369 0.37191   -0.448332
 C 0.585 0.8438 0.76823   -0.448928
 C 0.6834 0.75839 0.77619   0.442723
 C 0.8231 0.6482 0.82444   0.4307
 C 0.9058 0.5825 0.88211   -0.367907
 C 0.9505 0.64109 0.95596   0.441429
 C 0.9455 0.73226 0.06044   0.444649
 C 0.8988 0.798 0.12424   -0.452967
 C 0.4449 0.5537 0.1598   -0.437491
 C 0.4679 0.6288 0.0953   0.472537
 C 0.4429 0.75114 0.00836   0.433505
 C 0.3876 0.8376 0.95582   -0.385555
 C 0.3281 0.9272 0.99733   0.446861
 C 0.2137 0.0108 0.07171   0.442795
 C 0.1187 0.0369 0.12809   -0.448332
 C 0.085 0.6562 0.26823   -0.448928
 C 0.1834 0.74161 0.27619   0.442723
 C 0.3231 0.8518 0.32444   0.4307
 C 0.4058 0.9175 0.38211   -0.367906
 C 0.4505 0.85891 0.45596   0.441429
 C 0.4455 0.76774 0.56044   0.444649
 C 0.3988 0.702 0.62424   -0.452966
 C 0.9449 0.9463 0.6598   -0.437491
 C 0.9679 0.8712 0.5953   0.472537
 C 0.9429 0.74886 0.50836   0.433505
 C 0.8876 0.6624 0.45582   -0.385555
 C 0.8281 0.5728 0.49733   0.446861
 C 0.7137 0.4892 0.57171   0.442795
 C 0.6187 0.4631 0.62809   -0.448333
 C 0.415 0.1562 0.23177   -0.448928
 C 0.3166 0.24161 0.22381   0.442723
 C 0.1769 0.3518 0.17556   0.4307
 C 0.0942 0.4175 0.11789   -0.367906
 C 0.0495 0.35891 0.04404   0.441429
 C 0.0545 0.26774 0.93956   0.444649
 C 0.1012 0.202 0.87576   -0.452966
 C 0.5551 0.4463 0.8402   -0.437491
 C 0.5321 0.3712 0.9047   0.472537
 C 0.5571 0.24886 0.99164   0.433505
 C 0.6124 0.1624 0.04418   -0.385555
 C 0.6719 0.0728 0.00267   0.446861
 C 0.7863 0.9892 0.92829   0.442795
 C 0.8813 0.9631 0.87191   -0.448333
 N 0.1173 0.20276 0.43593   -0.532573
 N 0.9262 0.13005 0.43841   -0.392838
 N 0.94294 0.21021 0.49477   -0.299579
 N 0.25635 0.41061 0.44882   -0.547732
 N 0.15009 0.5295 0.51517   -0.364252
 N 0.2246 0.58344 0.46569   -0.331425
 N 0.43536 0.20254 0.44458   -0.340193
 N 0.43172 0.14333 0.51321   -0.372988
 N 0.62957 0.19467 0.50055   -0.5312
 N 0.76907 0.21642 0.65509   -0.567737
 N 0.669 0.14517 0.7513   -0.37292
 N 0.7605 0.21714 0.78249   -0.327973
 N 0.3827 0.70276 0.06407   -0.532573
 N 0.5738 0.63005 0.06159   -0.392838
 N 0.55706 0.71021 0.00523   -0.29958
 N 0.24365 0.91061 0.05118   -0.547732
 N 0.34991 0.0295 0.98483   -0.364252
 N 0.2754 0.08344 0.03431   -0.331425
 N 0.06464 0.70254 0.05542   -0.340193
 N 0.06828 0.64333 0.98679   -0.372988
 N 0.87043 0.69467 0.99945   -0.5312
 N 0.73093 0.71642 0.84491   -0.567737
 N 0.831 0.64517 0.7487   -0.37292
 N 0.7395 0.71714 0.71751   -0.327973
 N 0.8827 0.79724 0.56407   -0.532573
 N 0.0738 0.86995 0.56159   -0.392838
 N 0.05706 0.78979 0.50523   -0.29958
 N 0.74365 0.58939 0.55118   -0.547732
 N 0.84991 0.4705 0.48483   -0.364253
 N 0.7754 0.41656 0.53431   -0.331425
 N 0.56464 0.79746 0.55542   -0.340193
 N 0.56828 0.85667 0.48679   -0.372987
 N 0.37043 0.80533 0.49945   -0.5312
 N 0.23093 0.78358 0.34491   -0.567737
 N 0.331 0.85483 0.2487   -0.37292
 N 0.2395 0.78286 0.21751   -0.327973
 N 0.6173 0.29724 0.93593   -0.532573
 N 0.4262 0.36995 0.93841   -0.392838
 N 0.44294 0.28979 0.99477   -0.29958
 N 0.75635 0.08939 0.94882   -0.547732
 N 0.65009 0.9705 0.01517   -0.364252
 N 0.7246 0.91656 0.96569   -0.331425
 N 0.93536 0.29746 0.94458   -0.340193
 N 0.93172 0.35667 0.01321   -0.372987
 N 0.12957 0.30533 0.000549999999997   -0.5312
 N 0.26907 0.28358 0.15509   -0.567737
 N 0.169 0.35483 0.2513   -0.37292
 N 0.2605 0.28286 0.28249   -0.327973
