{'_ref': 'TBD', '_srcid': 'CAKYAQ_clean', 'submitters': [{'name': 'Dalar Nazarian Jeff Camp and David Sholl', 'email': 'dalar@gatech.edu jcamp6@gatech.edu'}], '_method': 'VASP DFT with PBE;DDEC'}
data_NdHC5(NO2)2
_symmetry_space_group_name_H-M   'P 1'
_cell_length_a   16.54410000
_cell_length_b   16.54409989
_cell_length_c   16.54409998
_cell_angle_alpha   104.52399979
_cell_angle_beta   104.52390091
_cell_angle_gamma   119.89640077
_symmetry_Int_Tables_number   1
_chemical_formula_structural   NdHC5(NO2)2
_chemical_formula_sum   'Nd16 H16 C80 N32 O64'
_cell_volume   3397.93790863
_cell_formula_units_Z   16
loop_
 _symmetry_equiv_pos_site_id
 _symmetry_equiv_pos_as_xyz
  1  'x, y, z'
loop_
 _atom_site_label
 _atom_site_fract_x
 _atom_site_fract_y
 _atom_site_fract_z
 _atom_site_charge
 Nd 0.38421 0.40079 0.63902   2.240951
 Nd 0.47055 0.85283 0.98184   2.270542
 Nd 0.76177 0.24519 0.86098   2.240961
 Nd 0.87099 0.98871 0.51816   2.270536
 Nd 0.24519 0.38421 0.98342   2.240954
 Nd 0.98871 0.47055 0.61772   2.270539
 Nd 0.40079 0.76177 0.51658   2.24096
 Nd 0.85283 0.87099 0.88228   2.270533
 Nd 0.61579 0.59921 0.36098   2.240946
 Nd 0.52945 0.14717 0.01816   2.270542
 Nd 0.23823 0.75481 0.13902   2.240955
 Nd 0.12901 0.01129 0.48184   2.270537
 Nd 0.75481 0.61579 0.01658   2.240949
 Nd 0.01129 0.52945 0.38228   2.270539
 Nd 0.59921 0.23823 0.48342   2.240954
 Nd 0.14717 0.12901 0.11772   2.270533
 H 0.4494 0.6785 0.7605   0.039946
 H 0.2381 0.5142 0.6155   0.03301
 H 0.918 0.1889 0.7395   0.039946
 H 0.8987 0.1226 0.8845   0.033001
 H 0.1889 0.4494 0.7709   0.03995
 H 0.1226 0.2381 0.7239   0.033001
 H 0.6785 0.918 0.7291   0.039944
 H 0.5142 0.8987 0.7761   0.033017
 H 0.5506 0.3215 0.2395   0.039946
 H 0.7619 0.4858 0.3845   0.03301
 H 0.082 0.8111 0.2605   0.039946
 H 0.1013 0.8774 0.1155   0.033001
 H 0.8111 0.5506 0.2291   0.03995
 H 0.8774 0.7619 0.2761   0.033001
 H 0.3215 0.082 0.2709   0.039944
 H 0.4858 0.1013 0.2239   0.033017
 C 0.4342 0.6429 0.7963   0.398062
 C 0.396 0.5243 0.8447   -0.038347
 C 0.407 0.6077 0.9081   0.027828
 C 0.4002 0.6322 0.9968   0.789835
 C 0.3695 0.4226 0.8385   0.775483
 C 0.1899 0.4443 0.5996   0.432867
 C 0.1223 0.2827 0.5674   0.002229
 C 0.0453 0.3 0.5575   0.040249
 C 0.9341 0.2325 0.5352   0.737639
 C 0.1261 0.1962 0.5527   0.753023
 C 0.8466 0.1379 0.7037   0.398067
 C 0.6796 0.0513 0.6553   -0.038355
 C 0.6996 0.9989 0.5919   0.027829
 C 0.6354 0.9034 0.5032   0.789831
 C 0.5841 0.031 0.6615   0.775494
 C 0.8447 0.0903 0.9004   0.432875
 C 0.7153 0.0549 0.9326   0.002224
 C 0.7425 0.9878 0.9425   0.040256
 C 0.6973 0.8989 0.9648   0.737644
 C 0.6435 0.0734 0.9473   0.753043
 C 0.1379 0.4342 0.7913   0.398059
 C 0.0513 0.396 0.8717   -0.038373
 C 0.9989 0.407 0.7993   0.027838
 C 0.9034 0.4002 0.768   0.789822
 C 0.031 0.3695 0.9469   0.775495
 C 0.0903 0.1899 0.7456   0.432877
 C 0.0549 0.1223 0.8396   0.002216
 C 0.9878 0.0453 0.7453   0.04024
 C 0.8989 0.9341 0.7016   0.737663
 C 0.0734 0.1261 0.9299   0.753054
 C 0.6429 0.8466 0.7087   0.398066
 C 0.5243 0.6796 0.6283   -0.038325
 C 0.6077 0.6996 0.7007   0.027802
 C 0.6322 0.6354 0.732   0.789857
 C 0.4226 0.5841 0.5531   0.775508
 C 0.4443 0.8447 0.7544   0.432866
 C 0.2827 0.7153 0.6604   0.002224
 C 0.3 0.7425 0.7547   0.040254
 C 0.2325 0.6973 0.7984   0.737631
 C 0.1962 0.6435 0.5701   0.75303
 C 0.5658 0.3571 0.2037   0.398062
 C 0.604 0.4757 0.1553   -0.038347
 C 0.593 0.3923 0.0919   0.027828
 C 0.5998 0.3678 0.0032   0.789835
 C 0.6305 0.5774 0.1615   0.775483
 C 0.8101 0.5557 0.4004   0.432867
 C 0.8777 0.7173 0.4326   0.002229
 C 0.9547 0.7 0.4425   0.040249
 C 0.0659 0.7675 0.4648   0.737639
 C 0.8739 0.8038 0.4473   0.753023
 C 0.1534 0.8621 0.2963   0.398067
 C 0.3204 0.9487 0.3447   -0.038355
 C 0.3004 0.0011 0.4081   0.027829
 C 0.3646 0.0966 0.4968   0.789831
 C 0.4159 0.969 0.3385   0.775494
 C 0.1553 0.9097 0.0996   0.432875
 C 0.2847 0.9451 0.0674   0.002225
 C 0.2575 0.0122 0.0575   0.040256
 C 0.3027 0.1011 0.0352   0.737645
 C 0.3565 0.9266 0.0527   0.753043
 C 0.8621 0.5658 0.2087   0.398059
 C 0.9487 0.604 0.1283   -0.038373
 C 0.0011 0.593 0.2007   0.027838
 C 0.0966 0.5998 0.232   0.789822
 C 0.969 0.6305 0.0531   0.775495
 C 0.9097 0.8101 0.2544   0.432877
 C 0.9451 0.8777 0.1604   0.002216
 C 0.0122 0.9547 0.2547   0.04024
 C 0.1011 0.0659 0.2984   0.737663
 C 0.9266 0.8739 0.0701   0.753054
 C 0.3571 0.1534 0.2913   0.398066
 C 0.4757 0.3204 0.3717   -0.038325
 C 0.3923 0.3004 0.2993   0.027802
 C 0.3678 0.3646 0.268   0.789857
 C 0.5774 0.4159 0.4469   0.775508
 C 0.5557 0.1553 0.2456   0.432865
 C 0.7173 0.2847 0.3396   0.002224
 C 0.7 0.2575 0.2453   0.040254
 C 0.7675 0.3027 0.2016   0.737631
 C 0.8038 0.3565 0.4299   0.753029
 N 0.4306 0.6798 0.8754   -0.578144
 N 0.4136 0.5489 0.7737   -0.613127
 N 0.2163 0.3799 0.5966   -0.609072
 N 0.0909 0.4027 0.5784   -0.605006
 N 0.8044 0.0552 0.6246   -0.578138
 N 0.7752 0.1399 0.7263   -0.613122
 N 0.7833 0.1197 0.9034   -0.609083
 N 0.8243 0.0125 0.9216   -0.605005
 N 0.0552 0.4306 0.7508   -0.578142
 N 0.1399 0.4136 0.8647   -0.61311
 N 0.1197 0.2163 0.8364   -0.609076
 N 0.0125 0.0909 0.6882   -0.605006
 N 0.6798 0.8044 0.7492   -0.578136
 N 0.5489 0.7752 0.6353   -0.613142
 N 0.3799 0.7833 0.6636   -0.609071
 N 0.4027 0.8243 0.8118   -0.605008
 N 0.5694 0.3202 0.1246   -0.578144
 N 0.5864 0.4511 0.2263   -0.613127
 N 0.7837 0.6201 0.4034   -0.609072
 N 0.9091 0.5973 0.4216   -0.605006
 N 0.1956 0.9448 0.3754   -0.578138
 N 0.2248 0.8601 0.2737   -0.613121
 N 0.2167 0.8803 0.0966   -0.609083
 N 0.1757 0.9875 0.0784   -0.605005
 N 0.9448 0.5694 0.2492   -0.578142
 N 0.8601 0.5864 0.1353   -0.613109
 N 0.8803 0.7837 0.1636   -0.609076
 N 0.9875 0.9091 0.3118   -0.605006
 N 0.3202 0.1956 0.2508   -0.578136
 N 0.4511 0.2248 0.3647   -0.613141
 N 0.6201 0.2167 0.3364   -0.609071
 N 0.5973 0.1757 0.1882   -0.605008
 O 0.4333 0.7252 0.0423   -0.737437
 O 0.3667 0.5656 0.0273   -0.817299
 O 0.3365 0.3898 0.8925   -0.759207
 O 0.3717 0.3701 0.7718   -0.715123
 O 0.8933 0.2803 0.5468   -0.684066
 O 0.8852 0.1344 0.5038   -0.752164
 O 0.0431 0.1014 0.5161   -0.85177
 O 0.2134 0.212 0.5732   -0.780898
 O 0.6829 0.891 0.4577   -0.737449
 O 0.5383 0.8394 0.4727   -0.817292
 O 0.4973 0.944 0.6075   -0.759212
 O 0.5983 0.0999 0.7282   -0.71513
 O 0.7335 0.8465 0.9532   -0.684074
 O 0.6306 0.8814 0.9962   -0.752172
 O 0.5853 0.027 0.9839   -0.851769
 O 0.6388 0.1402 0.9268   -0.780911
 O 0.891 0.4333 0.7081   -0.737442
 O 0.8394 0.3667 0.8011   -0.817293
 O 0.944 0.3365 0.9467   -0.759207
 O 0.0999 0.3717 0.0016   -0.715123
 O 0.8465 0.8933 0.613   -0.684073
 O 0.8814 0.8852 0.7508   -0.75218
 O 0.027 0.0431 0.9417   -0.851768
 O 0.1402 0.2134 0.0014   -0.78091
 O 0.7252 0.6829 0.7919   -0.73744
 O 0.5656 0.5383 0.6989   -0.81731
 O 0.3898 0.4973 0.5533   -0.759219
 O 0.3701 0.5983 0.4984   -0.715135
 O 0.2803 0.7335 0.887   -0.684062
 O 0.1344 0.6306 0.7492   -0.752168
 O 0.1014 0.5853 0.5583   -0.851761
 O 0.212 0.6388 0.4986   -0.780915
 O 0.5667 0.2748 0.9577   -0.737437
 O 0.6333 0.4344 0.9727   -0.817298
 O 0.6635 0.6102 0.1075   -0.759207
 O 0.6283 0.6299 0.2282   -0.715122
 O 0.1067 0.7197 0.4532   -0.684066
 O 0.1148 0.8656 0.4962   -0.752164
 O 0.9569 0.8986 0.4839   -0.85177
 O 0.7866 0.788 0.4268   -0.780898
 O 0.3171 0.109 0.5423   -0.737449
 O 0.4617 0.1606 0.5273   -0.817292
 O 0.5027 0.056 0.3925   -0.759212
 O 0.4017 0.9001 0.2718   -0.71513
 O 0.2665 0.1535 0.0468   -0.684074
 O 0.3694 0.1186 0.0038   -0.752172
 O 0.4147 0.973 0.0161   -0.851769
 O 0.3612 0.8598 0.0732   -0.78091
 O 0.109 0.5667 0.2919   -0.737442
 O 0.1606 0.6333 0.1989   -0.817293
 O 0.056 0.6635 0.0533   -0.759207
 O 0.9001 0.6283 0.9984   -0.715123
 O 0.1535 0.1067 0.387   -0.684073
 O 0.1186 0.1148 0.2492   -0.75218
 O 0.973 0.9569 0.0583   -0.851768
 O 0.8598 0.7866 0.9986   -0.780909
 O 0.2748 0.3171 0.2081   -0.73744
 O 0.4344 0.4617 0.3011   -0.81731
 O 0.6102 0.5027 0.4467   -0.759219
 O 0.6299 0.4017 0.5016   -0.715135
 O 0.7197 0.2665 0.113   -0.684062
 O 0.8656 0.3694 0.2508   -0.752168
 O 0.8986 0.4147 0.4417   -0.851761
 O 0.788 0.3612 0.5014   -0.780914
