{'_ref': 'TBD', '_srcid': 'CAKYAQ_clean', 'submitters': [{'name': 'Dalar Nazarian Jeff Camp and David Sholl', 'email': 'dalar@gatech.edu jcamp6@gatech.edu'}], '_method': 'VASP DFT with PBE;DDEC'}
data_LaH12(C5O3)3
_symmetry_space_group_name_H-M   'P 1'
_cell_length_a   8.93170000
_cell_length_b   12.15789991
_cell_length_c   16.91480000
_cell_angle_alpha   90.00000000
_cell_angle_beta   90.00000000
_cell_angle_gamma   108.87700066
_symmetry_Int_Tables_number   1
_chemical_formula_structural   LaH12(C5O3)3
_chemical_formula_sum   'La4 H48 C60 O36'
_cell_volume   1737.99902232
_cell_formula_units_Z   4
loop_
 _symmetry_equiv_pos_site_id
 _symmetry_equiv_pos_as_xyz
  1  'x, y, z'
loop_
 _atom_site_label
 _atom_site_fract_x
 _atom_site_fract_y
 _atom_site_fract_z
 _atom_site_charge
 La 0.92996 0.95133 0.61635   2.171374
 La 0.57004 0.04867 0.11635   2.171374
 La 0.07004 0.04867 0.38365   2.17137
 La 0.42996 0.95133 0.88365   2.17137
 H 0.5986 0.6482 0.8082   0.130217
 H 0.4076 0.4732 0.7756   0.11974
 H 0.624 0.4695 0.5688   0.101452
 H 0.8165 0.6445 0.6019   0.112688
 H 0.3789 0.365 0.5369   0.089614
 H 0.4705 0.2845 0.57   0.092983
 H 0.8241 0.8131 0.8334   0.108588
 H 0.9118 0.7212 0.8211   0.104013
 H 0.3772 0.857 0.4913   0.134354
 H 0.2449 0.7937 0.4305   0.097747
 H 0.199 0.503 0.579   0.105585
 H 0.009 0.661 0.427   0.116283
 H 0.9014 0.3518 0.3082   0.130217
 H 0.0924 0.5268 0.2756   0.119738
 H 0.876 0.5305 0.0688   0.101452
 H 0.6835 0.3555 0.1019   0.112688
 H 0.1211 0.635 0.0369   0.089614
 H 0.0295 0.7155 0.07   0.092983
 H 0.6759 0.1869 0.3334   0.108588
 H 0.5882 0.2788 0.3211   0.104014
 H 0.1228 0.143 0.9913   0.134354
 H 0.2551 0.2063 0.9305   0.097746
 H 0.301 0.497 0.079   0.105585
 H 0.491 0.339 0.927   0.116283
 H 0.4014 0.3518 0.1918   0.130217
 H 0.5924 0.5268 0.2244   0.11974
 H 0.376 0.5305 0.4312   0.101454
 H 0.1835 0.3555 0.3981   0.112688
 H 0.6211 0.635 0.4631   0.089615
 H 0.5295 0.7155 0.43   0.092981
 H 0.1759 0.1869 0.1666   0.108588
 H 0.0882 0.2788 0.1789   0.104015
 H 0.6228 0.143 0.5087   0.134359
 H 0.7551 0.2063 0.5695   0.097745
 H 0.801 0.497 0.421   0.105587
 H 0.991 0.339 0.573   0.116282
 H 0.0986 0.6482 0.6918   0.130217
 H 0.9076 0.4732 0.7244   0.119738
 H 0.124 0.4695 0.9312   0.101454
 H 0.3165 0.6445 0.8981   0.112688
 H 0.8789 0.365 0.9631   0.089615
 H 0.9705 0.2845 0.93   0.092981
 H 0.3241 0.8131 0.6666   0.108588
 H 0.4118 0.7212 0.6789   0.104015
 H 0.8772 0.857 0.0087   0.134359
 H 0.7449 0.7937 0.0695   0.097744
 H 0.699 0.503 0.921   0.105587
 H 0.509 0.661 0.073   0.116282
 C 0.7228 0.66359 0.70683   0.22589
 C 0.6029 0.6128 0.75995   -0.174064
 C 0.4889 0.5081 0.74025   -0.16964
 C 0.4954 0.4555 0.66856   0.247644
 C 0.6181 0.5056 0.61662   -0.215486
 C 0.7332 0.6106 0.63635   -0.139313
 C 0.3755 0.3059 0.57602   -0.061433
 C 0.232 0.2001 0.56075   0.751791
 C 0.8981 0.7915 0.79991   -0.082504
 C 0.0547 0.8878 0.79848   0.744633
 C 0.1573 0.8537 0.52696   0.706089
 C 0.2706 0.8028 0.4864   -0.086616
 C 0.1308 0.6003 0.5073   0.212313
 C 0.1206 0.5012 0.5503   -0.117979
 C 0.0078 0.5982 0.4566   -0.196555
 C 0.7772 0.33641 0.20683   0.225891
 C 0.8971 0.3872 0.25995   -0.174065
 C 0.0111 0.4919 0.24025   -0.169639
 C 0.0046 0.5445 0.16856   0.247644
 C 0.8819 0.4944 0.11662   -0.215486
 C 0.7668 0.3894 0.13635   -0.139313
 C 0.1245 0.6941 0.07602   -0.061433
 C 0.268 0.7999 0.06075   0.751791
 C 0.6019 0.2085 0.29991   -0.082504
 C 0.4453 0.1122 0.29848   0.744633
 C 0.3427 0.1463 0.02696   0.706089
 C 0.2294 0.1972 0.9864   -0.086616
 C 0.3692 0.3997 0.0073   0.212313
 C 0.3794 0.4988 0.0503   -0.117979
 C 0.4922 0.4018 0.9566   -0.196555
 C 0.2772 0.33641 0.29317   0.22589
 C 0.3971 0.3872 0.24005   -0.174064
 C 0.5111 0.4919 0.25975   -0.169638
 C 0.5046 0.5445 0.33144   0.247644
 C 0.3819 0.4944 0.38338   -0.215486
 C 0.2668 0.3894 0.36365   -0.139312
 C 0.6245 0.6941 0.42398   -0.061433
 C 0.768 0.7999 0.43925   0.75179
 C 0.1019 0.2085 0.20009   -0.082505
 C 0.9453 0.1122 0.20152   0.744633
 C 0.8427 0.1463 0.47304   0.706089
 C 0.7294 0.1972 0.5136   -0.086617
 C 0.8692 0.3997 0.4927   0.212311
 C 0.8794 0.4988 0.4497   -0.117971
 C 0.9922 0.4018 0.5434   -0.196546
 C 0.2228 0.66359 0.79317   0.225891
 C 0.1029 0.6128 0.74005   -0.174064
 C 0.9889 0.5081 0.75975   -0.169638
 C 0.9954 0.4555 0.83144   0.247644
 C 0.1181 0.5056 0.88338   -0.215486
 C 0.2332 0.6106 0.86365   -0.139312
 C 0.8755 0.3059 0.92398   -0.061433
 C 0.732 0.2001 0.93925   0.75179
 C 0.3981 0.7915 0.70009   -0.082505
 C 0.5547 0.8878 0.70152   0.744633
 C 0.6573 0.8537 0.97304   0.706089
 C 0.7706 0.8028 0.0136   -0.086617
 C 0.6308 0.6003 0.9927   0.212311
 C 0.6206 0.5012 0.9497   -0.117971
 C 0.5078 0.5982 0.0434   -0.196546
 O 0.8379 0.77133 0.72073   -0.353838
 O 0.1338 0.93978 0.49427   -0.801811
 O 0.0967 0.8146 0.59143   -0.615325
 O 0.2667 0.69334 0.51789   -0.250011
 O 0.0898 0.95193 0.73837   -0.719722
 O 0.3739 0.35262 0.6525   -0.262335
 O 0.1608 0.13895 0.61698   -0.700555
 O 0.2017 0.18276 0.48899   -0.708304
 O 0.1393 0.89933 0.85847   -0.717516
 O 0.6621 0.22867 0.22073   -0.353838
 O 0.3662 0.06022 0.99427   -0.801811
 O 0.4033 0.1854 0.09143   -0.615325
 O 0.2333 0.30666 0.01789   -0.250011
 O 0.4102 0.04807 0.23837   -0.719722
 O 0.1261 0.64738 0.1525   -0.262335
 O 0.3392 0.86105 0.11698   -0.700555
 O 0.2983 0.81724 0.98899   -0.708304
 O 0.3607 0.10067 0.35847   -0.717516
 O 0.1621 0.22867 0.27927   -0.353838
 O 0.8662 0.06022 0.50573   -0.801811
 O 0.9033 0.1854 0.40857   -0.615325
 O 0.7333 0.30666 0.48211   -0.250011
 O 0.9102 0.04807 0.26163   -0.719721
 O 0.6261 0.64738 0.3475   -0.262335
 O 0.8392 0.86105 0.38302   -0.700554
 O 0.7983 0.81724 0.51101   -0.708304
 O 0.8607 0.10067 0.14153   -0.717516
 O 0.3379 0.77133 0.77927   -0.353838
 O 0.6338 0.93978 0.00573   -0.801811
 O 0.5967 0.8146 0.90857   -0.615325
 O 0.7667 0.69334 0.98211   -0.250011
 O 0.5898 0.95193 0.76163   -0.719721
 O 0.8739 0.35262 0.8475   -0.262335
 O 0.6608 0.13895 0.88302   -0.700554
 O 0.7017 0.18276 0.01101   -0.708304
 O 0.6393 0.89933 0.64153   -0.717516
