{'_ref': 'TBD', '_srcid': 'CAKYAQ_clean', 'submitters': [{'name': 'Dalar Nazarian Jeff Camp and David Sholl', 'email': 'dalar@gatech.edu jcamp6@gatech.edu'}], '_method': 'VASP DFT with PBE;DDEC'}
data_CdH4C8(N2O)2
_symmetry_space_group_name_H-M   'P 1'
_cell_length_a   12.38000000
_cell_length_b   16.48800000
_cell_length_c   21.24600000
_cell_angle_alpha   90.00000000
_cell_angle_beta   90.00000000
_cell_angle_gamma   90.00000000
_symmetry_Int_Tables_number   1
_chemical_formula_structural   CdH4C8(N2O)2
_chemical_formula_sum   'Cd16 H64 C128 N64 O32'
_cell_volume   4336.76411424
_cell_formula_units_Z   16
loop_
 _symmetry_equiv_pos_site_id
 _symmetry_equiv_pos_as_xyz
  1  'x, y, z'
loop_
 _atom_site_label
 _atom_site_fract_x
 _atom_site_fract_y
 _atom_site_fract_z
 _atom_site_charge
 Cd 0.48081 0.93969 0.7287   0.944247
 Cd 0.22644 0.82072 0.68725   0.959143
 Cd 0.72915 0.79922 0.7316   0.911166
 Cd 0.48818 0.82997 0.20023   0.998728
 Cd 0.01919 0.43969 0.7713   0.944247
 Cd 0.27356 0.32072 0.81275   0.959143
 Cd 0.77085 0.29922 0.7684   0.911166
 Cd 0.01182 0.32997 0.29977   0.998728
 Cd 0.51919 0.06031 0.2713   0.944247
 Cd 0.77356 0.17928 0.31275   0.959143
 Cd 0.27085 0.20078 0.2684   0.911166
 Cd 0.51182 0.17003 0.79977   0.998727
 Cd 0.98081 0.56031 0.2287   0.944247
 Cd 0.72644 0.67928 0.18725   0.959143
 Cd 0.22915 0.70078 0.2316   0.911166
 Cd 0.98818 0.67003 0.70023   0.998727
 H 0.7293 0.4153 0.617   0.111428
 H 0.5859 0.4593 0.5594   0.102866
 H 0.4882 0.572 0.5905   0.103758
 H 0.703 0.6109 0.7287   0.096122
 H 0.3639 0.8733 0.9458   0.108185
 H 0.071 0.7962 0.9958   0.086735
 H 0.009 0.8223 0.8949   0.095883
 H 0.1266 0.8728 0.8196   0.077095
 H 0.2003 0.0056 0.7389   0.08903
 H 0.9447 0.082 0.6405   0.112654
 H 0.031 0.2042 0.6224   0.122074
 H 0.1938 0.2315 0.6698   0.07619
 H 0.6927 0.2348 0.548   0.099124
 H 0.6021 0.18 0.4656   0.097169
 H 0.4598 0.0891 0.4841   0.099499
 H 0.5254 0.0987 0.6696   0.065588
 H 0.7707 0.9153 0.883   0.111427
 H 0.9141 0.9593 0.9406   0.102866
 H 0.0118 0.072 0.9095   0.103758
 H 0.797 0.1109 0.7713   0.096122
 H 0.1361 0.3733 0.5542   0.108184
 H 0.429 0.2962 0.5042   0.086735
 H 0.491 0.3223 0.6051   0.095883
 H 0.3734 0.3728 0.6804   0.077095
 H 0.2997 0.5056 0.7611   0.08903
 H 0.5553 0.582 0.8595   0.112653
 H 0.469 0.7042 0.8776   0.122073
 H 0.3062 0.7315 0.8302   0.07619
 H 0.8073 0.7348 0.952   0.099124
 H 0.8979 0.68 0.0344   0.097169
 H 0.0402 0.5891 0.0159   0.099499
 H 0.9746 0.5987 0.8304   0.065588
 H 0.2707 0.5847 0.383   0.111428
 H 0.4141 0.5407 0.4406   0.102868
 H 0.5118 0.428 0.4095   0.10376
 H 0.297 0.3891 0.2713   0.096122
 H 0.6361 0.1267 0.0542   0.108184
 H 0.929 0.2038 0.0042   0.086735
 H 0.991 0.1777 0.1051   0.095883
 H 0.8734 0.1272 0.1804   0.077095
 H 0.7997 0.9944 0.2611   0.08903
 H 0.0553 0.918 0.3595   0.112654
 H 0.969 0.7958 0.3776   0.122074
 H 0.8062 0.7685 0.3302   0.07619
 H 0.3073 0.7652 0.452   0.099125
 H 0.3979 0.82 0.5344   0.097169
 H 0.5402 0.9109 0.5159   0.099499
 H 0.4746 0.9013 0.3304   0.065588
 H 0.2293 0.0847 0.117   0.111427
 H 0.0859 0.0407 0.0594   0.102869
 H 0.9882 0.928 0.0905   0.10376
 H 0.203 0.8891 0.2287   0.096122
 H 0.8639 0.6267 0.4458   0.108184
 H 0.571 0.7038 0.4958   0.086735
 H 0.509 0.6777 0.3949   0.095883
 H 0.6266 0.6272 0.3196   0.077095
 H 0.7003 0.4944 0.2389   0.08903
 H 0.4447 0.418 0.1405   0.112653
 H 0.531 0.2958 0.1224   0.122073
 H 0.6938 0.2685 0.1698   0.07619
 H 0.1927 0.2652 0.048   0.099125
 H 0.1021 0.32 0.9656   0.097169
 H 0.9598 0.4109 0.9841   0.099499
 H 0.0254 0.4013 0.1696   0.065588
 C 0.8313 0.483 0.7116   0.686318
 C 0.7319 0.51 0.6774   -0.139085
 C 0.6946 0.4635 0.6276   -0.025375
 C 0.6078 0.4884 0.5947   -0.096948
 C 0.5501 0.5571 0.6125   -0.049731
 C 0.585 0.6033 0.663   -0.069261
 C 0.5234 0.6768 0.6804   0.372732
 C 0.6776 0.5799 0.6953   -0.033847
 C 0.3347 0.9017 0.8253   0.664646
 C 0.258 0.876 0.8748   -0.154409
 C 0.2926 0.8618 0.9353   -0.019837
 C 0.2255 0.8313 0.9806   -0.059774
 C 0.2644 0.8131 0.0437   0.375561
 C 0.118 0.8165 0.9655   -0.055086
 C 0.0809 0.832 0.9052   -0.108667
 C 0.1516 0.8621 0.8601   -0.02005
 C 0.3193 0.1392 0.74   0.685929
 C 0.2139 0.1221 0.709   -0.157264
 C 0.165 0.0459 0.7161   -0.00854
 C 0.0656 0.03 0.6899   -0.081708
 C 0.0124 0.9526 0.6986   0.374801
 C 0.0136 0.0909 0.6566   -0.028529
 C 0.064 0.165 0.6473   -0.089425
 C 0.1621 0.1808 0.6746   -0.002252
 C 0.6774 0.21 0.6715   0.668077
 C 0.6196 0.1716 0.6164   -0.142219
 C 0.6398 0.1959 0.5554   -0.023085
 C 0.5848 0.1648 0.5065   -0.080176
 C 0.5003 0.1087 0.5177   -0.034151
 C 0.4773 0.0824 0.579   -0.071836
 C 0.3937 0.0225 0.5905   0.358405
 C 0.5388 0.115 0.6284   -0.038102
 C 0.6687 0.983 0.7884   0.686318
 C 0.7681 0.01 0.8226   -0.139085
 C 0.8054 0.9635 0.8724   -0.025375
 C 0.8922 0.9884 0.9053   -0.096948
 C 0.9499 0.0571 0.8875   -0.049731
 C 0.915 0.1033 0.837   -0.069261
 C 0.9766 0.1768 0.8196   0.372732
 C 0.8224 0.0799 0.8047   -0.033847
 C 0.1653 0.4017 0.6747   0.664646
 C 0.242 0.376 0.6252   -0.154409
 C 0.2074 0.3618 0.5647   -0.019837
 C 0.2745 0.3313 0.5194   -0.059775
 C 0.2356 0.3131 0.4563   0.375561
 C 0.382 0.3165 0.5345   -0.055086
 C 0.4191 0.332 0.5948   -0.108667
 C 0.3484 0.3621 0.6399   -0.02005
 C 0.1807 0.6392 0.76   0.685929
 C 0.2861 0.6221 0.791   -0.157264
 C 0.335 0.5459 0.7839   -0.00854
 C 0.4344 0.53 0.8101   -0.081708
 C 0.4876 0.4526 0.8014   0.374801
 C 0.4864 0.5909 0.8434   -0.028529
 C 0.436 0.665 0.8527   -0.089425
 C 0.3379 0.6808 0.8254   -0.002252
 C 0.8226 0.71 0.8285   0.668077
 C 0.8804 0.6716 0.8836   -0.142219
 C 0.8602 0.6959 0.9446   -0.023085
 C 0.9152 0.6648 0.9935   -0.080176
 C 0.9997 0.6087 0.9823   -0.034151
 C 0.0227 0.5824 0.921   -0.071836
 C 0.1063 0.5225 0.9095   0.358405
 C 0.9612 0.615 0.8716   -0.038103
 C 0.1687 0.517 0.2884   0.686318
 C 0.2681 0.49 0.3226   -0.139085
 C 0.3054 0.5365 0.3724   -0.025375
 C 0.3922 0.5116 0.4053   -0.096949
 C 0.4499 0.4429 0.3875   -0.049732
 C 0.415 0.3967 0.337   -0.06926
 C 0.4766 0.3232 0.3196   0.372732
 C 0.3224 0.4201 0.3047   -0.033847
 C 0.6653 0.0983 0.1747   0.664646
 C 0.742 0.124 0.1252   -0.154409
 C 0.7074 0.1382 0.0647   -0.019837
 C 0.7745 0.1687 0.0194   -0.059774
 C 0.7356 0.1869 0.9563   0.375561
 C 0.882 0.1835 0.0345   -0.055086
 C 0.9191 0.168 0.0948   -0.108667
 C 0.8484 0.1379 0.1399   -0.02005
 C 0.6807 0.8608 0.26   0.685929
 C 0.7861 0.8779 0.291   -0.157264
 C 0.835 0.9541 0.2839   -0.00854
 C 0.9344 0.97 0.3101   -0.081708
 C 0.9876 0.0474 0.3014   0.374801
 C 0.9864 0.9091 0.3434   -0.028529
 C 0.936 0.835 0.3527   -0.089425
 C 0.8379 0.8192 0.3254   -0.002252
 C 0.3226 0.79 0.3285   0.668077
 C 0.3804 0.8284 0.3836   -0.142219
 C 0.3602 0.8041 0.4446   -0.023085
 C 0.4152 0.8352 0.4935   -0.080176
 C 0.4997 0.8913 0.4823   -0.034151
 C 0.5227 0.9176 0.421   -0.071836
 C 0.6063 0.9775 0.4095   0.358405
 C 0.4612 0.885 0.3716   -0.038102
 C 0.3313 0.017 0.2116   0.686318
 C 0.2319 0.99 0.1774   -0.139085
 C 0.1946 0.0365 0.1276   -0.025374
 C 0.1078 0.0116 0.0947   -0.096949
 C 0.0501 0.9429 0.1125   -0.049732
 C 0.085 0.8967 0.163   -0.069261
 C 0.0234 0.8232 0.1804   0.372732
 C 0.1776 0.9201 0.1953   -0.033847
 C 0.8347 0.5983 0.3253   0.664646
 C 0.758 0.624 0.3748   -0.154409
 C 0.7926 0.6382 0.4353   -0.019837
 C 0.7255 0.6687 0.4806   -0.059774
 C 0.7644 0.6869 0.5437   0.375561
 C 0.618 0.6835 0.4655   -0.055086
 C 0.5809 0.668 0.4052   -0.108667
 C 0.6516 0.6379 0.3601   -0.02005
 C 0.8193 0.3608 0.24   0.685929
 C 0.7139 0.3779 0.209   -0.157264
 C 0.665 0.4541 0.2161   -0.00854
 C 0.5656 0.47 0.1899   -0.081708
 C 0.5124 0.5474 0.1986   0.374801
 C 0.5136 0.4091 0.1566   -0.028529
 C 0.564 0.335 0.1473   -0.089425
 C 0.6621 0.3192 0.1746   -0.002252
 C 0.1774 0.29 0.1715   0.668077
 C 0.1196 0.3284 0.1164   -0.142219
 C 0.1398 0.3041 0.0554   -0.023085
 C 0.0848 0.3352 0.0065   -0.080176
 C 0.000300000000003 0.3913 0.0177   -0.034151
 C 0.9773 0.4176 0.079   -0.071836
 C 0.8937 0.4775 0.0905   0.358405
 C 0.0388 0.385 0.1284   -0.038103
 N 0.5626 0.7423 0.7088   -0.292374
 N 0.4789 0.7951 0.7115   -0.081952
 N 0.3947 0.7611 0.6856   -0.041408
 N 0.4198 0.686 0.6656   -0.349496
 N 0.3545 0.8434 0.0694   -0.355203
 N 0.3599 0.8104 0.127   -0.071443
 N 0.2764 0.762 0.1353   -0.078081
 N 0.2144 0.7624 0.0835   -0.329409
 N 0.0609 0.8783 0.6994   -0.310807
 N 0.9803 0.8243 0.7093   -0.104948
 N 0.8892 0.8643 0.7132   -0.015156
 N 0.906 0.9448 0.706   -0.31504
 N 0.3916 0.9675 0.6372   -0.342673
 N 0.298 0.9267 0.6278   -0.089817
 N 0.2498 0.954 0.5782   -0.110599
 N 0.3079 0.0147 0.5539   -0.310086
 N 0.9374 0.2423 0.7912   -0.292374
 N 0.0211 0.2951 0.7885   -0.081952
 N 0.1053 0.2611 0.8144   -0.041408
 N 0.0802 0.186 0.8344   -0.349496
 N 0.1455 0.3434 0.4306   -0.355203
 N 0.1401 0.3104 0.373   -0.071443
 N 0.2236 0.262 0.3647   -0.078081
 N 0.2856 0.2624 0.4165   -0.329408
 N 0.4391 0.3783 0.8006   -0.310807
 N 0.5197 0.3243 0.7907   -0.104948
 N 0.6108 0.3643 0.7868   -0.015156
 N 0.594 0.4448 0.794   -0.31504
 N 0.1084 0.4675 0.8628   -0.342673
 N 0.202 0.4267 0.8722   -0.089817
 N 0.2502 0.454 0.9218   -0.110599
 N 0.1921 0.5147 0.9461   -0.310086
 N 0.4374 0.2577 0.2912   -0.292374
 N 0.5211 0.2049 0.2885   -0.081952
 N 0.6053 0.2389 0.3144   -0.041408
 N 0.5802 0.314 0.3344   -0.349496
 N 0.6455 0.1566 0.9306   -0.355203
 N 0.6401 0.1896 0.873   -0.071443
 N 0.7236 0.238 0.8647   -0.078081
 N 0.7856 0.2376 0.9165   -0.329409
 N 0.9391 0.1217 0.3006   -0.310807
 N 0.0197 0.1757 0.2907   -0.104948
 N 0.1108 0.1357 0.2868   -0.015156
 N 0.094 0.0552 0.294   -0.31504
 N 0.6084 0.0325 0.3628   -0.342673
 N 0.702 0.0733 0.3722   -0.089817
 N 0.7502 0.046 0.4218   -0.110599
 N 0.6921 0.9853 0.4461   -0.310086
 N 0.0626 0.7577 0.2088   -0.292374
 N 0.9789 0.7049 0.2115   -0.081952
 N 0.8947 0.7389 0.1856   -0.041408
 N 0.9198 0.814 0.1656   -0.349496
 N 0.8545 0.6566 0.5694   -0.355203
 N 0.8599 0.6896 0.627   -0.071443
 N 0.7764 0.738 0.6353   -0.078081
 N 0.7144 0.7376 0.5835   -0.329408
 N 0.5609 0.6217 0.1994   -0.310807
 N 0.4803 0.6757 0.2093   -0.104948
 N 0.3892 0.6357 0.2132   -0.015156
 N 0.406 0.5552 0.206   -0.31504
 N 0.8916 0.5325 0.1372   -0.342673
 N 0.798 0.5733 0.1278   -0.089817
 N 0.7498 0.546 0.0782   -0.110599
 N 0.8079 0.4853 0.0539   -0.310086
 O 0.8956 0.5334 0.7338   -0.561386
 O 0.8494 0.4073 0.7179   -0.587907
 O 0.4286 0.9258 0.8391   -0.556212
 O 0.3073 0.8957 0.7674   -0.657498
 O 0.384 0.0837 0.7537   -0.544551
 O 0.3446 0.2126 0.7538   -0.638317
 O 0.6424 0.2 0.7267   -0.646234
 O 0.7594 0.2526 0.6627   -0.563198
 O 0.6044 0.0334 0.7662   -0.561386
 O 0.6506 0.9073 0.7821   -0.587908
 O 0.0714 0.4258 0.6609   -0.556212
 O 0.1927 0.3957 0.7326   -0.657498
 O 0.116 0.5837 0.7463   -0.544551
 O 0.1554 0.7126 0.7462   -0.638317
 O 0.8576 0.7 0.7733   -0.646234
 O 0.7406 0.7526 0.8373   -0.563198
 O 0.1044 0.4666 0.2662   -0.561386
 O 0.1506 0.5927 0.2821   -0.587907
 O 0.5714 0.0742 0.1609   -0.556212
 O 0.6927 0.1043 0.2326   -0.657498
 O 0.616 0.9163 0.2463   -0.544551
 O 0.6554 0.7874 0.2462   -0.638317
 O 0.3576 0.8 0.2733   -0.646234
 O 0.2406 0.7474 0.3373   -0.563198
 O 0.3956 0.9666 0.2338   -0.561386
 O 0.3494 0.0927 0.2179   -0.587908
 O 0.9286 0.5742 0.3391   -0.556212
 O 0.8073 0.6043 0.2674   -0.657498
 O 0.884 0.4163 0.2537   -0.544551
 O 0.8446 0.2874 0.2538   -0.638317
 O 0.1424 0.3 0.2267   -0.646234
 O 0.2594 0.2474 0.1627   -0.563198
