{'_ref': 'TBD', '_srcid': 'CAKYAQ_clean', 'submitters': [{'name': 'Dalar Nazarian Jeff Camp and David Sholl', 'email': 'dalar@gatech.edu jcamp6@gatech.edu'}], '_method': 'VASP DFT with PBE;DDEC'}
data_Zn2P2H16C13(NO3)2
_symmetry_space_group_name_H-M   'P 1'
_cell_length_a   8.45900000
_cell_length_b   9.62200000
_cell_length_c   24.38900000
_cell_angle_alpha   90.00000000
_cell_angle_beta   90.00000000
_cell_angle_gamma   90.00000000
_symmetry_Int_Tables_number   1
_chemical_formula_structural   Zn2P2H16C13(NO3)2
_chemical_formula_sum   'Zn8 P8 H64 C52 N8 O24'
_cell_volume   1985.08163372
_cell_formula_units_Z   4
loop_
 _symmetry_equiv_pos_site_id
 _symmetry_equiv_pos_as_xyz
  1  'x, y, z'
loop_
 _atom_site_label
 _atom_site_fract_x
 _atom_site_fract_y
 _atom_site_fract_z
 _atom_site_charge
 Zn 0.77341 0.59552 0.53507   1.081422
 Zn 0.77341 0.90448 0.96493   1.081422
 Zn 0.72659 0.40448 0.03507   1.081422
 Zn 0.72659 0.09552 0.46493   1.081422
 Zn 0.22659 0.40448 0.46493   1.081422
 Zn 0.22659 0.09552 0.03507   1.081422
 Zn 0.27341 0.59552 0.96493   1.081422
 Zn 0.27341 0.90448 0.53507   1.081422
 P 0.86554 0.39795 0.43763   1.528762
 P 0.86554 0.10205 0.06237   1.528762
 P 0.63446 0.60205 0.93763   1.528762
 P 0.63446 0.89795 0.56237   1.528762
 P 0.13446 0.60205 0.56237   1.528762
 P 0.13446 0.89795 0.93763   1.528762
 P 0.36554 0.39795 0.06237   1.528762
 P 0.36554 0.10205 0.43763   1.528762
 H 0.7793 0.3867 0.3937   -0.207304
 H 0.4179 0.2088 0.6025   0.140259
 H 0.5879 0.3155 0.5416   0.087526
 H 0.6224 0.6439 0.6378   0.078191
 H 0.453 0.545 0.7007   0.133101
 H 0.2292 0.3698 0.7137   0.095309
 H 0.25 0.2213 0.6848   0.088754
 H 0.474 0.1732 0.7376   0.066098
 H 0.7793 0.1133 0.1063   -0.207304
 H 0.4179 0.2912 0.8975   0.140259
 H 0.5879 0.1845 0.9584   0.087526
 H 0.6224 0.8561 0.8622   0.078191
 H 0.453 0.955 0.7993   0.1331
 H 0.2292 0.1302 0.7863   0.095309
 H 0.25 0.2787 0.8152   0.088754
 H 0.474 0.3268 0.7624   0.066099
 H 0.7207 0.6133 0.8937   -0.207304
 H 0.0821 0.7912 0.1025   0.140259
 H 0.9121 0.6845 0.0416   0.087526
 H 0.8776 0.3561 0.1378   0.078191
 H 0.047 0.455 0.2007   0.133101
 H 0.2708 0.6302 0.2137   0.095309
 H 0.25 0.7787 0.1848   0.088754
 H 0.026 0.8268 0.2376   0.066098
 H 0.7207 0.8867 0.6063   -0.207304
 H 0.0821 0.7088 0.3975   0.140259
 H 0.9121 0.8155 0.4584   0.087526
 H 0.8776 0.1439 0.3622   0.07819
 H 0.047 0.045 0.2993   0.1331
 H 0.2708 0.8698 0.2863   0.095309
 H 0.25 0.7213 0.3152   0.088754
 H 0.026 0.6732 0.2624   0.066099
 H 0.2207 0.6133 0.6063   -0.207304
 H 0.5821 0.7912 0.3975   0.140259
 H 0.4121 0.6845 0.4584   0.087526
 H 0.3776 0.3561 0.3622   0.07819
 H 0.547 0.455 0.2993   0.1331
 H 0.7708 0.6302 0.2863   0.09531
 H 0.75 0.7787 0.3152   0.088754
 H 0.526 0.8268 0.2624   0.066099
 H 0.2207 0.8867 0.8937   -0.207304
 H 0.5821 0.7088 0.1025   0.140259
 H 0.4121 0.8155 0.0416   0.087526
 H 0.3776 0.1439 0.1378   0.07819
 H 0.547 0.045 0.2007   0.133099
 H 0.7708 0.8698 0.2137   0.095311
 H 0.75 0.7213 0.1848   0.088754
 H 0.526 0.6732 0.2376   0.0661
 H 0.2793 0.3867 0.1063   -0.207304
 H 0.9179 0.2088 0.8975   0.140259
 H 0.0879 0.3155 0.9584   0.087526
 H 0.1224 0.6439 0.8622   0.07819
 H 0.953 0.545 0.7993   0.1331
 H 0.7292 0.3698 0.7863   0.09531
 H 0.75 0.2213 0.8152   0.088754
 H 0.974 0.1732 0.7624   0.066099
 H 0.2793 0.1133 0.3937   -0.207304
 H 0.9179 0.2912 0.6025   0.140259
 H 0.0879 0.1845 0.5416   0.087526
 H 0.1224 0.8561 0.6378   0.07819
 H 0.953 0.955 0.7007   0.133099
 H 0.7292 0.1302 0.7137   0.095311
 H 0.75 0.2787 0.6848   0.088754
 H 0.974 0.3268 0.7376   0.0661
 C 0.4581 0.2987 0.61058   -0.192848
 C 0.5599 0.3626 0.57445   0.21548
 C 0.5801 0.5543 0.63053   0.190356
 C 0.4788 0.4958 0.66811   -0.248151
 C 0.4137 0.3649 0.65878   0.170672
 C 0.3078 0.3005 0.70114   -0.192842
 C 0.4581 0.2013 0.88942   -0.192848
 C 0.5599 0.1374 0.92555   0.21548
 C 0.5801 0.9457 0.86947   0.190356
 C 0.4788 0.0042 0.83189   -0.248151
 C 0.4137 0.1351 0.84122   0.170672
 C 0.3078 0.1995 0.79886   -0.192842
 C 0.0419 0.7013 0.11058   -0.192848
 C 0.9401 0.6374 0.07445   0.21548
 C 0.9199 0.4457 0.13053   0.190356
 C 0.0212 0.5042 0.16811   -0.248151
 C 0.0863 0.6351 0.15878   0.170672
 C 0.1922 0.6995 0.20114   -0.192842
 C 0.0419 0.7987 0.38942   -0.192848
 C 0.9401 0.8626 0.42555   0.21548
 C 0.9199 0.0543 0.36947   0.190356
 C 0.0212 0.9958 0.33189   -0.248151
 C 0.0863 0.8649 0.34122   0.170672
 C 0.1922 0.8005 0.29886   -0.192842
 C 0.5419 0.7013 0.38942   -0.192848
 C 0.4401 0.6374 0.42555   0.215479
 C 0.4199 0.4457 0.36947   0.190356
 C 0.5212 0.5042 0.33189   -0.248151
 C 0.5863 0.6351 0.34122   0.170672
 C 0.6922 0.6995 0.29886   -0.192842
 C 0.5419 0.7987 0.11058   -0.192848
 C 0.4401 0.8626 0.07445   0.215479
 C 0.4199 0.0543 0.13053   0.190356
 C 0.5212 0.9958 0.16811   -0.24815
 C 0.5863 0.8649 0.15878   0.170672
 C 0.6922 0.8005 0.20114   -0.192842
 C 0.9581 0.2987 0.88942   -0.192848
 C 0.0599 0.3626 0.92555   0.21548
 C 0.0801 0.5543 0.86947   0.190356
 C 0.9788 0.4958 0.83189   -0.248151
 C 0.9137 0.3649 0.84122   0.170672
 C 0.8078 0.3005 0.79886   -0.192842
 C 0.9581 0.2013 0.61058   -0.192848
 C 0.0599 0.1374 0.57445   0.215479
 C 0.0801 0.9457 0.63053   0.190356
 C 0.9788 0.0042 0.66811   -0.24815
 C 0.9137 0.1351 0.65878   0.170672
 C 0.8078 0.1995 0.70114   -0.192842
 C 0.4048 0.25 0.75   -0.079573
 C 0.0952 0.75 0.25   -0.079573
 C 0.5952 0.75 0.25   -0.079573
 C 0.9048 0.25 0.75   -0.079573
 N 0.6213 0.4892 0.58391   -0.397967
 N 0.6213 0.0108 0.91609   -0.397967
 N 0.8787 0.5108 0.08391   -0.397967
 N 0.8787 0.9892 0.41609   -0.397967
 N 0.3787 0.5108 0.41609   -0.397967
 N 0.3787 0.9892 0.08391   -0.397967
 N 0.1213 0.4892 0.91609   -0.397967
 N 0.1213 0.0108 0.58391   -0.397967
 O 0.8239 0.53674 0.46277   -0.854267
 O 0.8201 0.27745 0.47405   -0.860201
 O 0.0379 0.39137 0.41836   -0.882563
 O 0.8239 0.96326 0.03723   -0.854267
 O 0.8201 0.22255 0.02595   -0.860201
 O 0.0379 0.10863 0.08164   -0.882563
 O 0.6761 0.46326 0.96277   -0.854267
 O 0.6799 0.72255 0.97405   -0.860201
 O 0.4621 0.60863 0.91836   -0.882563
 O 0.6761 0.03674 0.53723   -0.854267
 O 0.6799 0.77745 0.52595   -0.860201
 O 0.4621 0.89137 0.58164   -0.882563
 O 0.1761 0.46326 0.53723   -0.854267
 O 0.1799 0.72255 0.52595   -0.860201
 O 0.9621 0.60863 0.58164   -0.882563
 O 0.1761 0.03674 0.96277   -0.854267
 O 0.1799 0.77745 0.97405   -0.860201
 O 0.9621 0.89137 0.91836   -0.882563
 O 0.3239 0.53674 0.03723   -0.854267
 O 0.3201 0.27745 0.02595   -0.860201
 O 0.5379 0.39137 0.08164   -0.882563
 O 0.3239 0.96326 0.46277   -0.854267
 O 0.3201 0.22255 0.47405   -0.860201
 O 0.5379 0.10863 0.41836   -0.882563
