{'_ref': 'TBD', '_srcid': 'CAKYAQ_clean', 'submitters': [{'name': 'Dalar Nazarian Jeff Camp and David Sholl', 'email': 'dalar@gatech.edu jcamp6@gatech.edu'}], '_method': 'VASP DFT with PBE;DDEC'}
data_Zn2P2H16C13(NO3)2
_symmetry_space_group_name_H-M   'P 1'
_cell_length_a   9.55330000
_cell_length_b   9.99470000
_cell_length_c   23.88660000
_cell_angle_alpha   90.00000000
_cell_angle_beta   90.00000000
_cell_angle_gamma   90.00000000
_symmetry_Int_Tables_number   1
_chemical_formula_structural   Zn2P2H16C13(NO3)2
_chemical_formula_sum   'Zn8 P8 H64 C52 N8 O24'
_cell_volume   2280.74911976
_cell_formula_units_Z   4
loop_
 _symmetry_equiv_pos_site_id
 _symmetry_equiv_pos_as_xyz
  1  'x, y, z'
loop_
 _atom_site_label
 _atom_site_fract_x
 _atom_site_fract_y
 _atom_site_fract_z
 _atom_site_charge
 Zn 0.82528 0.62551 0.48806   1.084928
 Zn 0.32528 0.87449 0.51194   1.084928
 Zn 0.17472 0.37449 0.98806   1.084928
 Zn 0.67472 0.12551 0.01194   1.084928
 Zn 0.17472 0.37449 0.51194   1.084928
 Zn 0.67472 0.12551 0.48806   1.084928
 Zn 0.82528 0.62551 0.01194   1.084928
 Zn 0.32528 0.87449 0.98806   1.084928
 P 0.11269 0.65418 0.56129   1.516529
 P 0.61269 0.84582 0.43871   1.516529
 P 0.88731 0.34582 0.06129   1.516529
 P 0.38731 0.15418 0.93871   1.516529
 P 0.88731 0.34582 0.43871   1.516529
 P 0.38731 0.15418 0.56129   1.516529
 P 0.11269 0.65418 0.93871   1.516529
 P 0.61269 0.84582 0.06129   1.516529
 H 0.0686 0.7028 0.6086   -0.207069
 H 0.5318 0.6246 0.5396   0.089348
 H 0.4197 0.5317 0.6162   0.144724
 H 0.7766 0.334 0.6531   0.133459
 H 0.8787 0.4294 0.5755   0.078282
 H 0.4195 0.3864 0.6966   0.108499
 H 0.5356 0.271 0.6982   0.103377
 H 0.5686 0.7972 0.3914   -0.207069
 H 0.0318 0.8754 0.4604   0.089348
 H 0.9197 0.9683 0.3838   0.144724
 H 0.2766 0.166 0.3469   0.133459
 H 0.3787 0.0706 0.4245   0.078282
 H 0.9195 0.1136 0.3034   0.108499
 H 0.0356 0.229 0.3018   0.103377
 H 0.9314 0.2972 0.1086   -0.207069
 H 0.4682 0.3754 0.0396   0.089348
 H 0.5803 0.4683 0.1162   0.144724
 H 0.2234 0.666 0.1531   0.133459
 H 0.1213 0.5706 0.0755   0.078282
 H 0.5805 0.6136 0.1966   0.108499
 H 0.4644 0.729 0.1982   0.103377
 H 0.4314 0.2028 0.8914   -0.207069
 H 0.9682 0.1246 0.9604   0.089348
 H 0.0803 0.0317 0.8838   0.144724
 H 0.7234 0.834 0.8469   0.133459
 H 0.6213 0.9294 0.9245   0.078282
 H 0.0805 0.8864 0.8034   0.108499
 H 0.9644 0.771 0.8018   0.103377
 H 0.9314 0.2972 0.3914   -0.207069
 H 0.4682 0.3754 0.4604   0.089348
 H 0.5803 0.4683 0.3838   0.144724
 H 0.2234 0.666 0.3469   0.133459
 H 0.1213 0.5706 0.4245   0.078282
 H 0.5805 0.6136 0.3034   0.108495
 H 0.4644 0.729 0.3018   0.103377
 H 0.4314 0.2028 0.6086   -0.207069
 H 0.9682 0.1246 0.5396   0.089348
 H 0.0803 0.0317 0.6162   0.144724
 H 0.7234 0.834 0.6531   0.133459
 H 0.6213 0.9294 0.5755   0.078282
 H 0.0805 0.8864 0.6966   0.108495
 H 0.9644 0.771 0.6982   0.103377
 H 0.0686 0.7028 0.8914   -0.207069
 H 0.5318 0.6246 0.9604   0.089348
 H 0.4197 0.5317 0.8838   0.144724
 H 0.7766 0.334 0.8469   0.133459
 H 0.8787 0.4294 0.9245   0.078282
 H 0.4195 0.3864 0.8034   0.108495
 H 0.5356 0.271 0.8018   0.103377
 H 0.5686 0.7972 0.1086   -0.207069
 H 0.0318 0.8754 0.0396   0.089348
 H 0.9197 0.9683 0.1162   0.144724
 H 0.2766 0.166 0.1531   0.133459
 H 0.3787 0.0706 0.0755   0.078282
 H 0.9195 0.1136 0.1966   0.108495
 H 0.0356 0.229 0.1982   0.103377
 H 0.6872 0.4172 0.75   0.065337
 H 0.5668 0.5288 0.75   0.072542
 H 0.1872 0.0828 0.25   0.065337
 H 0.0668 0.9712 0.25   0.072542
 H 0.3128 0.5828 0.25   0.065337
 H 0.4332 0.4712 0.25   0.072542
 H 0.8128 0.9172 0.75   0.065337
 H 0.9332 0.0288 0.75   0.072542
 C 0.5824 0.5657 0.5634   0.206618
 C 0.515 0.5106 0.60913   -0.227102
 C 0.5863 0.4246 0.64484   0.173959
 C 0.7242 0.3946 0.63067   -0.241108
 C 0.7848 0.4521 0.58444   0.199095
 C 0.5215 0.3691 0.69723   -0.198132
 C 0.0824 0.9343 0.4366   0.206618
 C 0.015 0.9894 0.39087   -0.227102
 C 0.0863 0.0754 0.35516   0.173959
 C 0.2242 0.1054 0.36933   -0.241108
 C 0.2848 0.0479 0.41556   0.199095
 C 0.0215 0.1309 0.30277   -0.198132
 C 0.4176 0.4343 0.0634   0.206618
 C 0.485 0.4894 0.10913   -0.227102
 C 0.4137 0.5754 0.14484   0.173959
 C 0.2758 0.6054 0.13067   -0.241108
 C 0.2152 0.5479 0.08444   0.199095
 C 0.4785 0.6309 0.19723   -0.198132
 C 0.9176 0.0657 0.9366   0.206618
 C 0.985 0.0106 0.89087   -0.227102
 C 0.9137 0.9246 0.85516   0.173959
 C 0.7758 0.8946 0.86933   -0.241108
 C 0.7152 0.9521 0.91556   0.199095
 C 0.9785 0.8691 0.80277   -0.198132
 C 0.4176 0.4343 0.4366   0.206618
 C 0.485 0.4894 0.39087   -0.227102
 C 0.4137 0.5754 0.35516   0.173959
 C 0.2758 0.6054 0.36933   -0.241108
 C 0.2152 0.5479 0.41556   0.199095
 C 0.4785 0.6309 0.30277   -0.19813
 C 0.9176 0.0657 0.5634   0.206618
 C 0.985 0.0106 0.60913   -0.227102
 C 0.9137 0.9246 0.64484   0.173959
 C 0.7758 0.8946 0.63067   -0.241108
 C 0.7152 0.9521 0.58444   0.199095
 C 0.9785 0.8691 0.69723   -0.19813
 C 0.5824 0.5657 0.9366   0.206618
 C 0.515 0.5106 0.89087   -0.227102
 C 0.5863 0.4246 0.85516   0.173959
 C 0.7242 0.3946 0.86933   -0.241108
 C 0.7848 0.4521 0.91556   0.199095
 C 0.5215 0.3691 0.80277   -0.19813
 C 0.0824 0.9343 0.0634   0.206618
 C 0.015 0.9894 0.10913   -0.227102
 C 0.0863 0.0754 0.14484   0.173959
 C 0.2242 0.1054 0.13067   -0.241108
 C 0.2848 0.0479 0.08444   0.199095
 C 0.0215 0.1309 0.19723   -0.19813
 C 0.5846 0.4312 0.75   -0.085881
 C 0.0846 0.0688 0.25   -0.085881
 C 0.4154 0.5688 0.25   -0.085881
 C 0.9154 0.9312 0.75   -0.085881
 N 0.7171 0.5388 0.55138   -0.419238
 N 0.2171 0.9612 0.44862   -0.419238
 N 0.2829 0.4612 0.05138   -0.419238
 N 0.7829 0.0388 0.94862   -0.419238
 N 0.2829 0.4612 0.44862   -0.419238
 N 0.7829 0.0388 0.55138   -0.419238
 N 0.7171 0.5388 0.94862   -0.419238
 N 0.2171 0.9612 0.05138   -0.419238
 O 0.00231 0.68751 0.51839   -0.875187
 O 0.1317 0.5045 0.5704   -0.856317
 O 0.2498 0.72219 0.5491   -0.840663
 O 0.50231 0.81249 0.48161   -0.875187
 O 0.6317 0.9955 0.4296   -0.856317
 O 0.7498 0.77781 0.4509   -0.840663
 O 0.99769 0.31249 0.01839   -0.875187
 O 0.8683 0.4955 0.0704   -0.856317
 O 0.7502 0.27781 0.0491   -0.840663
 O 0.49769 0.18751 0.98161   -0.875187
 O 0.3683 0.0045 0.9296   -0.856317
 O 0.2502 0.22219 0.9509   -0.840663
 O 0.99769 0.31249 0.48161   -0.875187
 O 0.8683 0.4955 0.4296   -0.856317
 O 0.7502 0.27781 0.4509   -0.840663
 O 0.49769 0.18751 0.51839   -0.875187
 O 0.3683 0.0045 0.5704   -0.856317
 O 0.2502 0.22219 0.5491   -0.840663
 O 0.00231 0.68751 0.98161   -0.875187
 O 0.1317 0.5045 0.9296   -0.856317
 O 0.2498 0.72219 0.9509   -0.840663
 O 0.50231 0.81249 0.01839   -0.875187
 O 0.6317 0.9955 0.0704   -0.856317
 O 0.7498 0.77781 0.0491   -0.840663
