{'_ref': 'TBD', '_srcid': 'CAKYAQ_clean', 'submitters': [{'name': 'Dalar Nazarian Jeff Camp and David Sholl', 'email': 'dalar@gatech.edu jcamp6@gatech.edu'}], '_method': 'VASP DFT with PBE;DDEC'}
data_CdH8C15N4O5
_symmetry_space_group_name_H-M   'P 1'
_cell_length_a   11.88800022
_cell_length_b   12.91599981
_cell_length_c   13.00900000
_cell_angle_alpha   93.93999798
_cell_angle_beta   112.06999847
_cell_angle_gamma   110.34000038
_symmetry_Int_Tables_number   1
_chemical_formula_structural   CdH8C15N4O5
_chemical_formula_sum   'Cd4 H32 C60 N16 O20'
_cell_volume   1689.40793244
_cell_formula_units_Z   4
loop_
 _symmetry_equiv_pos_site_id
 _symmetry_equiv_pos_as_xyz
  1  'x, y, z'
loop_
 _atom_site_label
 _atom_site_fract_x
 _atom_site_fract_y
 _atom_site_fract_z
 _atom_site_charge
 Cd 0.47457 0.67789 0.67557   1.017022
 Cd 0.14664 0.45403 0.47152   0.928107
 Cd 0.52543 0.32211 0.32444   1.017036
 Cd 0.85336 0.54597 0.52848   0.928103
 H 0.261 0.306 0.073   0.347717
 H 0.549 0.4212 0.7188   0.143117
 H 0.2694 0.3481 0.8362   0.105086
 H 0.6241 0.3441 0.0254   0.124143
 H 0.0652 0.7359 0.3464   0.137766
 H 0.1925 0.0197 0.2397   0.128403
 H 0.4441 0.8758 0.3919   0.111494
 H 0.7502 0.0756 0.1507   0.102544
 H 0.8029 0.9236 0.1179   0.135202
 H 0.1091 0.0404 0.427   0.136048
 H 0.055 0.1919 0.46   0.098749
 H 0.0367 0.4941 0.225   0.09605
 H 0.5962 0.0853 0.2989   0.361852
 H 0.9886 0.2211 0.0189   0.103216
 H 0.8592 0.5096 0.0809   0.139883
 H 0.8098 0.2356 0.8766   0.113062
 H 0.739 0.694 0.927   0.347717
 H 0.451 0.5788 0.2812   0.143117
 H 0.7306 0.6519 0.1638   0.105088
 H 0.3759 0.6559 0.9746   0.124143
 H 0.9348 0.2641 0.6536   0.137767
 H 0.8075 0.9803 0.7603   0.128403
 H 0.5559 0.1242 0.6081   0.111494
 H 0.2498 0.9244 0.8493   0.102545
 H 0.1971 0.0764 0.8821   0.135203
 H 0.8909 0.9596 0.573   0.136048
 H 0.945 0.8081 0.54   0.098749
 H 0.9633 0.5059 0.775   0.096051
 H 0.4038 0.9147 0.7011   0.361853
 H 0.0114 0.7789 0.9811   0.103215
 H 0.1408 0.4904 0.9191   0.139884
 H 0.1902 0.7644 0.1234   0.113063
 C 0.4359 0.0488 0.2903   0.678778
 C 0.8526 0.2386 0.32946   0.359172
 C 0.3967 0.3895 0.76242   -0.078535
 C 0.5211 0.4005 0.775   -0.158128
 C 0.3548 0.3592 0.8464   -0.054381
 C 0.3056 0.41172 0.65905   0.667808
 C 0.4045 0.3264 0.0424   0.678771
 C 0.4422 0.3455 0.94597   -0.125362
 C 0.5668 0.3548 0.9593   -0.179523
 C 0.2838 0.6998 0.43563   0.680339
 C 0.1335 0.793 0.3389   -0.13645
 C 0.1096 0.8786 0.2881   0.243333
 C 0.2088 0.9623 0.274   -0.151153
 C 0.3334 0.9598 0.31161   -0.134041
 C 0.3597 0.8759 0.36532   -0.039829
 C 0.2586 0.7923 0.37857   -0.095276
 C 0.1504 0.3499 0.22287   0.338573
 C 0.6043 0.3802 0.87218   0.257106
 C 0.8218 0.0681 0.2066   -0.029265
 C 0.8537 0.9776 0.1865   -0.217289
 C 0.0368 0.0477 0.3717   -0.22646
 C 0.0039 0.1379 0.3914   -0.012715
 C 0.8964 0.148 0.3103   -0.115896
 C 0.0323 0.3568 0.13667   -0.097679
 C 0.8199 0.375 0.96603   0.260816
 C 0.9921 0.4426 0.15486   -0.016595
 C 0.9605 0.9685 0.2685   0.278992
 C 0.963 0.2793 0.0317   -0.040225
 C 0.8856 0.4518 0.0689   -0.207608
 C 0.8564 0.2879 0.9464   -0.201108
 C 0.5641 0.9512 0.7097   0.678787
 C 0.1474 0.7614 0.67054   0.359174
 C 0.6033 0.6105 0.23758   -0.078537
 C 0.4789 0.5995 0.225   -0.158123
 C 0.6452 0.6408 0.1536   -0.054376
 C 0.6944 0.58828 0.34095   0.667815
 C 0.5955 0.6736 0.9576   0.678773
 C 0.5578 0.6545 0.05403   -0.125367
 C 0.4332 0.6452 0.0407   -0.179521
 C 0.7162 0.3002 0.56437   0.680342
 C 0.8665 0.207 0.6611   -0.136446
 C 0.8904 0.1214 0.7119   0.243332
 C 0.7912 0.0377 0.726   -0.151148
 C 0.6666 0.0402 0.68839   -0.134041
 C 0.6403 0.1241 0.63468   -0.039827
 C 0.7414 0.2077 0.62143   -0.095279
 C 0.8496 0.6501 0.77713   0.338574
 C 0.3957 0.6198 0.12782   0.257105
 C 0.1782 0.9319 0.7934   -0.029266
 C 0.1463 0.0224 0.8135   -0.217287
 C 0.9632 0.9523 0.6283   -0.226458
 C 0.9961 0.8621 0.6086   -0.012713
 C 0.1036 0.852 0.6897   -0.115897
 C 0.9677 0.6432 0.86333   -0.097679
 C 0.1801 0.625 0.03397   0.260815
 C 0.0079 0.5574 0.84514   -0.016597
 C 0.0395 0.0315 0.7315   0.278991
 C 0.037 0.7207 0.9683   -0.040225
 C 0.1144 0.5482 0.9311   -0.207609
 C 0.1436 0.7121 0.0536   -0.201105
 N 0.72491 0.21811 0.29358   -0.333678
 N 0.72214 0.31794 0.32566   -0.035343
 N 0.84231 0.3954 0.38017   -0.088989
 N 0.92734 0.34742 0.38436   -0.296568
 N 0.19415 0.37646 0.33714   -0.293823
 N 0.3054 0.35943 0.38214   -0.085092
 N 0.32864 0.32533 0.29883   -0.054342
 N 0.23414 0.31832 0.1979   -0.316905
 N 0.27509 0.78189 0.70642   -0.33368
 N 0.27786 0.68206 0.67434   -0.035339
 N 0.15769 0.6046 0.61983   -0.088985
 N 0.07266 0.65258 0.61564   -0.296567
 N 0.80585 0.62354 0.66286   -0.293827
 N 0.6946 0.64057 0.61786   -0.085093
 N 0.67136 0.67467 0.70117   -0.054333
 N 0.76586 0.68168 0.8021   -0.316908
 O 0.41598 0.12762 0.25224   -0.548154
 O 0.18431 0.35619 0.61946   -0.555741
 O 0.35568 0.48794 0.61336   -0.637918
 O 0.28134 0.3077 0.01721   -0.488161
 O 0.48545 0.33039 0.13583   -0.542534
 O 0.18129 0.61079 0.41064   -0.594916
 O 0.3992 0.71879 0.50308   -0.606695
 O 0.72209 0.3867 0.87196   -0.246184
 O 0.98136 0.87202 0.2445   -0.246668
 O 0.54424 0.03336 0.3125   -0.483954
 O 0.58402 0.87238 0.74776   -0.548167
 O 0.81569 0.64381 0.38054   -0.555743
 O 0.64432 0.51206 0.38664   -0.63791
 O 0.71866 0.6923 0.98279   -0.488154
 O 0.51455 0.66961 0.86417   -0.542533
 O 0.81871 0.38921 0.58936   -0.594911
 O 0.6008 0.28121 0.49692   -0.606702
 O 0.27791 0.6133 0.12804   -0.246182
 O 0.01864 0.12798 0.7555   -0.246665
 O 0.45576 0.96664 0.6875   -0.483955
