{'_ref': 'TBD', '_srcid': 'CAKYAQ_clean', 'submitters': [{'name': 'Dalar Nazarian Jeff Camp and David Sholl', 'email': 'dalar@gatech.edu jcamp6@gatech.edu'}], '_method': 'VASP DFT with PBE;DDEC'}
data_NiH9C9(NO2)2
_symmetry_space_group_name_H-M   'P 1'
_cell_length_a   6.83710000
_cell_length_b   7.73080000
_cell_length_c   22.27210000
_cell_angle_alpha   90.00000000
_cell_angle_beta   90.00000000
_cell_angle_gamma   90.00000000
_symmetry_Int_Tables_number   1
_chemical_formula_structural   NiH9C9(NO2)2
_chemical_formula_sum   'Ni4 H36 C36 N8 O16'
_cell_volume   1177.21974531
_cell_formula_units_Z   4
loop_
 _symmetry_equiv_pos_site_id
 _symmetry_equiv_pos_as_xyz
  1  'x, y, z'
loop_
 _atom_site_label
 _atom_site_fract_x
 _atom_site_fract_y
 _atom_site_fract_z
 _atom_site_charge
 Ni 0.94392 0.74172 0.78741   0.863056
 Ni 0.05608 0.74172 0.21259   0.863056
 Ni 0.44392 0.25828 0.71259   0.863056
 Ni 0.55608 0.25828 0.28741   0.863056
 H 0.1554 0.6501 0.6997   0.317297
 H 0.095 0.8334 0.6886   0.314835
 H 0.8381 0.8861 0.6158   0.126269
 H 0.6452 0.7731 0.625   0.142283
 H 0.939 0.6064 0.6281   0.067447
 H 0.5241 0.7657 0.8281   0.089796
 H 0.3383 0.7326 0.9147   0.127295
 H 0.8191 0.6529 0.0074   0.117697
 H 0.9879 0.6291 0.9181   0.076689
 H 0.8446 0.6501 0.3003   0.317297
 H 0.905 0.8334 0.3114   0.314835
 H 0.1619 0.8861 0.3842   0.126268
 H 0.3548 0.7731 0.375   0.142282
 H 0.061 0.6064 0.3719   0.067447
 H 0.4759 0.7657 0.1719   0.089796
 H 0.6617 0.7326 0.0853   0.127295
 H 0.1809 0.6529 0.9926   0.117697
 H 0.0121 0.6291 0.0819   0.076689
 H 0.6554 0.3499 0.8003   0.317297
 H 0.595 0.1666 0.8114   0.314835
 H 0.3381 0.1139 0.8842   0.126269
 H 0.1452 0.2269 0.875   0.142283
 H 0.439 0.3936 0.8719   0.067447
 H 0.0241 0.2343 0.6719   0.089796
 H 0.8383 0.2674 0.5853   0.127295
 H 0.3191 0.3471 0.4926   0.117697
 H 0.4879 0.3709 0.5819   0.076689
 H 0.3446 0.3499 0.1997   0.317297
 H 0.405 0.1666 0.1886   0.314835
 H 0.6619 0.1139 0.1158   0.126268
 H 0.8548 0.2269 0.125   0.142282
 H 0.561 0.3936 0.1281   0.067447
 H 0.9759 0.2343 0.3281   0.089796
 H 0.1617 0.2674 0.4147   0.127295
 H 0.6809 0.3471 0.5074   0.117697
 H 0.5121 0.3709 0.4181   0.076689
 C 0.6959 0.942 0.69582   0.72101
 C 0.7631 0.8182 0.64561   -0.384692
 C 0.887 0.6656 0.66473   0.080491
 C 0.7627 0.5366 0.70098   0.613239
 C 0.588 0.7556 0.86578   0.177773
 C 0.4738 0.759 0.91691   -0.23033
 C 0.5572 0.7156 0.9717   0.104447
 C 0.7542 0.6779 0.9707   -0.217501
 C 0.8591 0.6753 0.9184   0.157138
 C 0.3041 0.942 0.30418   0.72101
 C 0.2369 0.8182 0.35439   -0.384692
 C 0.113 0.6656 0.33527   0.080491
 C 0.2373 0.5366 0.29902   0.613239
 C 0.412 0.7556 0.13422   0.177773
 C 0.5262 0.759 0.08309   -0.23033
 C 0.4428 0.7156 0.0283   0.104448
 C 0.2458 0.6779 0.0293   -0.217501
 C 0.1409 0.6753 0.0816   0.157138
 C 0.1959 0.058 0.80418   0.72101
 C 0.2631 0.1818 0.85439   -0.384692
 C 0.387 0.3344 0.83527   0.080491
 C 0.2627 0.4634 0.79902   0.613239
 C 0.088 0.2444 0.63422   0.177772
 C 0.9738 0.241 0.58309   -0.23033
 C 0.0572 0.2844 0.5283   0.104447
 C 0.2542 0.3221 0.5293   -0.217501
 C 0.3591 0.3247 0.5816   0.157138
 C 0.8041 0.058 0.19582   0.72101
 C 0.7369 0.1818 0.14561   -0.384692
 C 0.613 0.3344 0.16473   0.080491
 C 0.7373 0.4634 0.20098   0.613239
 C 0.912 0.2444 0.36578   0.177772
 C 0.0262 0.241 0.41691   -0.23033
 C 0.9428 0.2844 0.4717   0.104448
 C 0.7458 0.3221 0.4707   -0.217501
 C 0.6409 0.3247 0.4184   0.157138
 N 0.0527 0.7268 0.70155   -0.652242
 N 0.7794 0.7391 0.86588   -0.284291
 N 0.9473 0.7268 0.29845   -0.652242
 N 0.2206 0.7391 0.13412   -0.284291
 N 0.5527 0.2732 0.79845   -0.652242
 N 0.2794 0.2609 0.63412   -0.28429
 N 0.4473 0.2732 0.20155   -0.652242
 N 0.7206 0.2609 0.36588   -0.28429
 O 0.7363 0.9172 0.74976   -0.589777
 O 0.6 0.0676 0.67495   -0.609654
 O 0.6486 0.4384 0.67299   -0.572549
 O 0.7857 0.5387 0.75705   -0.555727
 O 0.2637 0.9172 0.25024   -0.589777
 O 0.4 0.0676 0.32505   -0.609654
 O 0.3514 0.4384 0.32701   -0.572549
 O 0.2143 0.5387 0.24295   -0.555727
 O 0.2363 0.0828 0.75024   -0.589777
 O 0.1 0.9324 0.82505   -0.609654
 O 0.1486 0.5616 0.82701   -0.572549
 O 0.2857 0.4613 0.74295   -0.555727
 O 0.7637 0.0828 0.24976   -0.589777
 O 0.9 0.9324 0.17495   -0.609654
 O 0.8514 0.5616 0.17299   -0.572549
 O 0.7143 0.4613 0.25705   -0.555727
