{'_ref': 'TBD', '_srcid': 'CAKYAQ_clean', 'submitters': [{'name': 'Dalar Nazarian Jeff Camp and David Sholl', 'email': 'dalar@gatech.edu jcamp6@gatech.edu'}], '_method': 'VASP DFT with PBE;DDEC'}
data_Zn2H6C6N9Cl
_symmetry_space_group_name_H-M   'P 1'
_cell_length_a   7.50930000
_cell_length_b   9.91200000
_cell_length_c   17.45700000
_cell_angle_alpha   90.00000000
_cell_angle_beta   90.00000000
_cell_angle_gamma   90.00000000
_symmetry_Int_Tables_number   1
_chemical_formula_structural   Zn2H6C6N9Cl
_chemical_formula_sum   'Zn8 H24 C24 N36 Cl4'
_cell_volume   1299.36259419
_cell_formula_units_Z   4
loop_
 _symmetry_equiv_pos_site_id
 _symmetry_equiv_pos_as_xyz
  1  'x, y, z'
loop_
 _atom_site_label
 _atom_site_fract_x
 _atom_site_fract_y
 _atom_site_fract_z
 _atom_site_charge
 Zn 0.47228 0.75 0.73402   0.565408
 Zn 0.02772 0.25 0.23402   0.565408
 Zn 0.52772 0.25 0.26598   0.565409
 Zn 0.97228 0.75 0.76598   0.565409
 Zn 0.61244 0.25 0.92227   0.782577
 Zn 0.88756 0.75 0.42227   0.782577
 Zn 0.38756 0.75 0.07773   0.782578
 Zn 0.11244 0.25 0.57773   0.782578
 H 0.937 0.0313 0.8775   0.082483
 H 0.4418 0.0442 0.8153   0.074273
 H 0.563 0.9687 0.3775   0.082483
 H 0.0582 0.9558 0.3153   0.074273
 H 0.063 0.5313 0.1225   0.082483
 H 0.5582 0.5442 0.1847   0.074273
 H 0.437 0.4687 0.6225   0.082483
 H 0.9418 0.4558 0.6847   0.074273
 H 0.063 0.9687 0.1225   0.082483
 H 0.5582 0.9558 0.1847   0.074272
 H 0.437 0.0313 0.6225   0.082483
 H 0.9418 0.0442 0.6847   0.074272
 H 0.937 0.4687 0.8775   0.082483
 H 0.4418 0.4558 0.8153   0.074272
 H 0.563 0.5313 0.3775   0.082483
 H 0.0582 0.5442 0.3153   0.074272
 H 0.5286 0.75 0.9177   0.073864
 H 0.0228 0.75 0.9618   0.074516
 H 0.9714 0.25 0.4177   0.073864
 H 0.4772 0.25 0.4618   0.074516
 H 0.4714 0.25 0.0823   0.073864
 H 0.9772 0.25 0.0382   0.074516
 H 0.0286 0.75 0.5823   0.073864
 H 0.5228 0.75 0.5382   0.074516
 C 0.8286 0.01 0.8548   0.228907
 C 0.5597 0.0172 0.8208   0.232026
 C 0.6714 0.99 0.3548   0.228907
 C 0.9403 0.9828 0.3208   0.232026
 C 0.1714 0.51 0.1452   0.228907
 C 0.4403 0.5172 0.1792   0.232026
 C 0.3286 0.49 0.6452   0.228907
 C 0.0597 0.4828 0.6792   0.232026
 C 0.1714 0.99 0.1452   0.228904
 C 0.4403 0.9828 0.1792   0.232023
 C 0.3286 0.01 0.6452   0.228904
 C 0.0597 0.0172 0.6792   0.232023
 C 0.8286 0.49 0.8548   0.228904
 C 0.5597 0.4828 0.8208   0.232023
 C 0.6714 0.51 0.3548   0.228904
 C 0.9403 0.5172 0.3208   0.232023
 C 0.4054 0.75 0.9123   0.227399
 C 0.1313 0.75 0.9361   0.232182
 C 0.0946 0.25 0.4123   0.227399
 C 0.3687 0.25 0.4361   0.232182
 C 0.5946 0.25 0.0877   0.227399
 C 0.8687 0.25 0.0639   0.232182
 C 0.9054 0.75 0.5877   0.227399
 C 0.6313 0.75 0.5639   0.232182
 N 0.6264 0.909 0.7882   -0.22352
 N 0.6795 0.0846 0.8628   -0.44167
 N 0.8026 0.9031 0.8108   -0.212035
 N 0.8736 0.091 0.2882   -0.22352
 N 0.8205 0.9154 0.3628   -0.44167
 N 0.6974 0.0969 0.3108   -0.212035
 N 0.3736 0.409 0.2118   -0.22352
 N 0.3205 0.5846 0.1372   -0.441671
 N 0.1974 0.4031 0.1892   -0.212035
 N 0.1264 0.591 0.7118   -0.22352
 N 0.1795 0.4154 0.6372   -0.441671
 N 0.3026 0.5969 0.6892   -0.212035
 N 0.3736 0.091 0.2118   -0.22352
 N 0.3205 0.9154 0.1372   -0.44167
 N 0.1974 0.0969 0.1892   -0.212033
 N 0.1264 0.909 0.7118   -0.22352
 N 0.1795 0.0846 0.6372   -0.44167
 N 0.3026 0.9031 0.6892   -0.212033
 N 0.6264 0.591 0.7882   -0.22352
 N 0.6795 0.4154 0.8628   -0.44167
 N 0.8026 0.5969 0.8108   -0.212033
 N 0.8736 0.409 0.2882   -0.22352
 N 0.8205 0.5846 0.3628   -0.44167
 N 0.6974 0.4031 0.3108   -0.212033
 N 0.3234 0.75 0.8454   -0.223209
 N 0.1465 0.75 0.8619   -0.204842
 N 0.2912 0.75 0.9718   -0.443882
 N 0.1766 0.25 0.3454   -0.223209
 N 0.3535 0.25 0.3619   -0.204842
 N 0.2088 0.25 0.4718   -0.443882
 N 0.6766 0.25 0.1546   -0.223209
 N 0.8535 0.25 0.1381   -0.204842
 N 0.7088 0.25 0.0282   -0.443882
 N 0.8234 0.75 0.6546   -0.223209
 N 0.6465 0.75 0.6381   -0.204842
 N 0.7912 0.75 0.5282   -0.443882
 Cl 0.3111 0.25 0.92879   -0.564937
 Cl 0.1889 0.75 0.42879   -0.564937
 Cl 0.6889 0.75 0.07121   -0.564937
 Cl 0.8111 0.25 0.57121   -0.564937
