{'_ref': 'TBD', '_srcid': 'CAKYAQ_clean', 'submitters': [{'name': 'Dalar Nazarian Jeff Camp and David Sholl', 'email': 'dalar@gatech.edu jcamp6@gatech.edu'}], '_method': 'VASP DFT with PBE;DDEC'}
data_ZnH5C6(N2O)2
_symmetry_space_group_name_H-M   'P 1'
_cell_length_a   12.66720000
_cell_length_b   12.66720000
_cell_length_c   25.43990000
_cell_angle_alpha   90.00000000
_cell_angle_beta   90.00000000
_cell_angle_gamma   90.00000000
_symmetry_Int_Tables_number   1
_chemical_formula_structural   ZnH5C6(N2O)2
_chemical_formula_sum   'Zn16 H80 C96 N64 O32'
_cell_volume   4082.03435077
_cell_formula_units_Z   16
loop_
 _symmetry_equiv_pos_site_id
 _symmetry_equiv_pos_as_xyz
  1  'x, y, z'
loop_
 _atom_site_label
 _atom_site_fract_x
 _atom_site_fract_y
 _atom_site_fract_z
 _atom_site_charge
 Zn 0.03948 0.93328 0.43741   0.818721
 Zn 0.46052 0.56672 0.43741   0.818721
 Zn 0.56672 0.03948 0.43741   0.81872
 Zn 0.93328 0.46052 0.43741   0.818721
 Zn 0.46052 0.93328 0.06259   0.818721
 Zn 0.03948 0.56672 0.06259   0.818721
 Zn 0.93328 0.03948 0.06259   0.81872
 Zn 0.56672 0.46052 0.06259   0.81872
 Zn 0.96052 0.06672 0.56259   0.81872
 Zn 0.53948 0.43328 0.56259   0.818721
 Zn 0.43328 0.96052 0.56259   0.81872
 Zn 0.06672 0.53948 0.56259   0.81872
 Zn 0.53948 0.06672 0.93741   0.81872
 Zn 0.96052 0.43328 0.93741   0.818721
 Zn 0.06672 0.96052 0.93741   0.81872
 Zn 0.43328 0.53948 0.93741   0.81872
 H 0.8603 0.9517 0.3539   0.35804
 H 0.7441 0.9695 0.3545   0.352729
 H 0.0701 0.925 0.2372   0.092188
 H 0.3166 0.9289 0.3346   0.094259
 H 0.7284 0.0593 0.5282   0.08594
 H 0.6397 0.5483 0.3539   0.35804
 H 0.7559 0.5305 0.3545   0.352729
 H 0.4299 0.575 0.2372   0.092188
 H 0.1834 0.5711 0.3346   0.094259
 H 0.7716 0.4407 0.5282   0.08594
 H 0.5483 0.8603 0.3539   0.358041
 H 0.5305 0.7441 0.3545   0.35273
 H 0.575 0.0701 0.2372   0.092188
 H 0.5711 0.3166 0.3346   0.094259
 H 0.4407 0.7284 0.5282   0.08594
 H 0.9517 0.6397 0.3539   0.358041
 H 0.9695 0.7559 0.3545   0.35273
 H 0.925 0.4299 0.2372   0.092188
 H 0.9289 0.1834 0.3346   0.09426
 H 0.0593 0.7716 0.5282   0.08594
 H 0.6397 0.9517 0.1461   0.358041
 H 0.7559 0.9695 0.1455   0.352729
 H 0.4299 0.925 0.2628   0.092189
 H 0.1834 0.9289 0.1654   0.09426
 H 0.7716 0.0593 0.9718   0.08594
 H 0.8603 0.5483 0.1461   0.358041
 H 0.7441 0.5305 0.1455   0.35273
 H 0.0701 0.575 0.2628   0.092189
 H 0.3166 0.5711 0.1654   0.09426
 H 0.7284 0.4407 0.9718   0.08594
 H 0.9517 0.8603 0.1461   0.358042
 H 0.9695 0.7441 0.1455   0.352731
 H 0.925 0.0701 0.2628   0.092189
 H 0.9289 0.3166 0.1654   0.09426
 H 0.0593 0.7284 0.9718   0.08594
 H 0.5483 0.6397 0.1461   0.358042
 H 0.5305 0.7559 0.1455   0.352731
 H 0.575 0.4299 0.2628   0.092189
 H 0.5711 0.1834 0.1654   0.09426
 H 0.4407 0.7716 0.9718   0.08594
 H 0.1397 0.0483 0.6461   0.35804
 H 0.2559 0.0305 0.6455   0.352729
 H 0.9299 0.075 0.7628   0.092188
 H 0.6834 0.0711 0.6654   0.094259
 H 0.2716 0.9407 0.4718   0.08594
 H 0.3603 0.4517 0.6461   0.35804
 H 0.2441 0.4695 0.6455   0.352729
 H 0.5701 0.425 0.7628   0.092188
 H 0.8166 0.4289 0.6654   0.094259
 H 0.2284 0.5593 0.4718   0.08594
 H 0.4517 0.1397 0.6461   0.358041
 H 0.4695 0.2559 0.6455   0.35273
 H 0.425 0.9299 0.7628   0.092188
 H 0.4289 0.6834 0.6654   0.094259
 H 0.5593 0.2716 0.4718   0.08594
 H 0.0483 0.3603 0.6461   0.358041
 H 0.0305 0.2441 0.6455   0.35273
 H 0.075 0.5701 0.7628   0.092188
 H 0.0711 0.8166 0.6654   0.094259
 H 0.9407 0.2284 0.4718   0.08594
 H 0.3603 0.0483 0.8539   0.358041
 H 0.2441 0.0305 0.8545   0.352729
 H 0.5701 0.075 0.7372   0.092189
 H 0.8166 0.0711 0.8346   0.09426
 H 0.2284 0.9407 0.0282   0.08594
 H 0.1397 0.4517 0.8539   0.358041
 H 0.2559 0.4695 0.8545   0.35273
 H 0.9299 0.425 0.7372   0.092189
 H 0.6834 0.4289 0.8346   0.09426
 H 0.2716 0.5593 0.0282   0.08594
 H 0.0483 0.1397 0.8539   0.358042
 H 0.0305 0.2559 0.8545   0.352731
 H 0.075 0.9299 0.7372   0.092189
 H 0.0711 0.6834 0.8346   0.09426
 H 0.9407 0.2716 0.0282   0.08594
 H 0.4517 0.3603 0.8539   0.358042
 H 0.4695 0.2441 0.8545   0.352731
 H 0.425 0.5701 0.7372   0.092189
 H 0.4289 0.8166 0.8346   0.09426
 H 0.5593 0.2284 0.0282   0.08594
 C 0.1071 0.9288 0.33889   0.67401
 C 0.1822 0.9269 0.29287   -0.123663
 C 0.1427 0.9263 0.2425   -0.054868
 C 0.2894 0.9276 0.30064   -0.053737
 C 0.8088 0.9958 0.42104   0.655964
 C 0.7679 0.0399 0.49889   0.271012
 C 0.3929 0.5712 0.33889   0.67401
 C 0.3178 0.5731 0.29287   -0.123663
 C 0.3573 0.5737 0.2425   -0.054868
 C 0.2106 0.5724 0.30064   -0.053737
 C 0.6912 0.5042 0.42104   0.655964
 C 0.7321 0.4601 0.49889   0.271012
 C 0.5712 0.1071 0.33889   0.67401
 C 0.5731 0.1822 0.29287   -0.123664
 C 0.5737 0.1427 0.2425   -0.054868
 C 0.5724 0.2894 0.30064   -0.053739
 C 0.5042 0.8088 0.42104   0.655965
 C 0.4601 0.7679 0.49889   0.271012
 C 0.9288 0.3929 0.33889   0.67401
 C 0.9269 0.3178 0.29287   -0.123664
 C 0.9263 0.3573 0.2425   -0.054868
 C 0.9276 0.2106 0.30064   -0.053739
 C 0.9958 0.6912 0.42104   0.655965
 C 0.0399 0.7321 0.49889   0.271012
 C 0.3929 0.9288 0.16111   0.67401
 C 0.3178 0.9269 0.20713   -0.123662
 C 0.3573 0.9263 0.2575   -0.054874
 C 0.2106 0.9276 0.19936   -0.053741
 C 0.6912 0.9958 0.07896   0.655964
 C 0.7321 0.0399 0.00111   0.271012
 C 0.1071 0.5712 0.16111   0.67401
 C 0.1822 0.5731 0.20713   -0.123662
 C 0.1427 0.5737 0.2575   -0.054874
 C 0.2894 0.5724 0.19936   -0.053742
 C 0.8088 0.5042 0.07896   0.655964
 C 0.7679 0.4601 0.00111   0.271012
 C 0.9288 0.1071 0.16111   0.674009
 C 0.9269 0.1822 0.20713   -0.123662
 C 0.9263 0.1427 0.2575   -0.054874
 C 0.9276 0.2894 0.19936   -0.053743
 C 0.9958 0.8088 0.07896   0.655965
 C 0.0399 0.7679 0.00111   0.271012
 C 0.5712 0.3929 0.16111   0.674009
 C 0.5731 0.3178 0.20713   -0.123662
 C 0.5737 0.3573 0.2575   -0.054874
 C 0.5724 0.2106 0.19936   -0.053743
 C 0.5042 0.6912 0.07896   0.655965
 C 0.4601 0.7321 0.00111   0.271012
 C 0.8929 0.0712 0.66111   0.67401
 C 0.8178 0.0731 0.70713   -0.123663
 C 0.8573 0.0737 0.7575   -0.054868
 C 0.7106 0.0724 0.69936   -0.053737
 C 0.1912 0.0042 0.57896   0.655964
 C 0.2321 0.9601 0.50111   0.271012
 C 0.6071 0.4288 0.66111   0.67401
 C 0.6822 0.4269 0.70713   -0.123663
 C 0.6427 0.4263 0.7575   -0.054868
 C 0.7894 0.4276 0.69936   -0.053737
 C 0.3088 0.4958 0.57896   0.655964
 C 0.2679 0.5399 0.50111   0.271012
 C 0.4288 0.8929 0.66111   0.67401
 C 0.4269 0.8178 0.70713   -0.123664
 C 0.4263 0.8573 0.7575   -0.054868
 C 0.4276 0.7106 0.69936   -0.053739
 C 0.4958 0.1912 0.57896   0.655965
 C 0.5399 0.2321 0.50111   0.271013
 C 0.0712 0.6071 0.66111   0.67401
 C 0.0731 0.6822 0.70713   -0.123664
 C 0.0737 0.6427 0.7575   -0.054868
 C 0.0724 0.7894 0.69936   -0.053739
 C 0.0042 0.3088 0.57896   0.655965
 C 0.9601 0.2679 0.50111   0.271013
 C 0.6071 0.0712 0.83889   0.67401
 C 0.6822 0.0731 0.79287   -0.123662
 C 0.6427 0.0737 0.7425   -0.054874
 C 0.7894 0.0724 0.80064   -0.053741
 C 0.3088 0.0042 0.92104   0.655964
 C 0.2679 0.9601 0.99889   0.271012
 C 0.8929 0.4288 0.83889   0.67401
 C 0.8178 0.4269 0.79287   -0.123662
 C 0.8573 0.4263 0.7425   -0.054874
 C 0.7106 0.4276 0.80064   -0.053742
 C 0.1912 0.4958 0.92104   0.655964
 C 0.2321 0.5399 0.99889   0.271012
 C 0.0712 0.8929 0.83889   0.674009
 C 0.0731 0.8178 0.79287   -0.123662
 C 0.0737 0.8573 0.7425   -0.054874
 C 0.0724 0.7106 0.80064   -0.053743
 C 0.0042 0.1912 0.92104   0.655965
 C 0.9601 0.2321 0.99889   0.271013
 C 0.4288 0.6071 0.83889   0.674009
 C 0.4269 0.6822 0.79287   -0.123662
 C 0.4263 0.6427 0.7425   -0.054874
 C 0.4276 0.7894 0.80064   -0.053743
 C 0.4958 0.3088 0.92104   0.655965
 C 0.5399 0.2679 0.99889   0.271013
 N 0.7248 0.0225 0.45087   -0.551703
 N 0.8698 0.027 0.50008   -0.259051
 N 0.8985 0.9975 0.44919   -0.426304
 N 0.8038 0.9692 0.37054   -0.72912
 N 0.7752 0.4775 0.45087   -0.551703
 N 0.6302 0.473 0.50008   -0.259051
 N 0.6015 0.5025 0.44919   -0.426305
 N 0.6962 0.5308 0.37054   -0.72912
 N 0.4775 0.7248 0.45087   -0.551703
 N 0.473 0.8698 0.50008   -0.259051
 N 0.5025 0.8985 0.44919   -0.426305
 N 0.5308 0.8038 0.37054   -0.729121
 N 0.0225 0.7752 0.45087   -0.551703
 N 0.027 0.6302 0.50008   -0.259051
 N 0.9975 0.6015 0.44919   -0.426305
 N 0.9692 0.6962 0.37054   -0.729121
 N 0.7752 0.0225 0.04913   -0.551703
 N 0.6302 0.027 0.99992   -0.259051
 N 0.6015 0.9975 0.05081   -0.426305
 N 0.6962 0.9692 0.12946   -0.72912
 N 0.7248 0.4775 0.04913   -0.551703
 N 0.8698 0.473 0.99992   -0.259051
 N 0.8985 0.5025 0.05081   -0.426305
 N 0.8038 0.5308 0.12946   -0.72912
 N 0.0225 0.7248 0.04913   -0.551703
 N 0.027 0.8698 0.99992   -0.259051
 N 0.9975 0.8985 0.05081   -0.426305
 N 0.9692 0.8038 0.12946   -0.729121
 N 0.4775 0.7752 0.04913   -0.551703
 N 0.473 0.6302 0.99992   -0.259051
 N 0.5025 0.6015 0.05081   -0.426305
 N 0.5308 0.6962 0.12946   -0.729121
 N 0.2752 0.9775 0.54913   -0.551703
 N 0.1302 0.973 0.49992   -0.259051
 N 0.1015 0.0025 0.55081   -0.426304
 N 0.1962 0.0308 0.62946   -0.72912
 N 0.2248 0.5225 0.54913   -0.551703
 N 0.3698 0.527 0.49992   -0.259051
 N 0.3985 0.4975 0.55081   -0.426304
 N 0.3038 0.4692 0.62946   -0.72912
 N 0.5225 0.2752 0.54913   -0.551703
 N 0.527 0.1302 0.49992   -0.259051
 N 0.4975 0.1015 0.55081   -0.426305
 N 0.4692 0.1962 0.62946   -0.729121
 N 0.9775 0.2248 0.54913   -0.551703
 N 0.973 0.3698 0.49992   -0.259051
 N 0.0025 0.3985 0.55081   -0.426305
 N 0.0308 0.3038 0.62946   -0.729121
 N 0.2248 0.9775 0.95087   -0.551703
 N 0.3698 0.973 7.9999999997e-05   -0.259051
 N 0.3985 0.0025 0.94919   -0.426304
 N 0.3038 0.0308 0.87054   -0.72912
 N 0.2752 0.5225 0.95087   -0.551703
 N 0.1302 0.527 7.9999999997e-05   -0.259051
 N 0.1015 0.4975 0.94919   -0.426304
 N 0.1962 0.4692 0.87054   -0.72912
 N 0.9775 0.2752 0.95087   -0.551703
 N 0.973 0.1302 7.9999999997e-05   -0.259051
 N 0.0025 0.1015 0.94919   -0.426305
 N 0.0308 0.1962 0.87054   -0.729121
 N 0.5225 0.2248 0.95087   -0.551703
 N 0.527 0.3698 7.9999999997e-05   -0.259051
 N 0.4975 0.3985 0.94919   -0.426305
 N 0.4692 0.3038 0.87054   -0.729121
 O 0.1467 0.948 0.38348   -0.593187
 O 0.0118 0.9117 0.33257   -0.611226
 O 0.3533 0.552 0.38348   -0.593187
 O 0.4882 0.5883 0.33257   -0.611226
 O 0.552 0.1467 0.38348   -0.593187
 O 0.5883 0.0118 0.33257   -0.611226
 O 0.948 0.3533 0.38348   -0.593187
 O 0.9117 0.4882 0.33257   -0.611226
 O 0.3533 0.948 0.11652   -0.593187
 O 0.4882 0.9117 0.16743   -0.611226
 O 0.1467 0.552 0.11652   -0.593187
 O 0.0118 0.5883 0.16743   -0.611226
 O 0.948 0.1467 0.11652   -0.593187
 O 0.9117 0.0118 0.16743   -0.611226
 O 0.552 0.3533 0.11652   -0.593187
 O 0.5883 0.4882 0.16743   -0.611226
 O 0.8533 0.052 0.61652   -0.593187
 O 0.9882 0.0883 0.66743   -0.611226
 O 0.6467 0.448 0.61652   -0.593187
 O 0.5118 0.4117 0.66743   -0.611226
 O 0.448 0.8533 0.61652   -0.593187
 O 0.4117 0.9882 0.66743   -0.611226
 O 0.052 0.6467 0.61652   -0.593187
 O 0.0883 0.5118 0.66743   -0.611226
 O 0.6467 0.052 0.88348   -0.593187
 O 0.5118 0.0883 0.83257   -0.611226
 O 0.8533 0.448 0.88348   -0.593187
 O 0.9882 0.4117 0.83257   -0.611226
 O 0.052 0.8533 0.88348   -0.593187
 O 0.0883 0.9882 0.83257   -0.611226
 O 0.448 0.6467 0.88348   -0.593187
 O 0.4117 0.5118 0.83257   -0.611226
