{'_ref': 'TBD', '_srcid': 'CAKYAQ_clean', 'submitters': [{'name': 'Dalar Nazarian Jeff Camp and David Sholl', 'email': 'dalar@gatech.edu jcamp6@gatech.edu'}], '_method': 'VASP DFT with PBE;DDEC'}
data_NiH9C9(NO2)2
_symmetry_space_group_name_H-M   'P 1'
_cell_length_a   6.79070000
_cell_length_b   7.73870000
_cell_length_c   22.24500000
_cell_angle_alpha   90.00000000
_cell_angle_beta   90.00000000
_cell_angle_gamma   90.00000000
_symmetry_Int_Tables_number   1
_chemical_formula_structural   NiH9C9(NO2)2
_chemical_formula_sum   'Ni4 H36 C36 N8 O16'
_cell_volume   1169.00122355
_cell_formula_units_Z   4
loop_
 _symmetry_equiv_pos_site_id
 _symmetry_equiv_pos_as_xyz
  1  'x, y, z'
loop_
 _atom_site_label
 _atom_site_fract_x
 _atom_site_fract_y
 _atom_site_fract_z
 _atom_site_charge
 Ni 0.94965 0.74155 0.78723   0.859768
 Ni 0.05035 0.74155 0.21277   0.859768
 Ni 0.44965 0.25845 0.71277   0.859768
 Ni 0.55035 0.25845 0.28723   0.859768
 H 0.1614 0.6566 0.699   0.317443
 H 0.0962 0.8342 0.6882   0.313555
 H 0.8317 0.8795 0.6153   0.125877
 H 0.645 0.7664 0.6267   0.142284
 H 0.9437 0.6066 0.6282   0.066793
 H 0.5292 0.7759 0.8294   0.085782
 H 0.3427 0.7823 0.914   0.134169
 H 0.8107 0.6124 0.0045   0.128833
 H 0.9796 0.6098 0.9165   0.071654
 H 0.8386 0.6566 0.301   0.317443
 H 0.9038 0.8342 0.3118   0.313555
 H 0.1683 0.8795 0.3847   0.125877
 H 0.355 0.7664 0.3733   0.142283
 H 0.0563 0.6066 0.3718   0.066794
 H 0.4708 0.7759 0.1706   0.085782
 H 0.6573 0.7823 0.086   0.134169
 H 0.1893 0.6124 0.9955   0.128833
 H 0.0204 0.6098 0.0835   0.071654
 H 0.6614 0.3434 0.801   0.317443
 H 0.5962 0.1658 0.8118   0.313555
 H 0.3317 0.1205 0.8847   0.125877
 H 0.145 0.2336 0.8733   0.142284
 H 0.4437 0.3934 0.8718   0.066794
 H 0.0292 0.2241 0.6706   0.085782
 H 0.8427 0.2177 0.586   0.134168
 H 0.3107 0.3876 0.4955   0.128832
 H 0.4796 0.3902 0.5835   0.071654
 H 0.3386 0.3434 0.199   0.317443
 H 0.4038 0.1658 0.1882   0.313555
 H 0.6683 0.1205 0.1153   0.125877
 H 0.855 0.2336 0.1267   0.142283
 H 0.5563 0.3934 0.1282   0.066794
 H 0.9708 0.2241 0.3294   0.085782
 H 0.1573 0.2177 0.414   0.134169
 H 0.6893 0.3876 0.5045   0.128833
 H 0.5204 0.3902 0.4165   0.071654
 C 0.6956 0.9389 0.69511   0.721655
 C 0.7619 0.8134 0.64566   -0.382692
 C 0.8918 0.6636 0.6642   0.082491
 C 0.7708 0.5333 0.70095   0.615681
 C 0.591 0.7579 0.86619   0.17631
 C 0.4768 0.7592 0.91691   -0.215951
 C 0.5589 0.7267 0.97154   0.095769
 C 0.7539 0.658 0.9699   -0.224698
 C 0.8552 0.66 0.9176   0.152294
 C 0.3044 0.9389 0.30489   0.721654
 C 0.2381 0.8134 0.35434   -0.382692
 C 0.1082 0.6636 0.3358   0.082491
 C 0.2292 0.5333 0.29905   0.615681
 C 0.409 0.7579 0.13381   0.17631
 C 0.5232 0.7592 0.08309   -0.215951
 C 0.4411 0.7267 0.02846   0.095769
 C 0.2461 0.658 0.0301   -0.224698
 C 0.1448 0.66 0.0824   0.152294
 C 0.1956 0.0611 0.80489   0.721654
 C 0.2619 0.1866 0.85434   -0.382692
 C 0.3918 0.3364 0.8358   0.082491
 C 0.2708 0.4667 0.79905   0.615681
 C 0.091 0.2421 0.63381   0.17631
 C 0.9768 0.2408 0.58309   -0.215951
 C 0.0589 0.2733 0.52846   0.095769
 C 0.2539 0.342 0.5301   -0.224698
 C 0.3552 0.34 0.5824   0.152294
 C 0.8044 0.0611 0.19511   0.721654
 C 0.7381 0.1866 0.14566   -0.382691
 C 0.6082 0.3364 0.1642   0.082491
 C 0.7292 0.4667 0.20095   0.615681
 C 0.909 0.2421 0.36619   0.17631
 C 0.0232 0.2408 0.41691   -0.215951
 C 0.9411 0.2733 0.47154   0.095769
 C 0.7461 0.342 0.4699   -0.224698
 C 0.6448 0.34 0.4176   0.152294
 N 0.058 0.729 0.70098   -0.652779
 N 0.7819 0.733 0.86618   -0.282795
 N 0.942 0.729 0.29902   -0.652779
 N 0.2181 0.733 0.13382   -0.282795
 N 0.558 0.271 0.79902   -0.652779
 N 0.2819 0.267 0.63382   -0.282795
 N 0.442 0.271 0.20098   -0.652779
 N 0.7181 0.267 0.36618   -0.282795
 O 0.7949 0.5362 0.75689   -0.557013
 O 0.6587 0.434 0.67301   -0.572097
 O 0.7358 0.9127 0.74939   -0.594673
 O 0.5996 0.0645 0.67468   -0.607658
 O 0.2051 0.5362 0.24311   -0.557013
 O 0.3413 0.434 0.32699   -0.572097
 O 0.2642 0.9127 0.25061   -0.594673
 O 0.4004 0.0645 0.32532   -0.607658
 O 0.2949 0.4638 0.74311   -0.557013
 O 0.1587 0.566 0.82699   -0.572097
 O 0.2358 0.0873 0.75061   -0.594673
 O 0.0996 0.9355 0.82532   -0.607658
 O 0.7051 0.4638 0.25689   -0.557013
 O 0.8413 0.566 0.17301   -0.572097
 O 0.7642 0.0873 0.24939   -0.594673
 O 0.9004 0.9355 0.17468   -0.607658
