{'_ref': 'TBD', '_srcid': 'CAKYAQ_clean', 'submitters': [{'name': 'Dalar Nazarian Jeff Camp and David Sholl', 'email': 'dalar@gatech.edu jcamp6@gatech.edu'}], '_method': 'VASP DFT with PBE;DDEC'}
data_Cd3H12C15N9O4
_symmetry_space_group_name_H-M   'P 1'
_cell_length_a   10.19800000
_cell_length_b   13.28500047
_cell_length_c   22.36700000
_cell_angle_alpha   90.00000000
_cell_angle_beta   90.00000000
_cell_angle_gamma   97.77499901
_symmetry_Int_Tables_number   1
_chemical_formula_structural   Cd3H12C15N9O4
_chemical_formula_sum   'Cd12 H48 C60 N36 O16'
_cell_volume   3002.43331583
_cell_formula_units_Z   4
loop_
 _symmetry_equiv_pos_site_id
 _symmetry_equiv_pos_as_xyz
  1  'x, y, z'
loop_
 _atom_site_label
 _atom_site_fract_x
 _atom_site_fract_y
 _atom_site_fract_z
 _atom_site_charge
 Cd 0.2068 0.31683 0.58015   0.873102
 Cd 0.21163 0.21535 0.74358   0.593275
 Cd 0.66231 0.00876 0.60692   0.476183
 Cd 0.7932 0.18317 0.08015   0.873102
 Cd 0.78837 0.28465 0.24358   0.593275
 Cd 0.33769 0.49124 0.10692   0.476183
 Cd 0.7932 0.68317 0.41985   0.873103
 Cd 0.78837 0.78465 0.25642   0.593275
 Cd 0.33769 0.99124 0.39308   0.476183
 Cd 0.2068 0.81683 0.91985   0.873103
 Cd 0.21163 0.71535 0.75642   0.593275
 Cd 0.66231 0.50876 0.89308   0.476183
 H 0.0404 0.4915 0.4148   0.083899
 H 0.0544 0.5712 0.3212   0.09607
 H 0.4439 0.6491 0.3467   0.098502
 H 0.4292 0.5663 0.4391   0.105508
 H 0.1903 0.4608 0.7947   0.075243
 H 0.243 0.5625 0.6337   0.08578
 H 0.8897 0.0844 0.7194   0.082987
 H 0.8961 0.199 0.5619   0.079429
 H 0.4621 0.0842 0.7042   0.092171
 H 0.4694 0.1753 0.5405   0.058601
 H 0.3248 0.728 0.2647   0.140545
 H 0.1756 0.6866 0.2533   0.12448
 H 0.9596 0.0085 0.9148   0.083899
 H 0.9456 0.9288 0.8212   0.09607
 H 0.5561 0.8509 0.8467   0.098502
 H 0.5708 0.9337 0.9391   0.105508
 H 0.8097 0.0392 0.2947   0.075243
 H 0.757 0.9375 0.1337   0.08578
 H 0.1103 0.4156 0.2194   0.082987
 H 0.1039 0.301 0.0619   0.079429
 H 0.5379 0.4158 0.2042   0.092171
 H 0.5306 0.3247 0.0405   0.058601
 H 0.6752 0.772 0.7647   0.140545
 H 0.8244 0.8134 0.7533   0.12448
 H 0.9596 0.5085 0.5852   0.083899
 H 0.9456 0.4288 0.6788   0.09607
 H 0.5561 0.3509 0.6533   0.098502
 H 0.5708 0.4337 0.5609   0.105508
 H 0.8097 0.5392 0.2053   0.075243
 H 0.757 0.4375 0.3663   0.08578
 H 0.1103 0.9156 0.2806   0.082987
 H 0.1039 0.801 0.4381   0.079429
 H 0.5379 0.9158 0.2958   0.092171
 H 0.5306 0.8247 0.4595   0.058601
 H 0.6752 0.272 0.7353   0.140545
 H 0.8244 0.3134 0.7467   0.12448
 H 0.0404 0.9915 0.0852   0.083899
 H 0.0544 0.0712 0.1788   0.09607
 H 0.4439 0.1491 0.1533   0.098502
 H 0.4292 0.0663 0.0609   0.105508
 H 0.1903 0.9608 0.7053   0.075243
 H 0.243 0.0625 0.8663   0.08578
 H 0.8897 0.5844 0.7806   0.082987
 H 0.8961 0.699 0.9381   0.079429
 H 0.4621 0.5842 0.7958   0.092171
 H 0.4694 0.6753 0.9595   0.058601
 H 0.3248 0.228 0.2353   0.140545
 H 0.1756 0.1866 0.2467   0.12448
 C 0.2325 0.5181 0.4345   -0.140502
 C 0.1221 0.5217 0.4007   -0.013274
 C 0.1298 0.5707 0.3445   -0.203989
 C 0.2525 0.6184 0.3245   0.142969
 C 0.3625 0.6167 0.3598   -0.175671
 C 0.3542 0.5667 0.4155   -0.02974
 C 0.2215 0.456 0.4912   0.651193
 C 0.3012 0.5978 0.2146   0.711675
 C 0.2041 0.4644 0.7536   0.241108
 C 0.2326 0.5193 0.6666   0.259196
 C 0.9166 0.1214 0.6852   0.247509
 C 0.9199 0.183 0.6006   0.237942
 C 0.442 0.1167 0.6692   0.233108
 C 0.4465 0.1658 0.5806   0.239115
 C 0.261 0.6668 0.2634   -0.365703
 C 0.7675 0.9819 0.9345   -0.140502
 C 0.8779 0.9783 0.9007   -0.013274
 C 0.8702 0.9293 0.8445   -0.203989
 C 0.7475 0.8816 0.8245   0.142969
 C 0.6375 0.8833 0.8598   -0.175671
 C 0.6458 0.9333 0.9155   -0.02974
 C 0.7785 0.044 0.9912   0.651193
 C 0.6988 0.9022 0.7146   0.711675
 C 0.7959 0.0356 0.2536   0.241108
 C 0.7674 0.9807 0.1666   0.259196
 C 0.0834 0.3786 0.1852   0.247509
 C 0.0801 0.317 0.1006   0.237942
 C 0.558 0.3833 0.1692   0.233108
 C 0.5535 0.3342 0.0806   0.239115
 C 0.739 0.8332 0.7634   -0.365703
 C 0.7675 0.4819 0.5655   -0.140502
 C 0.8779 0.4783 0.5993   -0.013274
 C 0.8702 0.4293 0.6555   -0.203989
 C 0.7475 0.3816 0.6755   0.142969
 C 0.6375 0.3833 0.6402   -0.175671
 C 0.6458 0.4333 0.5845   -0.02974
 C 0.7785 0.544 0.5088   0.651193
 C 0.6988 0.4022 0.7854   0.711675
 C 0.7959 0.5356 0.2464   0.241108
 C 0.7674 0.4807 0.3334   0.259196
 C 0.0834 0.8786 0.3148   0.247509
 C 0.0801 0.817 0.3994   0.237942
 C 0.558 0.8833 0.3308   0.233108
 C 0.5535 0.8342 0.4194   0.239114
 C 0.739 0.3332 0.7366   -0.365703
 C 0.2325 0.0181 0.0655   -0.140502
 C 0.1221 0.0217 0.0993   -0.013274
 C 0.1298 0.0707 0.1555   -0.203989
 C 0.2525 0.1184 0.1755   0.142969
 C 0.3625 0.1167 0.1402   -0.175671
 C 0.3542 0.0667 0.0845   -0.02974
 C 0.2215 0.956 0.0088   0.651193
 C 0.3012 0.0978 0.2854   0.711675
 C 0.2041 0.9644 0.7464   0.241108
 C 0.2326 0.0193 0.8334   0.259196
 C 0.9166 0.6214 0.8148   0.247509
 C 0.9199 0.683 0.8994   0.237942
 C 0.442 0.6167 0.8308   0.233108
 C 0.4465 0.6658 0.9194   0.239114
 C 0.261 0.1668 0.2366   -0.365703
 N 0.2157 0.3839 0.7204   -0.240293
 N 0.2344 0.4208 0.6629   -0.250735
 N 0.2139 0.5517 0.723   -0.418642
 N 0.0309 0.1797 0.6813   -0.24114
 N 0.0322 0.2204 0.6247   -0.293549
 N 0.842 0.1199 0.6358   -0.365711
 N 0.3522 0.1802 0.6662   -0.235289
 N 0.3555 0.2126 0.6078   -0.286581
 N 0.5006 0.1043 0.6167   -0.375993
 N 0.7843 0.1161 0.2204   -0.240293
 N 0.7656 0.0792 0.1629   -0.250735
 N 0.7861 0.9483 0.223   -0.418642
 N 0.9691 0.3203 0.1813   -0.24114
 N 0.9678 0.2796 0.1247   -0.293549
 N 0.158 0.3801 0.1358   -0.365711
 N 0.6478 0.3198 0.1662   -0.235289
 N 0.6445 0.2874 0.1078   -0.286581
 N 0.4994 0.3957 0.1167   -0.375993
 N 0.7843 0.6161 0.2796   -0.240293
 N 0.7656 0.5792 0.3371   -0.250735
 N 0.7861 0.4483 0.277   -0.418642
 N 0.9691 0.8203 0.3187   -0.24114
 N 0.9678 0.7796 0.3753   -0.293549
 N 0.158 0.8801 0.3642   -0.365711
 N 0.6478 0.8198 0.3338   -0.235289
 N 0.6445 0.7874 0.3922   -0.286581
 N 0.4994 0.8957 0.3833   -0.375993
 N 0.2157 0.8839 0.7796   -0.240293
 N 0.2344 0.9208 0.8371   -0.250735
 N 0.2139 0.0517 0.777   -0.418642
 N 0.0309 0.6797 0.8187   -0.24114
 N 0.0322 0.7204 0.8753   -0.293549
 N 0.842 0.6199 0.8642   -0.365711
 N 0.3522 0.6802 0.8338   -0.235289
 N 0.3555 0.7126 0.8922   -0.286581
 N 0.5006 0.6043 0.8833   -0.375993
 O 0.3261 0.4363 0.5151   -0.59411
 O 0.1108 0.4202 0.5108   -0.587997
 O 0.3635 0.5258 0.2264   -0.611249
 O 0.2701 0.6172 0.1622   -0.599421
 O 0.6739 0.0637 0.0151   -0.59411
 O 0.8892 0.0798 0.0108   -0.587997
 O 0.6365 0.9742 0.7264   -0.611249
 O 0.7299 0.8828 0.6622   -0.599421
 O 0.6739 0.5637 0.4849   -0.59411
 O 0.8892 0.5798 0.4892   -0.587997
 O 0.6365 0.4742 0.7736   -0.611249
 O 0.7299 0.3828 0.8378   -0.599421
 O 0.3261 0.9363 0.9849   -0.59411
 O 0.1108 0.9202 0.9892   -0.587997
 O 0.3635 0.0258 0.2736   -0.611249
 O 0.2701 0.1172 0.3378   -0.599421
