{'_ref': 'TBD', '_srcid': 'CAKYAQ_clean', 'submitters': [{'name': 'Dalar Nazarian Jeff Camp and David Sholl', 'email': 'dalar@gatech.edu jcamp6@gatech.edu'}], '_method': 'VASP DFT with PBE;DDEC'}
data_Zn4H12C24O13
_symmetry_space_group_name_H-M   'P 1'
_cell_length_a   18.14011736
_cell_length_b   18.14011736
_cell_length_c   18.14011736
_cell_angle_alpha   60.00000000
_cell_angle_beta   60.00000000
_cell_angle_gamma   60.00000000
_symmetry_Int_Tables_number   1
_chemical_formula_structural   Zn4H12C24O13
_chemical_formula_sum   'Zn8 H24 C48 O26'
_cell_volume   4220.90210657
_cell_formula_units_Z   2
loop_
 _symmetry_equiv_pos_site_id
 _symmetry_equiv_pos_as_xyz
  1  'x, y, z'
loop_
 _atom_site_label
 _atom_site_fract_x
 _atom_site_fract_y
 _atom_site_fract_z
 _atom_site_charge
 Zn 0.61917 0.79361 0.79361   0.982743
 Zn 0.79361 0.79361 0.79361   0.982742
 Zn 0.79361 0.79361 0.61917   0.982743
 Zn 0.79361 0.61917 0.79361   0.982743
 Zn 0.20639 0.20639 0.20639   0.982745
 Zn 0.38083 0.20639 0.20639   0.982746
 Zn 0.20639 0.20639 0.38083   0.982746
 Zn 0.20639 0.38083 0.20639   0.982746
 H 0.42027 0.95967 0.66039   0.091153
 H 0.95967 0.66039 0.95967   0.091153
 H 0.66039 0.95967 0.42027   0.091153
 H 0.95967 0.42027 0.95967   0.091153
 H 0.42027 0.95967 0.95967   0.091152
 H 0.95967 0.42027 0.66039   0.091152
 H 0.66039 0.95967 0.95967   0.091152
 H 0.95967 0.66039 0.42027   0.091152
 H 0.42027 0.66039 0.95967   0.091151
 H 0.95967 0.95967 0.42027   0.091151
 H 0.66039 0.42027 0.95967   0.091151
 H 0.95967 0.95967 0.66039   0.091151
 H 0.04033 0.04033 0.33961   0.091124
 H 0.57973 0.33961 0.04033   0.091123
 H 0.04033 0.04033 0.57973   0.091123
 H 0.33961 0.57973 0.04033   0.091123
 H 0.33961 0.04033 0.04033   0.091123
 H 0.04033 0.57973 0.33961   0.091123
 H 0.57973 0.04033 0.04033   0.091123
 H 0.04033 0.33961 0.57973   0.091123
 H 0.04033 0.33961 0.04033   0.091122
 H 0.33961 0.04033 0.57973   0.091122
 H 0.04033 0.57973 0.04033   0.091122
 H 0.57973 0.04033 0.33961   0.091122
 C 0.4608 0.977 0.5852   -0.065292
 C 0.977 0.5852 0.977   -0.065292
 C 0.5852 0.977 0.4608   -0.065292
 C 0.977 0.4608 0.977   -0.065292
 C 0.4608 0.977 0.977   -0.065291
 C 0.977 0.4608 0.5852   -0.065291
 C 0.5852 0.977 0.977   -0.065292
 C 0.977 0.5852 0.4608   -0.065292
 C 0.4608 0.5852 0.977   -0.065291
 C 0.977 0.977 0.4608   -0.065291
 C 0.5852 0.4608 0.977   -0.065291
 C 0.977 0.977 0.5852   -0.065292
 C 0.023 0.023 0.4148   -0.064974
 C 0.5392 0.4148 0.023   -0.064974
 C 0.023 0.023 0.5392   -0.064974
 C 0.4148 0.5392 0.023   -0.064974
 C 0.4148 0.023 0.023   -0.064974
 C 0.023 0.5392 0.4148   -0.064974
 C 0.5392 0.023 0.023   -0.064974
 C 0.023 0.4148 0.5392   -0.064974
 C 0.023 0.4148 0.023   -0.064974
 C 0.4148 0.023 0.5392   -0.064974
 C 0.023 0.5392 0.023   -0.064974
 C 0.5392 0.023 0.4148   -0.064974
 C 0.6152 0.8848 0.6152   0.537237
 C 0.5562 0.9438 0.5562   -0.029421
 C 0.8848 0.6152 0.8848   0.537237
 C 0.9438 0.5562 0.9438   -0.029421
 C 0.6152 0.8848 0.8848   0.537237
 C 0.5562 0.9438 0.9438   -0.029422
 C 0.8848 0.6152 0.6152   0.537237
 C 0.9438 0.5562 0.5562   -0.029422
 C 0.6152 0.6152 0.8848   0.537238
 C 0.5562 0.5562 0.9438   -0.029422
 C 0.8848 0.8848 0.6152   0.537238
 C 0.9438 0.9438 0.5562   -0.029422
 C 0.1152 0.1152 0.3848   0.537257
 C 0.0562 0.0562 0.4438   -0.02954
 C 0.3848 0.3848 0.1152   0.537257
 C 0.4438 0.4438 0.0562   -0.02954
 C 0.3848 0.1152 0.1152   0.537257
 C 0.4438 0.0562 0.0562   -0.02954
 C 0.1152 0.3848 0.3848   0.537257
 C 0.0562 0.4438 0.4438   -0.02954
 C 0.1152 0.3848 0.1152   0.537258
 C 0.0562 0.4438 0.0562   -0.02954
 C 0.3848 0.1152 0.3848   0.537258
 C 0.4438 0.0562 0.4438   -0.02954
 O 0.5626 0.8666 0.7042   -0.511049
 O 0.8666 0.7042 0.8666   -0.511049
 O 0.7042 0.8666 0.5626   -0.511049
 O 0.8666 0.5626 0.8666   -0.511049
 O 0.5626 0.8666 0.8666   -0.511049
 O 0.8666 0.5626 0.7042   -0.511049
 O 0.7042 0.8666 0.8666   -0.511049
 O 0.8666 0.7042 0.5626   -0.511049
 O 0.5626 0.7042 0.8666   -0.511049
 O 0.8666 0.8666 0.5626   -0.511049
 O 0.7042 0.5626 0.8666   -0.511049
 O 0.8666 0.8666 0.7042   -0.511049
 O 0.1334 0.1334 0.2958   -0.511053
 O 0.4374 0.2958 0.1334   -0.511053
 O 0.1334 0.1334 0.4374   -0.511054
 O 0.2958 0.4374 0.1334   -0.511053
 O 0.2958 0.1334 0.1334   -0.511053
 O 0.1334 0.4374 0.2958   -0.511053
 O 0.4374 0.1334 0.1334   -0.511054
 O 0.1334 0.2958 0.4374   -0.511053
 O 0.1334 0.2958 0.1334   -0.511053
 O 0.2958 0.1334 0.4374   -0.511053
 O 0.1334 0.4374 0.1334   -0.511054
 O 0.4374 0.1334 0.2958   -0.511053
 O 0.75 0.75 0.75   -1.157016
 O 0.25 0.25 0.25   -1.157019
