{'_ref': 'TBD', '_srcid': 'CAKYAQ_clean', 'submitters': [{'name': 'Dalar Nazarian Jeff Camp and David Sholl', 'email': 'dalar@gatech.edu jcamp6@gatech.edu'}], '_method': 'VASP DFT with PBE;DDEC'}
data_Zn4H12C24O13
_symmetry_space_group_name_H-M   'P 1'
_cell_length_a   18.06162851
_cell_length_b   18.06162851
_cell_length_c   18.06162851
_cell_angle_alpha   60.00000000
_cell_angle_beta   60.00000000
_cell_angle_gamma   60.00000000
_symmetry_Int_Tables_number   1
_chemical_formula_structural   Zn4H12C24O13
_chemical_formula_sum   'Zn8 H24 C48 O26'
_cell_volume   4166.3496945
_cell_formula_units_Z   2
loop_
 _symmetry_equiv_pos_site_id
 _symmetry_equiv_pos_as_xyz
  1  'x, y, z'
loop_
 _atom_site_label
 _atom_site_fract_x
 _atom_site_fract_y
 _atom_site_fract_z
 _atom_site_charge
 Zn 0.79368 0.61896 0.79368   1.098638
 Zn 0.79368 0.79368 0.61896   1.098638
 Zn 0.79368 0.79368 0.79368   1.098636
 Zn 0.61896 0.79368 0.79368   1.098637
 Zn 0.20632 0.38104 0.20632   1.09864
 Zn 0.20632 0.20632 0.38104   1.09864
 Zn 0.38104 0.20632 0.20632   1.09864
 Zn 0.20632 0.20632 0.20632   1.098639
 H 0.96 0.65422 0.96   0.065214
 H 0.42578 0.96 0.65422   0.065213
 H 0.96 0.42578 0.96   0.065213
 H 0.65422 0.96 0.42578   0.065213
 H 0.65422 0.96 0.96   0.065213
 H 0.96 0.65422 0.42578   0.065213
 H 0.42578 0.96 0.96   0.065213
 H 0.96 0.42578 0.65422   0.065213
 H 0.96 0.96 0.65422   0.065212
 H 0.65422 0.42578 0.96   0.065212
 H 0.96 0.96 0.42578   0.065212
 H 0.42578 0.65422 0.96   0.065212
 H 0.57422 0.34578 0.04   0.065188
 H 0.04 0.04 0.34578   0.065189
 H 0.34578 0.57422 0.04   0.065188
 H 0.04 0.04 0.57422   0.065188
 H 0.57422 0.04 0.04   0.065188
 H 0.04 0.34578 0.57422   0.065187
 H 0.34578 0.04 0.04   0.065188
 H 0.04 0.57422 0.34578   0.065187
 H 0.57422 0.04 0.34578   0.065187
 H 0.04 0.57422 0.04   0.065187
 H 0.34578 0.04 0.57422   0.065187
 H 0.04 0.34578 0.04   0.065187
 C 0.9762 0.5792 0.9762   -0.053734
 C 0.4684 0.9762 0.5792   -0.053734
 C 0.9762 0.4684 0.9762   -0.053734
 C 0.5792 0.9762 0.4684   -0.053734
 C 0.5792 0.9762 0.9762   -0.053734
 C 0.9762 0.5792 0.4684   -0.053733
 C 0.4684 0.9762 0.9762   -0.053734
 C 0.9762 0.4684 0.5792   -0.053734
 C 0.9762 0.9762 0.5792   -0.053734
 C 0.5792 0.4684 0.9762   -0.053733
 C 0.9762 0.9762 0.4684   -0.053734
 C 0.4684 0.5792 0.9762   -0.053733
 C 0.5316 0.4208 0.0238   -0.053478
 C 0.0238 0.0238 0.4208   -0.053478
 C 0.4208 0.5316 0.0238   -0.053478
 C 0.0238 0.0238 0.5316   -0.053478
 C 0.5316 0.0238 0.0238   -0.053478
 C 0.0238 0.4208 0.5316   -0.053478
 C 0.4208 0.0238 0.0238   -0.053478
 C 0.0238 0.5316 0.4208   -0.053478
 C 0.5316 0.0238 0.4208   -0.053477
 C 0.0238 0.5316 0.0238   -0.053477
 C 0.4208 0.0238 0.5316   -0.053478
 C 0.0238 0.4208 0.0238   -0.053478
 C 0.8874 0.6126 0.8874   0.665508
 C 0.9448 0.5552 0.9448   -0.034556
 C 0.6126 0.8874 0.6126   0.665508
 C 0.5552 0.9448 0.5552   -0.034556
 C 0.6126 0.8874 0.8874   0.665508
 C 0.5552 0.9448 0.9448   -0.034556
 C 0.8874 0.6126 0.6126   0.665508
 C 0.9448 0.5552 0.5552   -0.034556
 C 0.8874 0.8874 0.6126   0.665508
 C 0.9448 0.9448 0.5552   -0.034557
 C 0.6126 0.6126 0.8874   0.665509
 C 0.5552 0.5552 0.9448   -0.034556
 C 0.3874 0.3874 0.1126   0.665523
 C 0.4448 0.4448 0.0552   -0.034658
 C 0.1126 0.1126 0.3874   0.665523
 C 0.0552 0.0552 0.4448   -0.034658
 C 0.3874 0.1126 0.1126   0.665523
 C 0.4448 0.0552 0.0552   -0.034658
 C 0.1126 0.3874 0.3874   0.665523
 C 0.0552 0.4448 0.4448   -0.034658
 C 0.3874 0.1126 0.3874   0.665523
 C 0.4448 0.0552 0.4448   -0.034658
 C 0.1126 0.3874 0.1126   0.665523
 C 0.0552 0.4448 0.0552   -0.034659
 O 0.8657 0.5695 0.8657   -0.586949
 O 0.6991 0.8657 0.5695   -0.586948
 O 0.8657 0.6991 0.8657   -0.586948
 O 0.5695 0.8657 0.6991   -0.586948
 O 0.5695 0.8657 0.8657   -0.586949
 O 0.8657 0.5695 0.6991   -0.586948
 O 0.6991 0.8657 0.8657   -0.586948
 O 0.8657 0.6991 0.5695   -0.586948
 O 0.8657 0.8657 0.5695   -0.586949
 O 0.5695 0.6991 0.8657   -0.586948
 O 0.8657 0.8657 0.6991   -0.586948
 O 0.6991 0.5695 0.8657   -0.586948
 O 0.3009 0.4305 0.1343   -0.586951
 O 0.1343 0.1343 0.4305   -0.586952
 O 0.4305 0.3009 0.1343   -0.586951
 O 0.1343 0.1343 0.3009   -0.586951
 O 0.3009 0.1343 0.1343   -0.586951
 O 0.1343 0.4305 0.3009   -0.586951
 O 0.4305 0.1343 0.1343   -0.586952
 O 0.1343 0.3009 0.4305   -0.586951
 O 0.3009 0.1343 0.4305   -0.586951
 O 0.1343 0.3009 0.1343   -0.586951
 O 0.4305 0.1343 0.3009   -0.586951
 O 0.1343 0.4305 0.1343   -0.586952
 O 0.75 0.75 0.75   -1.275738
 O 0.25 0.25 0.25   -1.27574
