{'_ref': 'TBD', '_srcid': 'CAKYAQ_clean', 'submitters': [{'name': 'Dalar Nazarian Jeff Camp and David Sholl', 'email': 'dalar@gatech.edu jcamp6@gatech.edu'}], '_method': 'VASP DFT with PBE;DDEC'}
data_Zn4H6C24O13
_symmetry_space_group_name_H-M   'P 1'
_cell_length_a   18.12599959
_cell_length_b   18.12599984
_cell_length_c   18.12600000
_cell_angle_alpha   59.99999970
_cell_angle_beta   59.99999926
_cell_angle_gamma   60.00000100
_symmetry_Int_Tables_number   1
_chemical_formula_structural   Zn4H6C24O13
_chemical_formula_sum   'Zn8 H12 C48 O26'
_cell_volume   4211.05501635
_cell_formula_units_Z   2
loop_
 _symmetry_equiv_pos_site_id
 _symmetry_equiv_pos_as_xyz
  1  'x, y, z'
loop_
 _atom_site_label
 _atom_site_fract_x
 _atom_site_fract_y
 _atom_site_fract_z
 _atom_site_charge
 Zn 0.04333 0.04333 0.04333   1.158567
 Zn 0.04333 0.04333 0.87001   1.158569
 Zn 0.04333 0.87001 0.04333   1.158569
 Zn 0.87001 0.04333 0.04333   1.158569
 Zn 0.45668 0.45668 0.62996   1.163386
 Zn 0.45668 0.45668 0.45668   1.163385
 Zn 0.62996 0.45668 0.45668   1.163386
 Zn 0.45668 0.62996 0.45668   1.163386
 H 0.2923 0.2923 0.8145   0.105105
 H 0.2923 0.2923 0.6009   0.105105
 H 0.8145 0.6009 0.2923   0.105105
 H 0.6009 0.8145 0.2923   0.105105
 H 0.2923 0.8145 0.6009   0.105104
 H 0.2923 0.6009 0.8145   0.105104
 H 0.8145 0.2923 0.2923   0.105104
 H 0.6009 0.2923 0.2923   0.105104
 H 0.2923 0.6009 0.2923   0.105104
 H 0.2923 0.8145 0.2923   0.105104
 H 0.8145 0.2923 0.6009   0.105104
 H 0.6009 0.2923 0.8145   0.105104
 C 0.225 0.225 0.8384   0.016235
 C 0.2756 0.2756 0.7856   -0.044579
 C 0.225 0.225 0.7116   0.016235
 C 0.2756 0.2756 0.6632   -0.044579
 C 0.8384 0.7116 0.225   0.016235
 C 0.7856 0.6632 0.2756   -0.044579
 C 0.7116 0.8384 0.225   0.016235
 C 0.6632 0.7856 0.2756   -0.044579
 C 0.225 0.8384 0.7116   0.016234
 C 0.2756 0.7856 0.6632   -0.044578
 C 0.225 0.7116 0.8384   0.016234
 C 0.2756 0.6632 0.7856   -0.044578
 C 0.8384 0.225 0.225   0.016234
 C 0.7856 0.2756 0.2756   -0.044578
 C 0.7116 0.225 0.225   0.016234
 C 0.6632 0.2756 0.2756   -0.044578
 C 0.225 0.7116 0.225   0.016234
 C 0.2756 0.6632 0.2756   -0.044578
 C 0.225 0.8384 0.225   0.016234
 C 0.2756 0.7856 0.2756   -0.044578
 C 0.8384 0.225 0.7116   0.016234
 C 0.7856 0.2756 0.6632   -0.044578
 C 0.7116 0.225 0.8384   0.016234
 C 0.6632 0.2756 0.7856   -0.044578
 C 0.1365 0.1365 0.8635   0.711095
 C 0.2005 0.2005 0.7995   -0.114641
 C 0.3584 0.3584 0.6416   0.755584
 C 0.3079 0.3079 0.6921   -0.108455
 C 0.8635 0.8635 0.1365   0.711095
 C 0.7995 0.7995 0.2005   -0.114641
 C 0.6416 0.6416 0.3584   0.755584
 C 0.6921 0.6921 0.3079   -0.108455
 C 0.1365 0.8635 0.8635   0.711095
 C 0.2005 0.7995 0.7995   -0.114641
 C 0.3584 0.6416 0.6416   0.755584
 C 0.3079 0.6921 0.6921   -0.108455
 C 0.8635 0.1365 0.1365   0.711095
 C 0.7995 0.2005 0.2005   -0.114641
 C 0.6416 0.3584 0.3584   0.755585
 C 0.6921 0.3079 0.3079   -0.108456
 C 0.1365 0.8635 0.1365   0.711095
 C 0.2005 0.7995 0.2005   -0.114641
 C 0.3584 0.6416 0.3584   0.755585
 C 0.3079 0.6921 0.3079   -0.108456
 C 0.8635 0.1365 0.8635   0.711095
 C 0.7995 0.2005 0.7995   -0.114641
 C 0.6416 0.3584 0.6416   0.755585
 C 0.6921 0.3079 0.6921   -0.108455
 O 0.5 0.5 0.5   -1.305685
 O 0.0 0.0 0.0   -1.321994
 O 0.1145 0.1145 0.9463   -0.60449
 O 0.3833 0.3833 0.6771   -0.649073
 O 0.1145 0.1145 0.8247   -0.604491
 O 0.3833 0.3833 0.5563   -0.649072
 O 0.9463 0.8247 0.1145   -0.60449
 O 0.6771 0.5563 0.3833   -0.649073
 O 0.8247 0.9463 0.1145   -0.604491
 O 0.5563 0.6771 0.3833   -0.649073
 O 0.1145 0.9463 0.8247   -0.60449
 O 0.3833 0.6771 0.5563   -0.649073
 O 0.1145 0.8247 0.9463   -0.60449
 O 0.3833 0.5563 0.6771   -0.649073
 O 0.9463 0.1145 0.1145   -0.60449
 O 0.6771 0.3833 0.3833   -0.649073
 O 0.8247 0.1145 0.1145   -0.604491
 O 0.5563 0.3833 0.3833   -0.649072
 O 0.1145 0.8247 0.1145   -0.604491
 O 0.3833 0.5563 0.3833   -0.649072
 O 0.1145 0.9463 0.1145   -0.60449
 O 0.3833 0.6771 0.3833   -0.649073
 O 0.9463 0.1145 0.8247   -0.60449
 O 0.6771 0.3833 0.5563   -0.649073
 O 0.8247 0.1145 0.9463   -0.604491
 O 0.5563 0.3833 0.6771   -0.649073
