{'_ref': 'TBD', '_srcid': 'CAKYAQ_clean', 'submitters': [{'name': 'Dalar Nazarian Jeff Camp and David Sholl', 'email': 'dalar@gatech.edu jcamp6@gatech.edu'}], '_method': 'VASP DFT with PBE;DDEC'}
data_NiH24C26N7
_symmetry_space_group_name_H-M   'P 1'
_cell_length_a   8.63200002
_cell_length_b   13.52039979
_cell_length_c   13.52040000
_cell_angle_alpha   95.33569857
_cell_angle_beta   96.97579758
_cell_angle_gamma   96.97580070
_symmetry_Int_Tables_number   1
_chemical_formula_structural   NiH24C26N7
_chemical_formula_sum   'Ni2 H48 C52 N14'
_cell_volume   1545.34171637
_cell_formula_units_Z   2
loop_
 _symmetry_equiv_pos_site_id
 _symmetry_equiv_pos_as_xyz
  1  'x, y, z'
loop_
 _atom_site_label
 _atom_site_fract_x
 _atom_site_fract_y
 _atom_site_fract_z
 _atom_site_charge
 Ni 0.75 0.67731 0.32269   0.542223
 Ni 0.25 0.32269 0.67731   0.542223
 H 0.5087 0.602 0.1338   0.075904
 H 0.4873 0.6013 0.9605   0.111195
 H 0.9265 0.756 0.996   0.120359
 H 0.9364 0.7513 0.1677   0.075321
 H 0.6121 0.7085 0.8223   0.085509
 H 0.6663 0.6031 0.8177   0.098377
 H 0.675 0.8129 0.5001   0.077382
 H 0.7075 0.8298 0.676   0.115198
 H 0.9208 0.5786 0.6714   0.116181
 H 0.8994 0.5732 0.4982   0.077995
 H 0.8658 0.7797 0.8333   0.081331
 H 0.9199 0.6743 0.8285   0.076603
 H 0.9913 0.8662 0.398   0.075904
 H 0.0127 0.0395 0.3987   0.111195
 H 0.5735 0.004 0.244   0.120358
 H 0.5636 0.8323 0.2487   0.075321
 H 0.8879 0.1777 0.2915   0.085509
 H 0.8337 0.1823 0.3969   0.098377
 H 0.825 0.4999 0.1871   0.077382
 H 0.7925 0.324 0.1702   0.115198
 H 0.5792 0.3286 0.4214   0.116181
 H 0.6006 0.5018 0.4268   0.077995
 H 0.6342 0.1667 0.2203   0.081331
 H 0.5801 0.1715 0.3257   0.076603
 H 0.4913 0.398 0.8662   0.075904
 H 0.5127 0.3987 0.0395   0.111194
 H 0.0735 0.244 0.004   0.120359
 H 0.0636 0.2487 0.8323   0.075321
 H 0.3879 0.2915 0.1777   0.08551
 H 0.3337 0.3969 0.1823   0.098378
 H 0.325 0.1871 0.4999   0.077381
 H 0.2925 0.1702 0.324   0.115196
 H 0.0792 0.4214 0.3286   0.116181
 H 0.1006 0.4268 0.5018   0.077996
 H 0.1342 0.2203 0.1667   0.081333
 H 0.0801 0.3257 0.1715   0.076602
 H 0.0087 0.1338 0.602   0.075904
 H 0.9873 0.9605 0.6013   0.111194
 H 0.4265 0.996 0.756   0.120359
 H 0.4364 0.1677 0.7513   0.075321
 H 0.1121 0.8223 0.7085   0.08551
 H 0.1663 0.8177 0.6031   0.098378
 H 0.175 0.5001 0.8129   0.077382
 H 0.2075 0.676 0.8298   0.115196
 H 0.4208 0.6714 0.5786   0.116181
 H 0.3994 0.4982 0.5732   0.077996
 H 0.3658 0.8333 0.7797   0.081333
 H 0.4199 0.8285 0.6743   0.076602
 C 0.5955 0.6331 0.1049   0.123924
 C 0.5836 0.6326 0.0026   -0.243751
 C 0.7062 0.677 0.9588   0.135514
 C 0.8388 0.7228 0.0226   -0.262922
 C 0.8445 0.7196 0.1248   0.132695
 C 0.6952 0.6742 0.8458   -0.157881
 C 0.8554 0.6255 0.5345   0.118838
 C 0.8693 0.6291 0.6383   -0.220797
 C 0.8158 0.7045 0.6931   0.132935
 C 0.7449 0.7738 0.6402   -0.252372
 C 0.7283 0.7642 0.5356   0.125619
 C 0.8335 0.7122 0.8058   -0.144404
 C 0.3846 0.6535 0.3451   0.535283
 C 0.9045 0.8951 0.3669   0.123924
 C 0.9164 0.9974 0.3674   -0.243752
 C 0.7938 0.0412 0.323   0.135515
 C 0.6612 0.9774 0.2772   -0.26292
 C 0.6555 0.8752 0.2804   0.132696
 C 0.8048 0.1542 0.3258   -0.157881
 C 0.6446 0.4655 0.3745   0.118838
 C 0.6307 0.3617 0.3709   -0.220797
 C 0.6842 0.3069 0.2955   0.132935
 C 0.7551 0.3598 0.2262   -0.252372
 C 0.7717 0.4644 0.2358   0.125619
 C 0.6665 0.1942 0.2878   -0.144404
 C 0.1154 0.6549 0.3465   0.535284
 C 0.4045 0.3669 0.8951   0.123924
 C 0.4164 0.3674 0.9974   -0.243751
 C 0.2938 0.323 0.0412   0.135514
 C 0.1612 0.2772 0.9774   -0.262923
 C 0.1555 0.2804 0.8752   0.132695
 C 0.3048 0.3258 0.1542   -0.157881
 C 0.1446 0.3745 0.4655   0.118838
 C 0.1307 0.3709 0.3617   -0.220797
 C 0.1842 0.2955 0.3069   0.132935
 C 0.2551 0.2262 0.3598   -0.252372
 C 0.2717 0.2358 0.4644   0.125619
 C 0.1665 0.2878 0.1942   -0.144404
 C 0.6154 0.3465 0.6549   0.535283
 C 0.0955 0.1049 0.6331   0.123924
 C 0.0836 0.0026 0.6326   -0.243752
 C 0.2062 0.9588 0.677   0.135515
 C 0.3388 0.0226 0.7228   -0.26292
 C 0.3445 0.1248 0.7196   0.132696
 C 0.1952 0.8458 0.6742   -0.157881
 C 0.3554 0.5345 0.6255   0.118838
 C 0.3693 0.6383 0.6291   -0.220797
 C 0.3158 0.6931 0.7045   0.132935
 C 0.2449 0.6402 0.7738   -0.252372
 C 0.2283 0.5356 0.7642   0.125619
 C 0.3335 0.8058 0.7122   -0.144405
 C 0.8846 0.3451 0.6535   0.535284
 N 0.7255 0.6746 0.1664   -0.280662
 N 0.7831 0.691 0.4828   -0.266869
 N 0.5098 0.6697 0.3283   -0.578789
 N 0.7745 0.8336 0.3254   -0.280662
 N 0.7169 0.5172 0.309   -0.266869
 N 0.9902 0.6717 0.3303   -0.578789
 N 0.25 0.6256 0.3744   -0.557658
 N 0.2745 0.3254 0.8336   -0.280662
 N 0.2169 0.309 0.5172   -0.266869
 N 0.4902 0.3303 0.6717   -0.578789
 N 0.2255 0.1664 0.6746   -0.280662
 N 0.2831 0.4828 0.691   -0.266869
 N 0.0098 0.3283 0.6697   -0.578789
 N 0.75 0.3744 0.6256   -0.557658
