{'_ref': 'TBD', '_srcid': 'CAKYAQ_clean', 'submitters': [{'name': 'Dalar Nazarian Jeff Camp and David Sholl', 'email': 'dalar@gatech.edu jcamp6@gatech.edu'}], '_method': 'VASP DFT with PBE;DDEC'}
data_MnH16C24(NO2)2
_symmetry_space_group_name_H-M   'P 1'
_cell_length_a   8.58099987
_cell_length_b   12.34680000
_cell_length_c   12.34680026
_cell_angle_alpha   74.72299963
_cell_angle_beta   74.59320017
_cell_angle_gamma   74.59299805
_symmetry_Int_Tables_number   1
_chemical_formula_structural   MnH16C24(NO2)2
_chemical_formula_sum   'Mn2 H32 C48 N4 O8'
_cell_volume   1189.31279521
_cell_formula_units_Z   2
loop_
 _symmetry_equiv_pos_site_id
 _symmetry_equiv_pos_as_xyz
  1  'x, y, z'
loop_
 _atom_site_label
 _atom_site_fract_x
 _atom_site_fract_y
 _atom_site_fract_z
 _atom_site_charge
 Mn 0.75 0.07847 0.92153   1.047804
 Mn 0.25 0.92153 0.07847   1.047804
 H 0.2552 0.0539 0.3651   0.088707
 H 0.8069 0.1314 0.6412   0.073276
 H 0.0081 0.1436 0.4774   0.127611
 H 0.1175 0.1129 0.8275   0.072075
 H 0.3259 0.131 0.6684   0.125132
 H 0.6649 0.1656 0.186   0.086894
 H 0.4539 0.2347 0.4987   0.103911
 H 0.659 0.255 0.333   0.102518
 H 0.2448 0.6349 0.9461   0.088699
 H 0.6931 0.3588 0.8686   0.073277
 H 0.4919 0.5226 0.8564   0.127612
 H 0.3825 0.1725 0.8871   0.072076
 H 0.1741 0.3316 0.869   0.125125
 H 0.8351 0.814 0.8344   0.086899
 H 0.0461 0.5013 0.7653   0.103913
 H 0.841 0.667 0.745   0.10252
 H 0.7448 0.9461 0.6349   0.088706
 H 0.1931 0.8686 0.3588   0.073275
 H 0.9919 0.8564 0.5226   0.12761
 H 0.8825 0.8871 0.1725   0.072075
 H 0.6741 0.869 0.3316   0.125132
 H 0.3351 0.8344 0.814   0.086894
 H 0.5461 0.7653 0.5013   0.103912
 H 0.341 0.745 0.667   0.102518
 H 0.7552 0.3651 0.0539   0.088698
 H 0.3069 0.6412 0.1314   0.073276
 H 0.5081 0.4774 0.1436   0.127612
 H 0.6175 0.8275 0.1129   0.072076
 H 0.8259 0.6684 0.131   0.125125
 H 0.1649 0.186 0.1656   0.086899
 H 0.9539 0.4987 0.2347   0.103914
 H 0.159 0.333 0.255   0.10252
 C 0.4623 0.09923 0.26197   -0.14551
 C 0.4713 0.03894 0.16802   0.683275
 C 0.3366 0.09315 0.35951   -0.066445
 C 0.3292 0.14448 0.44954   0.000911
 C 0.1955 0.13666 0.55274   0.125775
 C 0.9136 0.12911 0.64711   0.182774
 C 0.034 0.13743 0.54763   -0.236048
 C 0.0949 0.11915 0.75621   0.193334
 C 0.2219 0.12917 0.66037   -0.223018
 C 0.5815 0.15958 0.25178   -0.019044
 C 0.5766 0.2114 0.34   -0.11683
 C 0.4535 0.20213 0.43893   -0.100857
 C 0.0377 0.73803 0.90077   -0.145514
 C 0.0287 0.83198 0.96106   0.68325
 C 0.1634 0.64049 0.90685   -0.066421
 C 0.1708 0.55046 0.85552   0.000893
 C 0.3045 0.44726 0.86334   0.12577
 C 0.5864 0.35289 0.87089   0.182764
 C 0.466 0.45237 0.86257   -0.23605
 C 0.4051 0.24379 0.88085   0.193321
 C 0.2781 0.33963 0.87083   -0.223002
 C 0.9185 0.74822 0.84042   -0.019055
 C 0.9234 0.66 0.7886   -0.116829
 C 0.0465 0.56107 0.79787   -0.100851
 C 0.5377 0.90077 0.73803   -0.14551
 C 0.5287 0.96106 0.83198   0.683275
 C 0.6634 0.90685 0.64049   -0.066447
 C 0.6708 0.85552 0.55046   0.000911
 C 0.8045 0.86334 0.44726   0.125774
 C 0.0864 0.87089 0.35289   0.182774
 C 0.966 0.86257 0.45237   -0.236048
 C 0.9051 0.88085 0.24379   0.193334
 C 0.7781 0.87083 0.33963   -0.223019
 C 0.4185 0.84042 0.74822   -0.019045
 C 0.4234 0.7886 0.66   -0.116831
 C 0.5465 0.79787 0.56107   -0.100857
 C 0.9623 0.26197 0.09923   -0.145514
 C 0.9713 0.16802 0.03894   0.68325
 C 0.8366 0.35951 0.09315   -0.066422
 C 0.8292 0.44954 0.14448   0.000893
 C 0.6955 0.55274 0.13666   0.125769
 C 0.4136 0.64711 0.12911   0.182765
 C 0.534 0.54763 0.13743   -0.23605
 C 0.5949 0.75621 0.11915   0.193321
 C 0.7219 0.66037 0.12917   -0.223003
 C 0.0815 0.25178 0.15958   -0.019055
 C 0.0766 0.34 0.2114   -0.11683
 C 0.9535 0.43893 0.20213   -0.100851
 N 0.9415 0.118 0.75178   -0.369613
 N 0.5585 0.24822 0.882   -0.369593
 N 0.0585 0.882 0.24822   -0.369613
 N 0.4415 0.75178 0.118   -0.369593
 O 0.3565 0.98792 0.18158   -0.615189
 O 0.5928 0.03996 0.0865   -0.597537
 O 0.1435 0.81842 0.01208   -0.615165
 O 0.9072 0.9135 0.96004   -0.597539
 O 0.6435 0.01208 0.81842   -0.615189
 O 0.4072 0.96004 0.9135   -0.597537
 O 0.8565 0.18158 0.98792   -0.615164
 O 0.0928 0.0865 0.03996   -0.597539
