{'_ref': 'TBD', '_srcid': 'CAKYAQ_clean', 'submitters': [{'name': 'Dalar Nazarian Jeff Camp and David Sholl', 'email': 'dalar@gatech.edu jcamp6@gatech.edu'}], '_method': 'VASP DFT with PBE;DDEC'}
data_ZnH18C18(NO)4
_symmetry_space_group_name_H-M   'P 1'
_cell_length_a   16.20450000
_cell_length_b   17.60220000
_cell_length_c   17.90250000
_cell_angle_alpha   90.00000000
_cell_angle_beta   90.00000000
_cell_angle_gamma   90.00000000
_symmetry_Int_Tables_number   1
_chemical_formula_structural   ZnH18C18(NO)4
_chemical_formula_sum   'Zn8 H144 C144 N32 O32'
_cell_volume   5106.41690033
_cell_formula_units_Z   8
loop_
 _symmetry_equiv_pos_site_id
 _symmetry_equiv_pos_as_xyz
  1  'x, y, z'
loop_
 _atom_site_label
 _atom_site_fract_x
 _atom_site_fract_y
 _atom_site_fract_z
 _atom_site_charge
 Zn 0.27479 0.89917 0.61703   0.902432
 Zn 0.77479 0.60083 0.38297   0.902432
 Zn 0.77479 0.39917 0.88297   0.902432
 Zn 0.27479 0.10083 0.11703   0.902432
 Zn 0.22521 0.60083 0.11703   0.902432
 Zn 0.72521 0.89917 0.88297   0.902432
 Zn 0.72521 0.10083 0.38297   0.902432
 Zn 0.22521 0.39917 0.61703   0.902432
 H 0.2867 0.0756 0.5785   0.307517
 H 0.15 0.0086 0.195   0.275411
 H 0.2252 0.8522 0.4453   0.140109
 H 0.3215 0.8513 0.4535   0.143085
 H 0.281 0.8779 0.3784   0.139302
 H 0.2616 0.19 0.5108   0.145773
 H 0.2093 0.1788 0.4379   0.149563
 H 0.3057 0.1848 0.433   0.137691
 H 0.096 0.9136 0.3087   0.140215
 H 0.0514 0.9922 0.317   0.142419
 H 0.1027 0.959 0.3837   0.141223
 H 0.4093 0.091 0.253   0.140513
 H 0.3963 0.0947 0.3397   0.131319
 H 0.3622 0.1598 0.2887   0.149431
 H 0.084 0.739 0.5521   0.099852
 H 0.9897 0.6783 0.4761   0.09724
 H 0.896 0.8788 0.4153   0.085201
 H 0.985 0.9392 0.4964   0.092454
 H 0.7867 0.4244 0.4215   0.307517
 H 0.65 0.4914 0.805   0.275411
 H 0.7252 0.6478 0.5547   0.140109
 H 0.8215 0.6487 0.5465   0.143085
 H 0.781 0.6221 0.6216   0.139302
 H 0.7616 0.31 0.4892   0.145773
 H 0.7093 0.3212 0.5621   0.149563
 H 0.8057 0.3152 0.567   0.137691
 H 0.596 0.5864 0.6913   0.140215
 H 0.5514 0.5078 0.683   0.142419
 H 0.6027 0.541 0.6163   0.141223
 H 0.9093 0.409 0.747   0.140513
 H 0.8963 0.4053 0.6603   0.131319
 H 0.8622 0.3402 0.7113   0.149431
 H 0.584 0.761 0.4479   0.099852
 H 0.4897 0.8217 0.5239   0.09724
 H 0.396 0.6212 0.5847   0.085201
 H 0.485 0.5608 0.5036   0.092454
 H 0.7867 0.5756 0.9215   0.307517
 H 0.65 0.5086 0.305   0.275411
 H 0.7252 0.3522 0.0547   0.140109
 H 0.8215 0.3513 0.0465   0.143085
 H 0.781 0.3779 0.1216   0.139302
 H 0.7616 0.69 0.9892   0.145773
 H 0.7093 0.6788 0.0621   0.149563
 H 0.8057 0.6848 0.067   0.137691
 H 0.596 0.4136 0.1913   0.140215
 H 0.5514 0.4922 0.183   0.142419
 H 0.6027 0.459 0.1163   0.141223
 H 0.9093 0.591 0.247   0.140513
 H 0.8963 0.5947 0.1603   0.131319
 H 0.8622 0.6598 0.2113   0.149431
 H 0.584 0.239 0.9479   0.099852
 H 0.4897 0.1783 0.0239   0.09724
 H 0.396 0.3788 0.0847   0.085201
 H 0.485 0.4392 0.0036   0.092454
 H 0.2867 0.9244 0.0785   0.307517
 H 0.15 0.9914 0.695   0.275411
 H 0.2252 0.1478 0.9453   0.140109
 H 0.3215 0.1487 0.9535   0.143085
 H 0.281 0.1221 0.8784   0.139302
 H 0.2616 0.81 0.0108   0.145773
 H 0.2093 0.8212 0.9379   0.149563
 H 0.3057 0.8152 0.933   0.137691
 H 0.096 0.0864 0.8087   0.140215
 H 0.0514 0.0078 0.817   0.142419
 H 0.1027 0.041 0.8837   0.141223
 H 0.4093 0.909 0.753   0.140513
 H 0.3963 0.9053 0.8397   0.131319
 H 0.3622 0.8402 0.7887   0.149431
 H 0.084 0.261 0.0521   0.099852
 H 0.9897 0.3217 0.9761   0.09724
 H 0.896 0.1212 0.9153   0.085201
 H 0.985 0.0608 0.9964   0.092454
 H 0.2133 0.4244 0.0785   0.307516
 H 0.35 0.4914 0.695   0.275411
 H 0.2748 0.6478 0.9453   0.140109
 H 0.1785 0.6487 0.9535   0.143085
 H 0.219 0.6221 0.8784   0.139302
 H 0.2384 0.31 0.0108   0.145772
 H 0.2907 0.3212 0.9379   0.149563
 H 0.1943 0.3152 0.933   0.137691
 H 0.404 0.5864 0.8087   0.140215
 H 0.4486 0.5078 0.817   0.142419
 H 0.3973 0.541 0.8837   0.141223
 H 0.0907 0.409 0.753   0.140512
 H 0.1037 0.4053 0.8397   0.131319
 H 0.1378 0.3402 0.7887   0.149432
 H 0.416 0.761 0.0521   0.099851
 H 0.5103 0.8217 0.9761   0.09724
 H 0.604 0.6212 0.9153   0.0852
 H 0.515 0.5608 0.9964   0.092454
 H 0.7133 0.0756 0.9215   0.307516
 H 0.85 0.0086 0.305   0.275411
 H 0.7748 0.8522 0.0547   0.140109
 H 0.6785 0.8513 0.0465   0.143085
 H 0.719 0.8779 0.1216   0.139302
 H 0.7384 0.19 0.9892   0.145772
 H 0.7907 0.1788 0.0621   0.149563
 H 0.6943 0.1848 0.067   0.137691
 H 0.904 0.9136 0.1913   0.140215
 H 0.9486 0.9922 0.183   0.142419
 H 0.8973 0.959 0.1163   0.141223
 H 0.5907 0.091 0.247   0.140512
 H 0.6037 0.0947 0.1603   0.131319
 H 0.6378 0.1598 0.2113   0.149432
 H 0.916 0.739 0.9479   0.099851
 H 0.0103 0.6783 0.0239   0.09724
 H 0.104 0.8788 0.0847   0.0852
 H 0.015 0.9392 0.0036   0.092454
 H 0.7133 0.9244 0.4215   0.307516
 H 0.85 0.9914 0.805   0.275411
 H 0.7748 0.1478 0.5547   0.140109
 H 0.6785 0.1487 0.5465   0.143085
 H 0.719 0.1221 0.6216   0.139302
 H 0.7384 0.81 0.4892   0.145772
 H 0.7907 0.8212 0.5621   0.149563
 H 0.6943 0.8152 0.567   0.137691
 H 0.904 0.0864 0.6913   0.140215
 H 0.9486 0.0078 0.683   0.142419
 H 0.8973 0.041 0.6163   0.141223
 H 0.5907 0.909 0.747   0.140512
 H 0.6037 0.9053 0.6603   0.131319
 H 0.6378 0.8402 0.7113   0.149432
 H 0.916 0.261 0.4479   0.099851
 H 0.0103 0.3217 0.5239   0.09724
 H 0.104 0.1212 0.5847   0.0852
 H 0.015 0.0608 0.5036   0.092454
 H 0.2133 0.5756 0.5785   0.307516
 H 0.35 0.5086 0.195   0.275411
 H 0.2748 0.3522 0.4453   0.140109
 H 0.1785 0.3513 0.4535   0.143085
 H 0.219 0.3779 0.3784   0.139302
 H 0.2384 0.69 0.5108   0.145772
 H 0.2907 0.6788 0.4379   0.149563
 H 0.1943 0.6848 0.433   0.137691
 H 0.404 0.4136 0.3087   0.140215
 H 0.4486 0.4922 0.317   0.142419
 H 0.3973 0.459 0.3837   0.141223
 H 0.0907 0.591 0.253   0.140512
 H 0.1037 0.5947 0.3397   0.131319
 H 0.1378 0.6598 0.2887   0.149432
 H 0.416 0.239 0.5521   0.099851
 H 0.5103 0.1783 0.4761   0.09724
 H 0.604 0.3788 0.4153   0.0852
 H 0.515 0.4392 0.4964   0.092454
 C 0.2755 0.87757 0.43179   -0.392522
 C 0.2735 0.9574 0.45998   0.271799
 C 0.26113 0.02432 0.41941   -0.177275
 C 0.26696 0.08266 0.47089   0.198728
 C 0.2603 0.16651 0.46237   -0.393502
 C 0.0995 0.9634 0.33036   -0.373781
 C 0.17492 0.0028 0.30178   0.185054
 C 0.24365 0.03053 0.33902   -0.179094
 C 0.29272 0.06443 0.28414   0.268023
 C 0.3722 0.1062 0.29211   -0.388335
 C 0.10752 0.88522 0.57957   0.65597
 C 0.04454 0.84544 0.53172   -0.120416
 C 0.04567 0.7673 0.52526   -0.079096
 C 0.98988 0.73106 0.47883   -0.07671
 C 0.93331 0.85038 0.44325   -0.052817
 C 0.98723 0.88669 0.49125   -0.065899
 C 0.87228 0.73199 0.38817   0.68074
 C 0.93436 0.77237 0.43649   -0.132883
 C 0.7755 0.62243 0.56821   -0.392522
 C 0.7735 0.5426 0.54002   0.271799
 C 0.76113 0.47568 0.58059   -0.177275
 C 0.76696 0.41734 0.52911   0.198728
 C 0.7603 0.33349 0.53763   -0.393502
 C 0.5995 0.5366 0.66964   -0.373781
 C 0.67492 0.4972 0.69822   0.185054
 C 0.74365 0.46947 0.66098   -0.179094
 C 0.79272 0.43557 0.71586   0.268023
 C 0.8722 0.3938 0.70789   -0.388335
 C 0.60752 0.61478 0.42043   0.65597
 C 0.54454 0.65456 0.46828   -0.120416
 C 0.54567 0.7327 0.47474   -0.079096
 C 0.48988 0.76894 0.52117   -0.07671
 C 0.43331 0.64962 0.55675   -0.052817
 C 0.48723 0.61331 0.50875   -0.065899
 C 0.37228 0.76801 0.61183   0.68074
 C 0.43436 0.72763 0.56351   -0.132883
 C 0.7755 0.37757 0.06821   -0.392522
 C 0.7735 0.4574 0.04002   0.271799
 C 0.76113 0.52432 0.08059   -0.177275
 C 0.76696 0.58266 0.02911   0.198728
 C 0.7603 0.66651 0.03763   -0.393502
 C 0.5995 0.4634 0.16964   -0.373781
 C 0.67492 0.5028 0.19822   0.185054
 C 0.74365 0.53053 0.16098   -0.179094
 C 0.79272 0.56443 0.21586   0.268023
 C 0.8722 0.6062 0.20789   -0.388335
 C 0.60752 0.38522 0.92043   0.65597
 C 0.54454 0.34544 0.96828   -0.120416
 C 0.54567 0.2673 0.97474   -0.079096
 C 0.48988 0.23106 0.02117   -0.07671
 C 0.43331 0.35038 0.05675   -0.052817
 C 0.48723 0.38669 0.00875   -0.065899
 C 0.37228 0.23199 0.11183   0.68074
 C 0.43436 0.27237 0.06351   -0.132883
 C 0.2755 0.12243 0.93179   -0.392522
 C 0.2735 0.0426 0.95998   0.271799
 C 0.26113 0.97568 0.91941   -0.177275
 C 0.26696 0.91734 0.97089   0.198728
 C 0.2603 0.83349 0.96237   -0.393502
 C 0.0995 0.0366 0.83036   -0.373781
 C 0.17492 0.9972 0.80178   0.185054
 C 0.24365 0.96947 0.83902   -0.179094
 C 0.29272 0.93557 0.78414   0.268023
 C 0.3722 0.8938 0.79211   -0.388335
 C 0.10752 0.11478 0.07957   0.65597
 C 0.04454 0.15456 0.03172   -0.120416
 C 0.04567 0.2327 0.02526   -0.079096
 C 0.98988 0.26894 0.97883   -0.07671
 C 0.93331 0.14962 0.94325   -0.052817
 C 0.98723 0.11331 0.99125   -0.065899
 C 0.87228 0.26801 0.88817   0.68074
 C 0.93436 0.22763 0.93649   -0.132883
 C 0.2245 0.62243 0.93179   -0.392522
 C 0.2265 0.5426 0.95998   0.271799
 C 0.23887 0.47568 0.91941   -0.177275
 C 0.23304 0.41734 0.97089   0.198728
 C 0.2397 0.33349 0.96237   -0.393501
 C 0.4005 0.5366 0.83036   -0.373781
 C 0.32508 0.4972 0.80178   0.185054
 C 0.25635 0.46947 0.83902   -0.179094
 C 0.20728 0.43557 0.78414   0.268023
 C 0.1278 0.3938 0.79211   -0.388335
 C 0.39248 0.61478 0.07957   0.65597
 C 0.45546 0.65456 0.03172   -0.120417
 C 0.45433 0.7327 0.02526   -0.079096
 C 0.51012 0.76894 0.97883   -0.07671
 C 0.56669 0.64962 0.94325   -0.052817
 C 0.51277 0.61331 0.99125   -0.065899
 C 0.62772 0.76801 0.88817   0.68074
 C 0.56564 0.72763 0.93649   -0.132883
 C 0.7245 0.87757 0.06821   -0.392522
 C 0.7265 0.9574 0.04002   0.271799
 C 0.73887 0.02432 0.08059   -0.177275
 C 0.73304 0.08266 0.02911   0.198728
 C 0.7397 0.16651 0.03763   -0.393501
 C 0.9005 0.9634 0.16964   -0.373781
 C 0.82508 0.0028 0.19822   0.185054
 C 0.75635 0.03053 0.16098   -0.179094
 C 0.70728 0.06443 0.21586   0.268023
 C 0.6278 0.1062 0.20789   -0.388335
 C 0.89248 0.88522 0.92043   0.65597
 C 0.95546 0.84544 0.96828   -0.120417
 C 0.95433 0.7673 0.97474   -0.079096
 C 0.01012 0.73106 0.02117   -0.07671
 C 0.06669 0.85038 0.05675   -0.052817
 C 0.01277 0.88669 0.00875   -0.065899
 C 0.12772 0.73199 0.11183   0.68074
 C 0.06564 0.77237 0.06351   -0.132883
 C 0.7245 0.12243 0.56821   -0.392522
 C 0.7265 0.0426 0.54002   0.271799
 C 0.73887 0.97568 0.58059   -0.177275
 C 0.73304 0.91734 0.52911   0.198728
 C 0.7397 0.83349 0.53763   -0.393501
 C 0.9005 0.0366 0.66964   -0.373781
 C 0.82508 0.9972 0.69822   0.185054
 C 0.75635 0.96947 0.66098   -0.179094
 C 0.70728 0.93557 0.71586   0.268023
 C 0.6278 0.8938 0.70789   -0.388335
 C 0.89248 0.11478 0.42043   0.65597
 C 0.95546 0.15456 0.46828   -0.120417
 C 0.95433 0.2327 0.47474   -0.079096
 C 0.01012 0.26894 0.52117   -0.07671
 C 0.06669 0.14962 0.55675   -0.052817
 C 0.01277 0.11331 0.50875   -0.065899
 C 0.12772 0.26801 0.61183   0.68074
 C 0.06564 0.22763 0.56351   -0.132883
 C 0.2245 0.37757 0.43179   -0.392522
 C 0.2265 0.4574 0.45998   0.271799
 C 0.23887 0.52432 0.41941   -0.177275
 C 0.23304 0.58266 0.47089   0.198728
 C 0.2397 0.66651 0.46237   -0.393501
 C 0.4005 0.4634 0.33036   -0.373781
 C 0.32508 0.5028 0.30178   0.185054
 C 0.25635 0.53053 0.33902   -0.179094
 C 0.20728 0.56443 0.28414   0.268023
 C 0.1278 0.6062 0.29211   -0.388335
 C 0.39248 0.38522 0.57957   0.65597
 C 0.45546 0.34544 0.53172   -0.120417
 C 0.45433 0.2673 0.52526   -0.079096
 C 0.51012 0.23106 0.47883   -0.07671
 C 0.56669 0.35038 0.44325   -0.052817
 C 0.51277 0.38669 0.49125   -0.065899
 C 0.62772 0.23199 0.38817   0.68074
 C 0.56564 0.27237 0.43649   -0.132883
 N 0.2862 0.97396 0.53243   -0.361572
 N 0.28127 0.05056 0.53749   -0.105432
 N 0.25602 0.05779 0.21749   -0.371728
 N 0.18478 0.02011 0.22946   -0.064399
 N 0.7862 0.52604 0.46757   -0.361572
 N 0.78127 0.44944 0.46251   -0.105432
 N 0.75602 0.44221 0.78251   -0.371728
 N 0.68478 0.47989 0.77054   -0.064399
 N 0.7862 0.47396 0.96757   -0.361572
 N 0.78127 0.55056 0.96251   -0.105432
 N 0.75602 0.55779 0.28251   -0.371728
 N 0.68478 0.52011 0.27054   -0.064399
 N 0.2862 0.02604 0.03243   -0.361572
 N 0.28127 0.94944 0.03749   -0.105432
 N 0.25602 0.94221 0.71749   -0.371728
 N 0.18478 0.97989 0.72946   -0.064399
 N 0.2138 0.52604 0.03243   -0.361572
 N 0.21873 0.44944 0.03749   -0.105432
 N 0.24398 0.44221 0.71749   -0.371728
 N 0.31522 0.47989 0.72946   -0.064399
 N 0.7138 0.97396 0.96757   -0.361572
 N 0.71873 0.05056 0.96251   -0.105432
 N 0.74398 0.05779 0.28251   -0.371728
 N 0.81522 0.02011 0.27054   -0.064399
 N 0.7138 0.02604 0.46757   -0.361572
 N 0.71873 0.94944 0.46251   -0.105431
 N 0.74398 0.94221 0.78251   -0.371728
 N 0.81522 0.97989 0.77054   -0.064399
 N 0.2138 0.47396 0.53243   -0.361572
 N 0.21873 0.55056 0.53749   -0.105431
 N 0.24398 0.55779 0.21749   -0.371728
 N 0.31522 0.52011 0.22946   -0.064399
 O 0.1728 0.84635 0.59199   -0.619841
 O 0.09481 0.95085 0.60174   -0.603739
 O 0.87217 0.66021 0.39493   -0.64508
 O 0.82563 0.76879 0.34826   -0.616941
 O 0.6728 0.65365 0.40801   -0.619841
 O 0.59481 0.54915 0.39826   -0.603739
 O 0.37217 0.83979 0.60507   -0.64508
 O 0.32563 0.73121 0.65174   -0.616941
 O 0.6728 0.34635 0.90801   -0.619841
 O 0.59481 0.45085 0.89826   -0.603739
 O 0.37217 0.16021 0.10507   -0.64508
 O 0.32563 0.26879 0.15174   -0.616941
 O 0.1728 0.15365 0.09199   -0.619841
 O 0.09481 0.04915 0.10174   -0.603739
 O 0.87217 0.33979 0.89493   -0.64508
 O 0.82563 0.23121 0.84826   -0.616941
 O 0.3272 0.65365 0.09199   -0.619841
 O 0.40519 0.54915 0.10174   -0.603739
 O 0.62783 0.83979 0.89493   -0.64508
 O 0.67437 0.73121 0.84826   -0.616941
 O 0.8272 0.84635 0.90801   -0.619841
 O 0.90519 0.95085 0.89826   -0.603739
 O 0.12783 0.66021 0.10507   -0.64508
 O 0.17437 0.76879 0.15174   -0.616941
 O 0.8272 0.15365 0.40801   -0.619841
 O 0.90519 0.04915 0.39826   -0.603739
 O 0.12783 0.33979 0.60507   -0.64508
 O 0.17437 0.23121 0.65174   -0.616941
 O 0.3272 0.34635 0.59199   -0.619841
 O 0.40519 0.45085 0.60174   -0.603739
 O 0.62783 0.16021 0.39493   -0.64508
 O 0.67437 0.26879 0.34826   -0.616941
