{'_ref': 'TBD', '_srcid': 'CAKYAQ_clean', 'submitters': [{'name': 'Dalar Nazarian Jeff Camp and David Sholl', 'email': 'dalar@gatech.edu jcamp6@gatech.edu'}], '_method': 'VASP DFT with PBE;DDEC'}
data_ZnH20C28(NO2)2
_symmetry_space_group_name_H-M   'P 1'
_cell_length_a   7.65130000
_cell_length_b   13.95189974
_cell_length_c   14.29910000
_cell_angle_alpha   99.35899934
_cell_angle_beta   90.00000000
_cell_angle_gamma   90.00000000
_symmetry_Int_Tables_number   1
_chemical_formula_structural   ZnH20C28(NO2)2
_chemical_formula_sum   'Zn2 H40 C56 N4 O8'
_cell_volume   1506.11270635
_cell_formula_units_Z   2
loop_
 _symmetry_equiv_pos_site_id
 _symmetry_equiv_pos_as_xyz
  1  'x, y, z'
loop_
 _atom_site_label
 _atom_site_fract_x
 _atom_site_fract_y
 _atom_site_fract_z
 _atom_site_charge
 Zn 0.40056 0.25 0.25   0.895089
 Zn 0.59944 0.75 0.75   0.895089
 H 0.5256 0.2492 0.4538   0.091152
 H 0.7712 0.2059 0.5269   0.13041
 H 0.9452 0.0694 0.2763   0.133775
 H 0.6915 0.1128 0.2109   0.076461
 H 0.0568 0.1277 0.5223   0.101961
 H 0.1824 0.047 0.3498   0.101598
 H 0.2997 0.0927 0.5969   0.110822
 H 0.4524 0.9616 0.3401   0.113036
 H 0.2709 0.9318 0.0002   0.08939
 H 0.9486 0.1474 0.0941   0.081471
 H 0.5256 0.2508 0.0462   0.091152
 H 0.7712 0.2941 0.9731   0.130409
 H 0.9452 0.4306 0.2237   0.133775
 H 0.6915 0.3872 0.2891   0.076461
 H 0.0568 0.3723 0.9777   0.10196
 H 0.1824 0.453 0.1502   0.101598
 H 0.2997 0.4073 0.9031   0.11082
 H 0.4524 0.5384 0.1599   0.113036
 H 0.2709 0.5682 0.4998   0.08939
 H 0.9486 0.3526 0.4059   0.081471
 H 0.4744 0.7508 0.5462   0.091153
 H 0.2288 0.7941 0.4731   0.13041
 H 0.0548 0.9306 0.7237   0.133775
 H 0.3085 0.8872 0.7891   0.076461
 H 0.9432 0.8723 0.4777   0.101961
 H 0.8176 0.953 0.6502   0.101598
 H 0.7003 0.9073 0.4031   0.110821
 H 0.5476 0.0384 0.6599   0.113035
 H 0.7291 0.0682 0.9998   0.089391
 H 0.0514 0.8526 0.9059   0.081471
 H 0.4744 0.7492 0.9538   0.091153
 H 0.2288 0.7059 0.0269   0.13041
 H 0.0548 0.5694 0.7763   0.133775
 H 0.3085 0.6128 0.7109   0.076461
 H 0.9432 0.6277 0.0223   0.10196
 H 0.8176 0.547 0.8498   0.101598
 H 0.7003 0.5927 0.0969   0.110819
 H 0.5476 0.4616 0.8401   0.113035
 H 0.7291 0.4318 0.5002   0.089391
 H 0.0514 0.6474 0.5941   0.081471
 C 0.6105 0.2126 0.4176   0.175539
 C 0.7589 0.1872 0.4618   -0.203205
 C 0.8912 0.1337 0.4105   0.150263
 C 0.8623 0.1059 0.3141   -0.195092
 C 0.7091 0.133 0.2754   0.181091
 C 0.0507 0.1088 0.4569   -0.134589
 C 0.1873 0.0622 0.4156   -0.070093
 C 0.3467 0.031 0.4603   0.04337
 C 0.3794 0.0551 0.5577   -0.112146
 C 0.4711 0.9769 0.4051   -0.107841
 C 0.2704 0.0963 0.1221   0.694297
 C 0.1312 0.0459 0.0585   -0.123068
 C 0.1606 0.9599 0.0011   -0.060445
 C 0.9708 0.0875 0.0568   -0.083551
 C 0.6105 0.2874 0.0824   0.175539
 C 0.7589 0.3128 0.0382   -0.203204
 C 0.8912 0.3663 0.0895   0.150263
 C 0.8623 0.3941 0.1859   -0.195092
 C 0.7091 0.367 0.2246   0.181091
 C 0.0507 0.3912 0.0431   -0.134588
 C 0.1873 0.4378 0.0844   -0.070093
 C 0.3467 0.469 0.0397   0.04337
 C 0.3794 0.4449 0.9423   -0.112145
 C 0.4711 0.5231 0.0949   -0.107841
 C 0.2704 0.4037 0.3779   0.694297
 C 0.1312 0.4541 0.4415   -0.123068
 C 0.1606 0.5401 0.4989   -0.060445
 C 0.9708 0.4125 0.4432   -0.08355
 C 0.3895 0.7874 0.5824   0.175539
 C 0.2411 0.8128 0.5382   -0.203205
 C 0.1088 0.8663 0.5895   0.150263
 C 0.1377 0.8941 0.6859   -0.195092
 C 0.2909 0.867 0.7246   0.18109
 C 0.9493 0.8912 0.5431   -0.13459
 C 0.8127 0.9378 0.5844   -0.070093
 C 0.6533 0.969 0.5397   0.043366
 C 0.6206 0.9449 0.4423   -0.112134
 C 0.5289 0.0231 0.5949   -0.107828
 C 0.7296 0.9037 0.8779   0.694296
 C 0.8688 0.9541 0.9415   -0.123067
 C 0.8394 0.0401 0.9989   -0.060447
 C 0.0292 0.9125 0.9432   -0.083552
 C 0.3895 0.7126 0.9176   0.175539
 C 0.2411 0.6872 0.9618   -0.203205
 C 0.1088 0.6337 0.9105   0.150263
 C 0.1377 0.6059 0.8141   -0.195092
 C 0.2909 0.633 0.7754   0.181091
 C 0.9493 0.6088 0.9569   -0.134589
 C 0.8127 0.5622 0.9156   -0.070093
 C 0.6533 0.531 0.9603   0.043366
 C 0.6206 0.5551 0.0577   -0.112133
 C 0.5289 0.4769 0.9051   -0.107828
 C 0.7296 0.5963 0.6221   0.694297
 C 0.8688 0.5459 0.5585   -0.123067
 C 0.8394 0.4599 0.5011   -0.060447
 C 0.0292 0.5875 0.5568   -0.083552
 N 0.5837 0.1864 0.324   -0.380682
 N 0.5837 0.3136 0.176   -0.380682
 N 0.4163 0.8136 0.676   -0.380682
 N 0.4163 0.6864 0.824   -0.380682
 O 0.2379 0.1767 0.1646   -0.62633
 O 0.4106 0.06 0.1256   -0.625147
 O 0.2379 0.3233 0.3354   -0.62633
 O 0.4106 0.44 0.3744   -0.625147
 O 0.7621 0.8233 0.8354   -0.62633
 O 0.5894 0.94 0.8744   -0.625147
 O 0.7621 0.6767 0.6646   -0.62633
 O 0.5894 0.56 0.6256   -0.625147
