{'_ref': 'TBD', '_srcid': 'CAKYAQ_clean', 'submitters': [{'name': 'Dalar Nazarian Jeff Camp and David Sholl', 'email': 'dalar@gatech.edu jcamp6@gatech.edu'}], '_method': 'VASP DFT with PBE;DDEC'}
data_CdC4
_symmetry_space_group_name_H-M   'P 1'
_cell_length_a   8.99500043
_cell_length_b   8.99500026
_cell_length_c   8.99500000
_cell_angle_alpha   60.00000094
_cell_angle_beta   60.00000157
_cell_angle_gamma   60.00000042
_symmetry_Int_Tables_number   1
_chemical_formula_structural   CdC4
_chemical_formula_sum   'Cd2 C8'
_cell_volume   514.622236357
_cell_formula_units_Z   2
loop_
 _symmetry_equiv_pos_site_id
 _symmetry_equiv_pos_as_xyz
  1  'x, y, z'
loop_
 _atom_site_label
 _atom_site_fract_x
 _atom_site_fract_y
 _atom_site_fract_z
 _atom_site_charge
 Cd 0.125 0.625 0.625   0.718047
 Cd 0.875 0.375 0.375   0.717905
 C 0.02654 0.92038 0.52654   -0.179613
 C 0.42038 0.52654 0.52654   -0.179614
 C 0.02654 0.52654 0.52654   -0.179614
 C 0.02654 0.52654 0.92038   -0.179616
 C 0.57962 0.47346 0.47346   -0.179373
 C 0.97346 0.07962 0.47346   -0.179374
 C 0.97346 0.47346 0.47346   -0.179373
 C 0.97346 0.47346 0.07962   -0.179375
