{'_ref': 'TBD', '_srcid': 'CAKYAQ_clean', 'submitters': [{'name': 'Dalar Nazarian Jeff Camp and David Sholl', 'email': 'dalar@gatech.edu jcamp6@gatech.edu'}], '_method': 'VASP DFT with PBE;DDEC'}
data_YH3(CO)6
_symmetry_space_group_name_H-M   'P 1'
_cell_length_a   8.48600000
_cell_length_b   9.73700026
_cell_length_c   17.27100000
_cell_angle_alpha   90.00000000
_cell_angle_beta   90.00000000
_cell_angle_gamma   112.25000200
_symmetry_Int_Tables_number   1
_chemical_formula_structural   YH3(CO)6
_chemical_formula_sum   'Y4 H12 C24 O24'
_cell_volume   1320.81233573
_cell_formula_units_Z   4
loop_
 _symmetry_equiv_pos_site_id
 _symmetry_equiv_pos_as_xyz
  1  'x, y, z'
loop_
 _atom_site_label
 _atom_site_fract_x
 _atom_site_fract_y
 _atom_site_fract_z
 _atom_site_charge
 Y 0.844 0.0245 0.2575   2.067691
 Y 0.156 0.4755 0.7575   2.06767
 Y 0.156 0.9755 0.7425   2.068115
 Y 0.844 0.5245 0.2425   2.068239
 H 0.88668 0.08301 0.97131   0.133341
 H 0.29015 0.65738 0.17374   0.14975
 H 0.40727 0.90908 0.26298   0.131825
 H 0.11332 0.41699 0.47131   0.135515
 H 0.70985 0.84262 0.67374   0.14962
 H 0.59273 0.59092 0.76298   0.131784
 H 0.11332 0.91699 0.02869   0.133331
 H 0.70594 0.33876 0.82639   0.148292
 H 0.59945 0.09753 0.73745   0.132009
 H 0.8819 0.58479 0.52527   0.13333
 H 0.29406 0.16124 0.32639   0.148237
 H 0.40055 0.40247 0.23745   0.131965
 C 0.9037 0.025 0.0978   0.702897
 C 0.9465 0.0287 0.0146   -0.19097
 C 0.5608 0.6982 0.2106   0.811358
 C 0.3794 0.6061 0.199   -0.222794
 C 0.3132 0.9602 0.2825   -0.188647
 C 0.1273 0.8667 0.2866   0.847555
 C 0.0963 0.475 0.5978   0.702732
 C 0.0535 0.4713 0.5146   -0.189513
 C 0.4392 0.8018 0.7106   0.811339
 C 0.6206 0.8939 0.699   -0.222904
 C 0.6868 0.5398 0.7825   -0.188549
 C 0.8727 0.6333 0.7866   0.847722
 C 0.0963 0.975 0.9022   0.702755
 C 0.0535 0.9713 0.9854   -0.190753
 C 0.4392 0.3018 0.7894   0.80986
 C 0.6206 0.3939 0.801   -0.224963
 C 0.6868 0.0398 0.7175   -0.190154
 C 0.8727 0.1333 0.7134   0.845455
 C 0.9037 0.525 0.4022   0.699426
 C 0.9465 0.5287 0.4854   -0.188832
 C 0.5608 0.1982 0.2894   0.809845
 C 0.3794 0.1061 0.301   -0.22491
 C 0.3132 0.4602 0.2175   -0.190194
 C 0.1273 0.3667 0.2134   0.845575
 O 0.964 0.9539 0.1446   -0.705351
 O 0.8136 0.0907 0.1215   -0.624182
 O 0.6637 0.6398 0.229   -0.772606
 O 0.6031 0.8378 0.2032   -0.671744
 O 0.0246 0.9247 0.3048   -0.76221
 O 0.0887 0.733 0.2688   -0.701536
 O 0.036 0.5461 0.6446   -0.705497
 O 0.1864 0.4093 0.6215   -0.624713
 O 0.3363 0.8602 0.729   -0.772431
 O 0.3969 0.6622 0.7032   -0.671737
 O 0.9754 0.5753 0.8048   -0.76202
 O 0.9113 0.767 0.7688   -0.701667
 O 0.036 0.0461 0.8554   -0.705232
 O 0.1864 0.9093 0.8785   -0.624172
 O 0.3363 0.3602 0.771   -0.772789
 O 0.3969 0.1622 0.7968   -0.67179
 O 0.9754 0.0753 0.6952   -0.763261
 O 0.9113 0.267 0.7312   -0.701398
 O 0.964 0.4539 0.3554   -0.706085
 O 0.8136 0.5907 0.3785   -0.624379
 O 0.6637 0.1398 0.271   -0.772725
 O 0.6031 0.3378 0.2968   -0.671741
 O 0.0246 0.4247 0.1952   -0.763124
 O 0.0887 0.233 0.2312   -0.701657
