{'_ref': 'TBD', '_srcid': 'CAKYAQ_clean', 'submitters': [{'name': 'Dalar Nazarian Jeff Camp and David Sholl', 'email': 'dalar@gatech.edu jcamp6@gatech.edu'}], '_method': 'VASP DFT with PBE;DDEC'}
data_Na6Cu3H8W12C4(NO22)2
_symmetry_space_group_name_H-M   'P 1'
_cell_length_a   12.39199976
_cell_length_b   12.70300002
_cell_length_c   12.99100000
_cell_angle_alpha   63.63000147
_cell_angle_beta   88.80000214
_cell_angle_gamma   66.26999864
_symmetry_Int_Tables_number   1
_chemical_formula_structural   Na6Cu3H8W12C4(NO22)2
_chemical_formula_sum   'Na6 Cu3 H8 W12 C4 N2 O44'
_cell_volume   1645.9491851
_cell_formula_units_Z   1
loop_
 _symmetry_equiv_pos_site_id
 _symmetry_equiv_pos_as_xyz
  1  'x, y, z'
loop_
 _atom_site_label
 _atom_site_fract_x
 _atom_site_fract_y
 _atom_site_fract_z
 _atom_site_charge
 Na 0.0062 0.6365 0.243   0.812162
 Na 0.9251 0.4261 0.1916   0.909403
 Na 0.7314 0.9374 0.1068   0.844727
 Na 0.9938 0.3635 0.757   0.812387
 Na 0.0749 0.5739 0.8084   0.909436
 Na 0.2686 0.0626 0.8932   0.844882
 Cu 0.7253 0.9169 0.5066   0.534688
 Cu 0.2747 0.0831 0.4934   0.534653
 Cu 0.5 0.5 0.0   0.592408
 H 0.7072 0.898 0.7664   0.121531
 H 0.646 0.8044 0.7916   0.121872
 H 0.5622 0.904 0.6105   0.289095
 H 0.5796 0.0134 0.6046   0.216974
 H 0.2928 0.102 0.2336   0.121532
 H 0.354 0.1956 0.2084   0.121874
 H 0.4378 0.096 0.3895   0.289026
 H 0.4204 0.9866 0.3954   0.216933
 W 0.59872 0.25288 0.31225   1.459144
 W 0.78135 0.17064 0.54528   0.955153
 W 0.34516 0.51215 0.22911   2.71663
 W 0.37546 0.79103 0.22143   2.664434
 W 0.43848 0.28895 0.54727   1.875806
 W 0.63436 0.51936 0.32505   2.605195
 W 0.40128 0.74712 0.68775   1.459154
 W 0.21865 0.82936 0.45472   0.955199
 W 0.65484 0.48785 0.77089   2.716642
 W 0.62454 0.20897 0.77857   2.664469
 W 0.56152 0.71105 0.45273   1.875589
 W 0.36564 0.48064 0.67495   2.605348
 C 0.6909 0.845 0.7393   -0.109232
 C 0.8108 0.738 0.7422   0.671548
 C 0.3091 0.155 0.2607   -0.10924
 C 0.1892 0.262 0.2578   0.671525
 N 0.6178 0.93 0.6185   -0.541465
 N 0.3822 0.07 0.3815   -0.541418
 O 0.985 0.4514 0.3607   -0.335157
 O 0.89 0.6615 0.0739   -0.461641
 O 0.3634 0.4376 0.4095   -0.728417
 O 0.6239 0.0865 0.3715   -0.647746
 O 0.5842 0.2268 0.4985   -0.651099
 O 0.7434 0.1736 0.6851   -0.66248
 O 0.8192 0.7499 0.288   -0.70927
 O 0.3149 0.6715 0.2216   -0.991287
 O 0.3769 0.5481 0.0882   -0.870652
 O 0.1998 0.5316 0.2124   -0.828042
 O 0.5161 0.6905 0.1841   -0.947202
 O 0.7505 0.2222 0.3801   -0.635332
 O 0.428 0.3236 0.2841   -0.843544
 O 0.6984 0.3819 0.4708   -0.666503
 O 0.5383 0.4496 0.2853   -1.039319
 O 0.8312 0.7548 0.641   -0.594769
 O 0.4768 0.6172 0.3953   -0.818924
 O 0.745 0.4912 0.2468   -0.825605
 O 0.3011 0.9302 0.0852   -0.929495
 O 0.4606 0.8469 0.2873   -0.929323
 O 0.3328 0.3656 0.6331   -0.728078
 O 0.8774 0.6588 0.8361   -0.601787
 O 0.015 0.5486 0.6393   -0.334929
 O 0.11 0.3385 0.9261   -0.46166
 O 0.6366 0.5624 0.5905   -0.728421
 O 0.3761 0.9135 0.6285   -0.647747
 O 0.4158 0.7732 0.5015   -0.651051
 O 0.2566 0.8264 0.3149   -0.66249
 O 0.1808 0.2501 0.712   -0.707803
 O 0.6851 0.3285 0.7784   -0.991299
 O 0.6231 0.4519 0.9118   -0.870653
 O 0.8002 0.4684 0.7876   -0.828068
 O 0.4839 0.3095 0.8159   -0.947196
 O 0.2495 0.7778 0.6199   -0.63534
 O 0.572 0.6764 0.7159   -0.843536
 O 0.3016 0.6181 0.5292   -0.666579
 O 0.4617 0.5504 0.7147   -1.039357
 O 0.1688 0.2452 0.359   -0.594569
 O 0.5232 0.3828 0.6047   -0.819056
 O 0.255 0.5088 0.7532   -0.825619
 O 0.6989 0.0698 0.9148   -0.929497
 O 0.5394 0.1531 0.7127   -0.929328
 O 0.6672 0.6344 0.3669   -0.726405
 O 0.1226 0.3412 0.1639   -0.601791
