{'_ref': 'TBD', '_srcid': 'CAKYAQ_clean', 'submitters': [{'name': 'Dalar Nazarian Jeff Camp and David Sholl', 'email': 'dalar@gatech.edu jcamp6@gatech.edu'}], '_method': 'VASP DFT with PBE;DDEC'}
data_MnHgC4(SN)4
_symmetry_space_group_name_H-M   'P 1'
_cell_length_a   9.24579973
_cell_length_b   14.11100000
_cell_length_c   16.49370000
_cell_angle_alpha   90.00000000
_cell_angle_beta   92.91199915
_cell_angle_gamma   90.00000000
_symmetry_Int_Tables_number   1
_chemical_formula_structural   MnHgC4(SN)4
_chemical_formula_sum   'Mn4 Hg4 C16 S16 N16'
_cell_volume   2149.11282364
_cell_formula_units_Z   4
loop_
 _symmetry_equiv_pos_site_id
 _symmetry_equiv_pos_as_xyz
  1  'x, y, z'
loop_
 _atom_site_label
 _atom_site_fract_x
 _atom_site_fract_y
 _atom_site_fract_z
 _atom_site_charge
 Mn 0.02063 0.65175 0.25395   1.123348
 Mn 0.47937 0.15175 0.24605   1.123347
 Mn 0.97937 0.34825 0.74605   1.123346
 Mn 0.52063 0.84825 0.75395   1.123346
 Hg 0.51622 0.79539 0.08131   0.410468
 Hg 0.98378 0.29539 0.41869   0.410468
 Hg 0.48378 0.20461 0.91869   0.410468
 Hg 0.01622 0.70461 0.58131   0.410468
 C 0.8563 0.7859 0.1101   0.386067
 C 0.9465 0.7909 0.411   0.373627
 C 0.1322 0.4956 0.3955   0.38262
 C 0.3524 0.7428 0.24   0.380327
 C 0.6437 0.2859 0.3899   0.386066
 C 0.5535 0.2909 0.089   0.373627
 C 0.3678 0.9956 0.1045   0.38262
 C 0.1476 0.2428 0.26   0.380327
 C 0.1437 0.2141 0.8899   0.386066
 C 0.0535 0.2091 0.589   0.373627
 C 0.8678 0.5044 0.6045   0.38262
 C 0.6476 0.2572 0.76   0.380326
 C 0.3563 0.7141 0.6101   0.386066
 C 0.4465 0.7091 0.911   0.373627
 C 0.6322 0.0044 0.8955   0.38262
 C 0.8524 0.7572 0.74   0.380327
 S 0.76357 0.84473 0.03842   -0.220973
 S 0.93834 0.85106 0.49659   -0.255981
 S 0.18161 0.41171 0.4609   -0.219018
 S 0.52427 0.77322 0.23227   -0.253861
 S 0.73643 0.34473 0.46158   -0.220972
 S 0.56166 0.35106 0.00341   -0.255981
 S 0.31839 0.91171 0.0391   -0.219016
 S 0.97573 0.27322 0.26773   -0.253861
 S 0.23643 0.15527 0.96158   -0.220973
 S 0.06166 0.14894 0.50341   -0.255982
 S 0.81839 0.58829 0.5391   -0.219016
 S 0.47573 0.22678 0.76773   -0.25386
 S 0.26357 0.65527 0.53842   -0.220971
 S 0.43834 0.64894 0.99659   -0.255982
 S 0.68161 0.08829 0.9609   -0.219015
 S 0.02427 0.72678 0.73227   -0.25386
 N 0.923 0.7451 0.159   -0.541553
 N 0.9532 0.7499 0.3516   -0.518898
 N 0.1008 0.5541 0.3511   -0.543031
 N 0.2362 0.7202 0.2478   -0.503142
 N 0.577 0.2451 0.341   -0.541553
 N 0.5468 0.2499 0.1484   -0.518898
 N 0.3992 0.0541 0.1489   -0.543031
 N 0.2638 0.2202 0.2522   -0.503142
 N 0.077 0.2549 0.841   -0.541553
 N 0.0468 0.2501 0.6484   -0.518898
 N 0.8992 0.4459 0.6489   -0.54303
 N 0.7638 0.2798 0.7522   -0.503142
 N 0.423 0.7549 0.659   -0.541553
 N 0.4532 0.7501 0.8516   -0.518898
 N 0.6008 0.9459 0.8511   -0.54303
 N 0.7362 0.7798 0.7478   -0.503142
