{'_ref': 'TBD', '_srcid': 'CAKYAQ_clean', 'submitters': [{'name': 'Dalar Nazarian Jeff Camp and David Sholl', 'email': 'dalar@gatech.edu jcamp6@gatech.edu'}], '_method': 'VASP DFT with PBE;DDEC'}
data_CdHgC4(SN)4
_symmetry_space_group_name_H-M   'P 1'
_cell_length_a   9.25149972
_cell_length_b   14.16700000
_cell_length_c   16.58980000
_cell_angle_alpha   90.00000000
_cell_angle_beta   93.03200037
_cell_angle_gamma   90.00000000
_symmetry_Int_Tables_number   1
_chemical_formula_structural   CdHgC4(SN)4
_chemical_formula_sum   'Cd4 Hg4 C16 S16 N16'
_cell_volume   2171.3148914
_cell_formula_units_Z   4
loop_
 _symmetry_equiv_pos_site_id
 _symmetry_equiv_pos_as_xyz
  1  'x, y, z'
loop_
 _atom_site_label
 _atom_site_fract_x
 _atom_site_fract_y
 _atom_site_fract_z
 _atom_site_charge
 Cd 0.97316 0.84317 0.24417   1.151173
 Cd 0.52684 0.34317 0.25583   1.151173
 Cd 0.02684 0.15683 0.75583   1.151173
 Cd 0.47316 0.65683 0.74417   1.151173
 Hg 0.97997 0.79569 0.91817   0.408002
 Hg 0.52003 0.29569 0.58183   0.408002
 Hg 0.02003 0.20431 0.08183   0.408002
 Hg 0.47997 0.70431 0.41817   0.408002
 C 0.057 0.7047 0.0846   0.376899
 C 0.1411 0.7108 0.3929   0.386302
 C 0.6353 0.7514 0.2575   0.381559
 C 0.8668 0.0056 0.1021   0.390708
 C 0.443 0.2047 0.4154   0.376899
 C 0.3589 0.2108 0.1071   0.386302
 C 0.8647 0.2514 0.2425   0.381559
 C 0.6332 0.5056 0.3979   0.390708
 C 0.943 0.2953 0.9154   0.376899
 C 0.8589 0.2892 0.6071   0.386302
 C 0.3647 0.2486 0.7425   0.381559
 C 0.1332 0.9944 0.8979   0.390708
 C 0.557 0.7953 0.5846   0.376899
 C 0.6411 0.7892 0.8929   0.386302
 C 0.1353 0.7486 0.7575   0.381559
 C 0.3668 0.4944 0.6021   0.390708
 S 0.06034 0.64743 0.99806   -0.266257
 S 0.23573 0.65489 0.46509   -0.222854
 S 0.46344 0.72186 0.26752   -0.260593
 S 0.81813 0.09207 0.03919   -0.231787
 S 0.43966 0.14743 0.50194   -0.266257
 S 0.26427 0.15489 0.03491   -0.222853
 S 0.03656 0.22186 0.23248   -0.260593
 S 0.68187 0.59207 0.46081   -0.231786
 S 0.93966 0.35257 0.00194   -0.266259
 S 0.76427 0.34511 0.53491   -0.222853
 S 0.53656 0.27814 0.73248   -0.260593
 S 0.18187 0.90793 0.96081   -0.231786
 S 0.56034 0.85257 0.49806   -0.266259
 S 0.73573 0.84511 0.96509   -0.222852
 S 0.96344 0.77814 0.76752   -0.260593
 S 0.31813 0.40793 0.53919   -0.231785
 N 0.0529 0.7439 0.1445   -0.53229
 N 0.0725 0.7499 0.3441   -0.536675
 N 0.7509 0.7721 0.2471   -0.511093
 N 0.8967 0.9464 0.1441   -0.533095
 N 0.4471 0.2439 0.3555   -0.53229
 N 0.4275 0.2499 0.1559   -0.536675
 N 0.7491 0.2721 0.2529   -0.511093
 N 0.6033 0.4464 0.3559   -0.533095
 N 0.9471 0.2561 0.8555   -0.53229
 N 0.9275 0.2501 0.6559   -0.536675
 N 0.2491 0.2279 0.7529   -0.511093
 N 0.1033 0.0536 0.8559   -0.533094
 N 0.5529 0.7561 0.6445   -0.532291
 N 0.5725 0.7501 0.8441   -0.536675
 N 0.2509 0.7279 0.7471   -0.511093
 N 0.3967 0.5536 0.6441   -0.533094
