{'_ref': 'TBD', '_srcid': 'CAKYAQ_clean', 'submitters': [{'name': 'Dalar Nazarian Jeff Camp and David Sholl', 'email': 'dalar@gatech.edu jcamp6@gatech.edu'}], '_method': 'VASP DFT with PBE;DDEC'}
data_Cd7H48C64(N8O13)2
_symmetry_space_group_name_H-M   'P 1'
_cell_length_a   7.50900006
_cell_length_b   11.88100037
_cell_length_c   20.94200000
_cell_angle_alpha   96.62300025
_cell_angle_beta   92.47400217
_cell_angle_gamma   102.01499706
_symmetry_Int_Tables_number   1
_chemical_formula_structural   Cd7H48C64(N8O13)2
_chemical_formula_sum   'Cd7 H48 C64 N16 O26'
_cell_volume   1810.86037579
_cell_formula_units_Z   1
loop_
 _symmetry_equiv_pos_site_id
 _symmetry_equiv_pos_as_xyz
  1  'x, y, z'
loop_
 _atom_site_label
 _atom_site_fract_x
 _atom_site_fract_y
 _atom_site_fract_z
 _atom_site_charge
 Cd 0.65169 0.85364 0.09578   1.10815
 Cd 0.7488 0.0198 0.47812   1.071783
 Cd 0.39373 0.17181 0.08465   1.153343
 Cd 0.34831 0.14636 0.90422   1.108149
 Cd 0.2512 0.9802 0.52188   1.071782
 Cd 0.60627 0.82819 0.91535   1.153343
 Cd 0.0 0.0 0.0   1.152515
 H 0.0546 0.7938 0.1421   0.097335
 H 0.5993 0.5615 0.128   0.105828
 H 0.8404 0.4692 0.163   0.133009
 H 0.2248 0.5484 0.1586   0.087288
 H 0.2853 0.6836 0.1656   0.119744
 H 0.9882 0.6594 0.2727   0.091635
 H 0.1384 0.7716 0.2714   0.120808
 H 0.9685 0.5724 0.3905   0.144306
 H 0.0303 0.6847 0.496   0.110067
 H 0.2677 0.8821 0.3753   0.065366
 H 0.0685 0.4648 0.2616   0.105355
 H 0.211 0.5058 0.3208   0.104372
 H 0.5267 0.4386 0.3124   0.135533
 H 0.1746 0.3511 0.1608   0.10125
 H 0.636 0.3034 0.2344   0.116576
 H 0.6269 0.8916 0.3256   0.101049
 H 0.6444 0.7228 0.474   0.11186
 H 0.4731 0.5864 0.3873   0.139411
 H 0.4683 0.7456 0.2416   0.113299
 H 0.5123 0.6247 0.2484   0.066615
 H 0.9365 0.0596 0.2695   0.100223
 H 0.5511 0.0704 0.2977   0.117772
 H 0.2949 0.4813 0.0202   0.106419
 H 0.661 0.012 0.019   0.431026
 H 0.9454 0.2062 0.8579   0.097335
 H 0.4007 0.4385 0.872   0.105829
 H 0.1596 0.5308 0.837   0.13301
 H 0.7752 0.4516 0.8414   0.087288
 H 0.7147 0.3164 0.8344   0.119744
 H 0.0118 0.3406 0.7273   0.091635
 H 0.8616 0.2284 0.7286   0.120808
 H 0.0315 0.4276 0.6095   0.144303
 H 0.9697 0.3153 0.504   0.110061
 H 0.7323 0.1179 0.6247   0.065366
 H 0.9315 0.5352 0.7384   0.105355
 H 0.789 0.4942 0.6792   0.104371
 H 0.4733 0.5614 0.6876   0.135534
 H 0.8254 0.6489 0.8392   0.10125
 H 0.364 0.6966 0.7656   0.116576
 H 0.3731 0.1084 0.6744   0.101049
 H 0.3556 0.2772 0.526   0.111858
 H 0.5269 0.4136 0.6127   0.139409
 H 0.5317 0.2544 0.7584   0.113299
 H 0.4877 0.3753 0.7516   0.066615
 H 0.0635 0.9404 0.7305   0.100223
 H 0.4489 0.9296 0.7023   0.117772
 H 0.7051 0.5187 0.9798   0.106422
 H 0.339 0.988 0.981   0.431025
 C 0.97 0.7246 0.14286   0.162195
 C 0.7219 0.5978 0.1354   0.062716
 C 0.8545 0.5456 0.1545   -0.184192
 C 0.2001 0.6199 0.17998   -0.091275
 C 0.2388 0.6232 0.25423   0.035339
 C 0.1133 0.6967 0.2872   -0.113436
 C 0.0367 0.6479 0.4   -0.214678
 C 0.0704 0.7107 0.4578   0.084128
 C 0.2009 0.8187 0.3922   0.166819
 C 0.1956 0.4997 0.2742   -0.104781
 C 0.4692 0.4051 0.2725   -0.155866
 C 0.2765 0.3561 0.1887   0.143041
 C 0.529 0.3302 0.2293   0.050938
 C 0.6099 0.8329 0.352   0.145645
 C 0.6183 0.7399 0.4329   0.084654
 C 0.525 0.664 0.3853   -0.202744
 C 0.4442 0.6804 0.26629   -0.092278
 C 0.438 0.1314 0.4092   0.694903
 C 0.3314 0.0928 0.34478   -0.023143
 C 0.1422 0.0833 0.33708   -0.172584
 C 0.0604 0.0605 0.2752   0.006266
 C 0.1551 0.039 0.22112   -0.203317
 C 0.3416 0.0365 0.22932   -0.065541
 C 0.4266 0.0672 0.29177   -0.125985
 C 0.4498 0.9919 0.17712   0.692396
 C 0.0473 0.0156 0.1567   0.70221
 C 0.0237 0.0857 0.3934   0.662005
 C 0.3115 0.6949 0.0058   0.722125
 C 0.1453 0.5968 0.00378   -0.094935
 C 0.9663 0.6092 0.99112   -0.121684
 C 0.1757 0.4891 0.0121   -0.064629
 C 0.9174 0.7237 0.9859   0.675044
 C 0.03 0.2754 0.85714   0.162195
 C 0.2781 0.4022 0.8646   0.062716
 C 0.1455 0.4544 0.8455   -0.184192
 C 0.7999 0.3801 0.82002   -0.091275
 C 0.7612 0.3768 0.74577   0.035339
 C 0.8867 0.3033 0.7128   -0.113436
 C 0.9633 0.3521 0.6   -0.214677
 C 0.9296 0.2893 0.5422   0.08413
 C 0.7991 0.1813 0.6078   0.166819
 C 0.8044 0.5003 0.7258   -0.10478
 C 0.5308 0.5949 0.7275   -0.155866
 C 0.7235 0.6439 0.8113   0.143041
 C 0.471 0.6698 0.7707   0.050938
 C 0.3901 0.1671 0.648   0.145645
 C 0.3817 0.2601 0.5671   0.084654
 C 0.475 0.336 0.6147   -0.202744
 C 0.5558 0.3196 0.73371   -0.092277
 C 0.562 0.8686 0.5908   0.694903
 C 0.6686 0.9072 0.65522   -0.023143
 C 0.8578 0.9167 0.66292   -0.172584
 C 0.9396 0.9395 0.7248   0.006266
 C 0.8449 0.961 0.77888   -0.203317
 C 0.6584 0.9635 0.77068   -0.065541
 C 0.5734 0.9328 0.70823   -0.125985
 C 0.5502 0.0081 0.82288   0.692396
 C 0.9527 0.9844 0.8433   0.702211
 C 0.9763 0.9143 0.6066   0.662005
 C 0.6885 0.3051 0.9942   0.722125
 C 0.8547 0.4032 0.99622   -0.094934
 C 0.0337 0.3908 0.00888   -0.121686
 C 0.8243 0.5109 0.9879   -0.064633
 C 0.0826 0.2763 0.0141   0.675045
 N 0.7917 0.7117 0.12832   -0.416997
 N 0.0143 0.6274 0.15871   0.059229
 N 0.3078 0.4222 0.24647   0.046443
 N 0.4048 0.3003 0.17647   -0.39988
 N 0.6704 0.8469 0.41279   -0.38342
 N 0.5199 0.7225 0.33242   0.035743
 N 0.1712 0.8177 0.45321   -0.372849
 N 0.1236 0.7174 0.35695   0.04543
 N 0.2083 0.2883 0.87168   -0.416997
 N 0.9857 0.3726 0.84129   0.059229
 N 0.6922 0.5778 0.75353   0.046443
 N 0.5952 0.6997 0.82353   -0.39988
 N 0.3296 0.1531 0.58721   -0.38342
 N 0.4801 0.2775 0.66758   0.035743
 N 0.8288 0.1823 0.54679   -0.37285
 N 0.8764 0.2826 0.64305   0.04543
 O 0.0822 0.0725 0.4474   -0.628502
 O 0.8601 0.0956 0.38153   -0.621546
 O 0.4957 0.237 0.42244   -0.597476
 O 0.4682 0.0531 0.44219   -0.682476
 O 0.8802 0.9794 0.15708   -0.611553
 O 0.1315 0.0346 0.10693   -0.660781
 O 0.468 0.8895 0.17855   -0.598447
 O 0.5244 0.0528 0.13706   -0.612544
 O 0.4062 0.7182 0.05728   -0.616918
 O 0.3452 0.7388 0.95417   -0.642443
 O 0.7602 0.7173 0.96157   -0.650975
 O 0.0294 0.8148 0.00632   -0.598733
 O 0.6955 0.9474 0.01155   -0.986338
 O 0.9178 0.9275 0.5526   -0.628502
 O 0.1399 0.9044 0.61847   -0.621546
 O 0.5043 0.763 0.57756   -0.597476
 O 0.5318 0.9469 0.55781   -0.682476
 O 0.1198 0.0206 0.84292   -0.611553
 O 0.8685 0.9654 0.89307   -0.660781
 O 0.532 0.1105 0.82145   -0.598446
 O 0.4756 0.9472 0.86294   -0.612544
 O 0.5938 0.2818 0.94272   -0.616918
 O 0.6548 0.2612 0.04583   -0.642443
 O 0.2398 0.2827 0.03843   -0.650975
 O 0.9706 0.1852 0.99368   -0.598733
 O 0.3045 0.0526 0.98845   -0.986337
