{'_ref': 'TBD', '_srcid': 'CAKYAQ_clean', 'submitters': [{'name': 'Dalar Nazarian Jeff Camp and David Sholl', 'email': 'dalar@gatech.edu jcamp6@gatech.edu'}], '_method': 'VASP DFT with PBE;DDEC'}
data_ZnH8C17(O2F3)2
_symmetry_space_group_name_H-M   'P 1'
_cell_length_a   7.72000000
_cell_length_b   21.25000015
_cell_length_c   21.25000000
_cell_angle_alpha   119.99999977
_cell_angle_beta   90.00000000
_cell_angle_gamma   90.00000000
_symmetry_Int_Tables_number   1
_chemical_formula_structural   ZnH8C17(O2F3)2
_chemical_formula_sum   'Zn6 H48 C102 O24 F36'
_cell_volume   3019.018712
_cell_formula_units_Z   6
loop_
 _symmetry_equiv_pos_site_id
 _symmetry_equiv_pos_as_xyz
  1  'x, y, z'
loop_
 _atom_site_label
 _atom_site_fract_x
 _atom_site_fract_y
 _atom_site_fract_z
 _atom_site_charge
 Zn 0.83333 0.59806 0.29903   1.011515
 Zn 0.16667 0.70097 0.40194   1.011515
 Zn 0.5 0.70097 0.29903   1.011521
 Zn 0.83333 0.40194 0.70097   1.011515
 Zn 0.16667 0.29903 0.59806   1.011515
 Zn 0.5 0.29903 0.70097   1.011521
 H 0.7244 0.7464 0.1543   0.097454
 H 0.8471 0.764 0.065   0.102025
 H 0.1408 0.6376 0.1568   0.102158
 H 0.2674 0.6569 0.0696   0.113265
 H 0.05773 0.4079 0.2536   0.09752
 H 0.18043 0.301 0.236   0.102028
 H 0.47413 0.5192 0.3624   0.102162
 H 0.60073 0.4127 0.3431   0.113269
 H 0.39107 0.8457 0.5921   0.097481
 H 0.51377 0.935 0.699   0.102026
 H 0.80747 0.8432 0.4808   0.102131
 H 0.93407 0.9304 0.5873   0.113265
 H 0.7244 0.2536 0.8457   0.097454
 H 0.8471 0.236 0.935   0.102025
 H 0.1408 0.3624 0.8432   0.102158
 H 0.2674 0.3431 0.9304   0.113265
 H 0.05773 0.5921 0.7464   0.09752
 H 0.18043 0.699 0.764   0.102028
 H 0.47413 0.4808 0.6376   0.102162
 H 0.60073 0.5873 0.6569   0.113269
 H 0.39107 0.1543 0.4079   0.097481
 H 0.51377 0.065 0.301   0.102026
 H 0.80747 0.1568 0.5192   0.102131
 H 0.93407 0.0696 0.4127   0.113265
 H 0.60893 0.5921 0.8457   0.097482
 H 0.48623 0.699 0.935   0.102026
 H 0.19253 0.4808 0.8432   0.102132
 H 0.06593 0.5873 0.9304   0.113265
 H 0.2756 0.1543 0.7464   0.097454
 H 0.1529 0.065 0.764   0.102025
 H 0.8592 0.1568 0.6376   0.102157
 H 0.7326 0.0696 0.6569   0.113265
 H 0.94227 0.2536 0.4079   0.097521
 H 0.81957 0.236 0.301   0.102028
 H 0.52587 0.3624 0.5192   0.102161
 H 0.39927 0.3431 0.4127   0.113269
 H 0.60893 0.4079 0.1543   0.097482
 H 0.48623 0.301 0.065   0.102026
 H 0.19253 0.5192 0.1568   0.102132
 H 0.06593 0.4127 0.0696   0.113265
 H 0.2756 0.8457 0.2536   0.097454
 H 0.1529 0.935 0.236   0.102025
 H 0.8592 0.8432 0.3624   0.102157
 H 0.7326 0.9304 0.3431   0.113265
 H 0.94227 0.7464 0.5921   0.097521
 H 0.81957 0.764 0.699   0.102028
 H 0.52587 0.6376 0.4808   0.102161
 H 0.39927 0.6569 0.5873   0.113269
 C 0.8283 0.677 0.2196   0.71175
 C 0.9154 0.6893 0.1628   -0.171798
 C 0.8335 0.7273 0.1365   0.000111
 C 0.9077 0.7388 0.0833   -0.149423
 C 0.0813 0.6629 0.1383   -0.008278
 C 0.1566 0.6748 0.086   -0.14398
 C 0.0738 0.712 0.0573   0.082519
 C 0.0411 0.7447 0.9572   0.685795
 C 0.16163 0.5426 0.323   0.711723
 C 0.24873 0.4735 0.3107   -0.171636
 C 0.16683 0.4092 0.2727   6e-06
 C 0.24103 0.3445 0.2612   -0.149455
 C 0.41463 0.4754 0.3371   -0.00839
 C 0.48993 0.4112 0.3252   -0.143943
 C 0.40713 0.3453 0.288   0.082508
 C 0.37443 0.2125 0.2553   0.685964
 C 0.49497 0.7804 0.4574   0.711696
 C 0.58207 0.8372 0.5265   -0.171777
 C 0.50017 0.8635 0.5908   1.3e-05
 C 0.57437 0.9167 0.6555   -0.149349
 C 0.74797 0.8617 0.5246   -0.008236
 C 0.82327 0.914 0.5888   -0.144004
 C 0.74047 0.9427 0.6547   0.08252
 C 0.70777 0.0428 0.7875   0.68583
 C 0.8283 0.323 0.7804   0.71175
 C 0.9154 0.3107 0.8372   -0.171798
 C 0.8335 0.2727 0.8635   0.000111
 C 0.9077 0.2612 0.9167   -0.149423
 C 0.0813 0.3371 0.8617   -0.008278
 C 0.1566 0.3252 0.914   -0.14398
 C 0.0738 0.288 0.9427   0.082519
 C 0.0411 0.2553 0.0428   0.685795
 C 0.16163 0.4574 0.677   0.711723
 C 0.24873 0.5265 0.6893   -0.171636
 C 0.16683 0.5908 0.7273   6e-06
 C 0.24103 0.6555 0.7388   -0.149455
 C 0.41463 0.5246 0.6629   -0.00839
 C 0.48993 0.5888 0.6748   -0.143943
 C 0.40713 0.6547 0.712   0.082508
 C 0.37443 0.7875 0.7447   0.685964
 C 0.49497 0.2196 0.5426   0.711696
 C 0.58207 0.1628 0.4735   -0.171777
 C 0.50017 0.1365 0.4092   1.3e-05
 C 0.57437 0.0833 0.3445   -0.149349
 C 0.74797 0.1383 0.4754   -0.008236
 C 0.82327 0.086 0.4112   -0.144004
 C 0.74047 0.0573 0.3453   0.08252
 C 0.70777 0.9572 0.2125   0.68583
 C 0.50503 0.4574 0.7804   0.711688
 C 0.41793 0.5265 0.8372   -0.171758
 C 0.49983 0.5908 0.8635   1e-06
 C 0.42563 0.6555 0.9167   -0.149346
 C 0.25203 0.5246 0.8617   -0.008246
 C 0.17673 0.5888 0.914   -0.144001
 C 0.25953 0.6547 0.9427   0.082519
 C 0.29223 0.7875 0.0428   0.68583
 C 0.1717 0.2196 0.677   0.71175
 C 0.0846 0.1628 0.6893   -0.171798
 C 0.1665 0.1365 0.7273   0.000111
 C 0.0923 0.0833 0.7388   -0.149423
 C 0.9187 0.1383 0.6629   -0.008278
 C 0.8434 0.086 0.6748   -0.14398
 C 0.9262 0.0573 0.712   0.082519
 C 0.9589 0.9572 0.7447   0.685795
 C 0.83837 0.323 0.5426   0.711723
 C 0.75127 0.3107 0.4735   -0.171636
 C 0.83317 0.2727 0.4092   5e-06
 C 0.75897 0.2612 0.3445   -0.149455
 C 0.58537 0.3371 0.4754   -0.00839
 C 0.51007 0.3252 0.4112   -0.143943
 C 0.59287 0.288 0.3453   0.082508
 C 0.62557 0.2553 0.2125   0.685964
 C 0.50503 0.5426 0.2196   0.711688
 C 0.41793 0.4735 0.1628   -0.171758
 C 0.49983 0.4092 0.1365   1e-06
 C 0.42563 0.3445 0.0833   -0.149346
 C 0.25203 0.4754 0.1383   -0.008246
 C 0.17673 0.4112 0.086   -0.144001
 C 0.25953 0.3453 0.0573   0.082519
 C 0.29223 0.2125 0.9572   0.68583
 C 0.1717 0.7804 0.323   0.71175
 C 0.0846 0.8372 0.3107   -0.171798
 C 0.1665 0.8635 0.2727   0.000111
 C 0.0923 0.9167 0.2612   -0.149423
 C 0.9187 0.8617 0.3371   -0.008278
 C 0.8434 0.914 0.3252   -0.14398
 C 0.9262 0.9427 0.288   0.082519
 C 0.9589 0.0428 0.2553   0.685795
 C 0.83837 0.677 0.4574   0.711723
 C 0.75127 0.6893 0.5265   -0.171636
 C 0.83317 0.7273 0.5908   5e-06
 C 0.75897 0.7388 0.6555   -0.149455
 C 0.58537 0.6629 0.5246   -0.00839
 C 0.51007 0.6748 0.5888   -0.143943
 C 0.59287 0.712 0.6547   0.082508
 C 0.62557 0.7447 0.7875   0.685964
 C 0.16667 0.7231 0.0   -0.291155
 C 0.5 0.2769 0.2769   -0.291096
 C 0.83333 0.0 0.7231   -0.291155
 C 0.16667 0.2769 0.0   -0.291155
 C 0.5 0.7231 0.7231   -0.291096
 C 0.83333 0.0 0.2769   -0.291155
 O 0.9073 0.6376 0.2389   -0.607856
 O 0.6857 0.7066 0.2422   -0.583086
 O 0.24063 0.6013 0.3624   -0.607832
 O 0.01903 0.5356 0.2934   -0.583108
 O 0.57397 0.7611 0.3987   -0.607867
 O 0.35237 0.7578 0.4644   -0.583041
 O 0.9073 0.3624 0.7611   -0.607856
 O 0.6857 0.2934 0.7578   -0.583086
 O 0.24063 0.3987 0.6376   -0.607832
 O 0.01903 0.4644 0.7066   -0.583108
 O 0.57397 0.2389 0.6013   -0.607867
 O 0.35237 0.2422 0.5356   -0.583041
 O 0.42603 0.3987 0.7611   -0.607866
 O 0.64763 0.4644 0.7578   -0.58304
 O 0.0927 0.2389 0.6376   -0.607856
 O 0.3143 0.2422 0.7066   -0.583086
 O 0.75937 0.3624 0.6013   -0.607832
 O 0.98097 0.2934 0.5356   -0.583108
 O 0.42603 0.6013 0.2389   -0.607866
 O 0.64763 0.5356 0.2422   -0.58304
 O 0.0927 0.7611 0.3624   -0.607856
 O 0.3143 0.7578 0.2934   -0.583086
 O 0.75937 0.6376 0.3987   -0.607832
 O 0.98097 0.7066 0.4644   -0.583108
 F 0.1225 0.7465 0.9024   -0.205087
 F 0.9121 0.6977 0.9285   -0.187786
 F 0.9697 0.8101 0.9971   -0.197973
 F 0.45583 0.1559 0.2535   -0.205151
 F 0.24543 0.2308 0.3023   -0.187846
 F 0.30303 0.187 0.1899   -0.19802
 F 0.78917 0.0976 0.8441   -0.205092
 F 0.57877 0.0715 0.7692   -0.18781
 F 0.63637 0.0029 0.813   -0.197963
 F 0.1225 0.2535 0.0976   -0.205087
 F 0.9121 0.3023 0.0715   -0.187786
 F 0.9697 0.1899 0.0029   -0.197973
 F 0.45583 0.8441 0.7465   -0.205152
 F 0.24543 0.7692 0.6977   -0.187846
 F 0.30303 0.813 0.8101   -0.19802
 F 0.78917 0.9024 0.1559   -0.205092
 F 0.57877 0.9285 0.2308   -0.18781
 F 0.63637 0.9971 0.187   -0.197963
 F 0.21083 0.8441 0.0976   -0.205092
 F 0.42123 0.7692 0.0715   -0.18781
 F 0.36363 0.813 0.0029   -0.197964
 F 0.8775 0.9024 0.7465   -0.205087
 F 0.0879 0.9285 0.6977   -0.187786
 F 0.0303 0.9971 0.8101   -0.197974
 F 0.54417 0.2535 0.1559   -0.205151
 F 0.75457 0.3023 0.2308   -0.187846
 F 0.69697 0.1899 0.187   -0.198021
 F 0.21083 0.1559 0.9024   -0.205092
 F 0.42123 0.2308 0.9285   -0.18781
 F 0.36363 0.187 0.9971   -0.197964
 F 0.8775 0.0976 0.2535   -0.205087
 F 0.0879 0.0715 0.3023   -0.187786
 F 0.0303 0.0029 0.1899   -0.197974
 F 0.54417 0.7465 0.8441   -0.205152
 F 0.75457 0.6977 0.7692   -0.187846
 F 0.69697 0.8101 0.813   -0.198021
