{'_ref': 'TBD', '_srcid': 'CAKYAQ_clean', 'submitters': [{'name': 'Dalar Nazarian Jeff Camp and David Sholl', 'email': 'dalar@gatech.edu jcamp6@gatech.edu'}], '_method': 'VASP DFT with PBE;DDEC'}
data_NaCe2H20(C4O5)4
_symmetry_space_group_name_H-M   'P 1'
_cell_length_a   9.89300016
_cell_length_b   12.12940014
_cell_length_c   16.31970000
_cell_angle_alpha   68.83319825
_cell_angle_beta   72.35620146
_cell_angle_gamma   65.93270042
_symmetry_Int_Tables_number   1
_chemical_formula_structural   NaCe2H20(C4O5)4
_chemical_formula_sum   'Na2 Ce4 H40 C32 O40'
_cell_volume   1639.25797368
_cell_formula_units_Z   2
loop_
 _symmetry_equiv_pos_site_id
 _symmetry_equiv_pos_as_xyz
  1  'x, y, z'
loop_
 _atom_site_label
 _atom_site_fract_x
 _atom_site_fract_y
 _atom_site_fract_z
 _atom_site_charge
 Na 0.1057 0.75 0.25   0.958857
 Na 0.8943 0.25 0.75   0.958857
 Ce 0.05176 0.46482 0.20608   2.095203
 Ce 0.72266 0.03518 0.29392   2.095415
 Ce 0.94824 0.53518 0.79392   2.095203
 Ce 0.27734 0.96482 0.70608   2.095416
 H 0.5482 0.3685 0.0035   0.105169
 H 0.7201 0.4118 0.05   0.144027
 H 0.5873 0.4789 0.1191   0.13801
 H 0.0429 0.8315 0.9535   0.145758
 H 0.871 0.8803 0.000700000000002   0.157172
 H 0.1167 0.9004 0.045   0.092707
 H 0.908 0.343 0.151   0.431572
 H 0.791 0.509 0.269   0.399985
 H 0.057 0.293 0.161   0.392436
 H 0.688 0.608 0.216   0.48022
 H 0.9202 0.1315 0.4965   0.103476
 H 0.1819 0.0882 0.45   0.144544
 H 0.1853 0.0211 0.3809   0.137562
 H 0.8279 0.6685 0.5465   0.144802
 H 0.752 0.6197 0.4993   0.156998
 H 0.0621 0.5996 0.455   0.092114
 H 0.402 0.157 0.349   0.432142
 H 0.569 0.991 0.231   0.401657
 H 0.511 0.207 0.339   0.389713
 H 0.512 0.892 0.284   0.480567
 H 0.4518 0.6315 0.9965   0.105171
 H 0.2799 0.5882 0.95   0.144026
 H 0.4127 0.5211 0.8809   0.138011
 H 0.9571 0.1685 0.0465   0.145758
 H 0.129 0.1197 0.9993   0.157174
 H 0.8833 0.0996 0.955   0.092709
 H 0.092 0.657 0.849   0.431572
 H 0.209 0.491 0.731   0.399985
 H 0.943 0.707 0.839   0.392437
 H 0.312 0.392 0.784   0.48022
 H 0.0798 0.8685 0.5035   0.103477
 H 0.8181 0.9118 0.55   0.144543
 H 0.8147 0.9789 0.6191   0.137563
 H 0.1721 0.3315 0.4535   0.144801
 H 0.248 0.3803 0.5007   0.157
 H 0.9379 0.4004 0.545   0.092115
 H 0.598 0.843 0.651   0.432142
 H 0.431 0.009 0.769   0.401657
 H 0.489 0.793 0.661   0.389713
 H 0.488 0.108 0.716   0.480567
 C 0.3601 0.4346 0.0936   0.638575
 C 0.5102 0.4353 0.0351   -0.101144
 C 0.6229 0.4103 0.0903   -0.334601
 C 0.6497 0.2843 0.1631   0.693948
 C 0.996 0.7181 0.0777   0.70324
 C 0.976 0.8438 0.0108   -0.333813
 C 0.0092 0.9373 0.0373   -0.111204
 C 0.9142 0.9643 0.1233   0.68237
 C 0.8883 0.0654 0.4064   0.638338
 C 0.9806 0.0647 0.4649   -0.098229
 C 0.1235 0.0897 0.4097   -0.334182
 C 0.0971 0.2157 0.3369   0.692366
 C 0.7918 0.7819 0.4223   0.703703
 C 0.8306 0.6562 0.4892   -0.331619
 C 0.9838 0.5627 0.4627   -0.111106
 C 0.0018 0.5357 0.3767   0.68132
 C 0.6399 0.5654 0.9064   0.638575
 C 0.4898 0.5647 0.9649   -0.101146
 C 0.3771 0.5897 0.9097   -0.334601
 C 0.3503 0.7157 0.8369   0.693948
 C 0.004 0.2819 0.9223   0.70324
 C 0.024 0.1562 0.9892   -0.333814
 C 0.9908 0.0627 0.9627   -0.111206
 C 0.0858 0.0357 0.8767   0.68237
 C 0.1117 0.9346 0.5936   0.638338
 C 0.0194 0.9353 0.5351   -0.098231
 C 0.8765 0.9103 0.5903   -0.334182
 C 0.9029 0.7843 0.6631   0.692366
 C 0.2082 0.2181 0.5777   0.703703
 C 0.1694 0.3438 0.5108   -0.33162
 C 0.0162 0.4373 0.5373   -0.111107
 C 0.9982 0.4643 0.6233   0.68132
 O 0.3035 0.5034 0.1482   -0.647571
 O 0.2855 0.3736 0.0878   -0.559104
 O 0.7607 0.2474 0.2028   -0.681273
 O 0.5665 0.2232 0.1822   -0.622892
 O 0.9924 0.7043 0.1593   -0.754394
 O 0.0066 0.6245 0.0533   -0.575862
 O 0.9788 0.9638 0.1816   -0.768446
 O 0.7755 0.9913 0.1367   -0.649455
 O 0.9968 0.344 0.1264   -0.790588
 O 0.7642 0.5397 0.2179   -0.84938
 O 0.9551 0.9966 0.3518   -0.647658
 O 0.7469 0.1264 0.4122   -0.559611
 O 0.2109 0.2526 0.2972   -0.679678
 O 0.9719 0.2768 0.3178   -0.623653
 O 0.856 0.7957 0.3407   -0.754755
 O 0.6844 0.8755 0.4467   -0.576634
 O 0.1242 0.5362 0.3184   -0.76825
 O 0.9035 0.5087 0.3633   -0.648708
 O 0.4672 0.156 0.3736   -0.788704
 O 0.5218 0.9603 0.2821   -0.851451
 O 0.6965 0.4966 0.8518   -0.647571
 O 0.7145 0.6264 0.9122   -0.559104
 O 0.2393 0.7526 0.7972   -0.681273
 O 0.4335 0.7768 0.8178   -0.622892
 O 0.0076 0.2957 0.8407   -0.754394
 O 0.9934 0.3755 0.9467   -0.575862
 O 0.0212 0.0362 0.8184   -0.768446
 O 0.2245 0.0087 0.8633   -0.649455
 O 0.0032 0.656 0.8736   -0.790588
 O 0.2358 0.4603 0.7821   -0.849381
 O 0.0449 0.0034 0.6482   -0.647658
 O 0.2531 0.8736 0.5878   -0.559611
 O 0.7891 0.7474 0.7028   -0.679678
 O 0.0281 0.7232 0.6822   -0.623653
 O 0.144 0.2043 0.6593   -0.754755
 O 0.3156 0.1245 0.5533   -0.576634
 O 0.8758 0.4638 0.6816   -0.76825
 O 0.0965 0.4913 0.6367   -0.648708
 O 0.5328 0.844 0.6264   -0.788704
 O 0.4782 0.0397 0.7179   -0.851451
