{'_ref': 'TBD', '_srcid': 'CAKYAQ_clean', 'submitters': [{'name': 'Dalar Nazarian Jeff Camp and David Sholl', 'email': 'dalar@gatech.edu jcamp6@gatech.edu'}], '_method': 'VASP DFT with PBE;DDEC'}
data_ZnH4(C2O)4
_symmetry_space_group_name_H-M   'P 1'
_cell_length_a   9.72600029
_cell_length_b   9.91100021
_cell_length_c   10.45000000
_cell_angle_alpha   99.71999821
_cell_angle_beta   111.11000188
_cell_angle_gamma   108.41999883
_symmetry_Int_Tables_number   1
_chemical_formula_structural   ZnH4(C2O)4
_chemical_formula_sum   'Zn3 H12 C24 O12'
_cell_volume   844.895389958
_cell_formula_units_Z   3
loop_
 _symmetry_equiv_pos_site_id
 _symmetry_equiv_pos_as_xyz
  1  'x, y, z'
loop_
 _atom_site_label
 _atom_site_fract_x
 _atom_site_fract_y
 _atom_site_fract_z
 _atom_site_charge
 Zn 0.4272 0.6026 0.7893   1.111
 Zn 0.5728 0.3974 0.2107   1.110998
 Zn 0.5 0.5 0.5   1.144006
 H 0.1674 0.052 0.3887   0.095712
 H 0.0271 0.1878 0.683   0.102557
 H 0.8476 0.5767 0.0968   0.091468
 H 0.9308 0.4526 0.756   0.107768
 H 0.3543 0.7431 0.4014   0.095089
 H 0.6692 0.1064 0.744   0.106306
 H 0.8326 0.948 0.6113   0.095707
 H 0.9729 0.8122 0.317   0.102551
 H 0.1524 0.4233 0.9032   0.091465
 H 0.0692 0.5474 0.244   0.107766
 H 0.6457 0.2569 0.5986   0.095088
 H 0.3308 0.8936 0.256   0.106304
 C 0.2463 0.3015 0.5912   0.721156
 C 0.119 0.1452 0.5451   -0.1285
 C 0.1004 0.0315 0.4342   -0.045792
 C 0.0171 0.1125 0.6093   -0.057714
 C 0.7128 0.5275 0.8106   0.718008
 C 0.8621 0.5143 0.9095   -0.116679
 C 0.9082 0.545 0.0574   -0.062833
 C 0.9579 0.4709 0.8541   -0.062795
 C 0.5275 0.8115 0.6813   0.680246
 C 0.5162 0.91 0.5875   -0.106752
 C 0.4135 0.8465 0.4414   -0.042563
 C 0.6011 0.0632 0.6453   -0.053665
 C 0.7537 0.6985 0.4088   0.721156
 C 0.881 0.8548 0.4549   -0.128506
 C 0.8996 0.9685 0.5658   -0.045776
 C 0.9829 0.8875 0.3907   -0.057701
 C 0.2872 0.4725 0.1894   0.718008
 C 0.1379 0.4857 0.0905   -0.116679
 C 0.0918 0.455 0.9426   -0.062832
 C 0.0421 0.5291 0.1459   -0.062793
 C 0.4725 0.1885 0.3187   0.680245
 C 0.4838 0.09 0.4125   -0.106753
 C 0.5865 0.1535 0.5586   -0.042563
 C 0.3989 0.9368 0.3547   -0.053663
 O 0.3317 0.3267 0.5259   -0.593777
 O 0.2583 0.3964 0.6973   -0.632221
 O 0.6918 0.5242 0.6854   -0.593273
 O 0.6179 0.541 0.8649   -0.664387
 O 0.4556 0.669 0.6215   -0.675558
 O 0.597 0.8665 0.8158   -0.564811
 O 0.6683 0.6733 0.4741   -0.593775
 O 0.7417 0.6036 0.3027   -0.632221
 O 0.3082 0.4758 0.3146   -0.59327
 O 0.3821 0.459 0.1351   -0.664386
 O 0.5444 0.331 0.3785   -0.675558
 O 0.403 0.1335 0.1842   -0.564808
