{'_ref': 'TBD', '_srcid': 'CAKYAQ_clean', 'submitters': [{'name': 'Dalar Nazarian Jeff Camp and David Sholl', 'email': 'dalar@gatech.edu jcamp6@gatech.edu'}], '_method': 'VASP DFT with PBE;DDEC'}
data_Ni2H14C14O9
_symmetry_space_group_name_H-M   'P 1'
_cell_length_a   10.06560000
_cell_length_b   11.16250000
_cell_length_c   19.20110000
_cell_angle_alpha   90.00000000
_cell_angle_beta   90.00000000
_cell_angle_gamma   90.00000000
_symmetry_Int_Tables_number   1
_chemical_formula_structural   Ni2H14C14O9
_chemical_formula_sum   'Ni8 H56 C56 O36'
_cell_volume   2157.38298499
_cell_formula_units_Z   4
loop_
 _symmetry_equiv_pos_site_id
 _symmetry_equiv_pos_as_xyz
  1  'x, y, z'
loop_
 _atom_site_label
 _atom_site_fract_x
 _atom_site_fract_y
 _atom_site_fract_z
 _atom_site_charge
 Ni 0.96321 0.12971 0.52106   0.810653
 Ni 0.75162 0.01502 0.3982   1.01803
 Ni 0.53679 0.87029 0.02106   0.810653
 Ni 0.74838 0.98498 0.8982   1.01803
 Ni 0.03679 0.62971 0.97894   0.810652
 Ni 0.24838 0.51502 0.1018   1.01803
 Ni 0.46321 0.37029 0.47894   0.810652
 Ni 0.25162 0.48498 0.6018   1.01803
 H 0.6638 0.7073 0.527   0.103518
 H 0.5734 0.7767 0.5785   0.100659
 H 0.7916 0.5286 0.5686   0.09051
 H 0.7772 0.4848 0.6448   0.096599
 H 0.9746 0.7917 0.6008   0.106414
 H 0.9136 0.7155 0.5413   0.10204
 H 0.6741 0.8991 0.6746   0.106828
 H 0.8272 0.9017 0.6838   0.108047
 H 0.6284 0.5954 0.7277   0.106229
 H 0.5489 0.7059 0.7021   0.107094
 H 0.9483 0.7234 0.7258   0.102612
 H 0.8724 0.6057 0.742   0.100276
 H 0.7505 0.2017 0.484   0.46862
 H 0.8286 0.215 0.4229   0.44913
 H 0.8362 0.2927 0.027   0.103518
 H 0.9266 0.2233 0.0785   0.100659
 H 0.7084 0.4714 0.0686   0.09051
 H 0.7228 0.5152 0.1448   0.096599
 H 0.5254 0.2083 0.1008   0.106414
 H 0.5864 0.2845 0.0413   0.10204
 H 0.8259 0.1009 0.1746   0.106828
 H 0.6728 0.0983 0.1838   0.108047
 H 0.8716 0.4046 0.2277   0.106229
 H 0.9511 0.2941 0.2021   0.107094
 H 0.5517 0.2766 0.2258   0.102612
 H 0.6276 0.3943 0.242   0.100276
 H 0.7495 0.7983 0.984   0.46862
 H 0.6714 0.785 0.9229   0.44913
 H 0.3362 0.2073 0.973   0.103519
 H 0.4266 0.2767 0.9215   0.100659
 H 0.2084 0.0286 0.9314   0.090509
 H 0.2228 0.9848 0.8552   0.096596
 H 0.0254 0.2917 0.8992   0.106413
 H 0.0864 0.2155 0.9587   0.102041
 H 0.3259 0.3991 0.8254   0.106827
 H 0.1728 0.4017 0.8162   0.108048
 H 0.3716 0.0954 0.7723   0.106226
 H 0.4511 0.2059 0.7979   0.10709
 H 0.0517 0.2234 0.7742   0.102611
 H 0.1276 0.1057 0.758   0.100276
 H 0.2495 0.7017 0.016   0.46862
 H 0.1714 0.715 0.0771   0.44913
 H 0.1638 0.7927 0.473   0.103519
 H 0.0734 0.7233 0.4215   0.100659
 H 0.2916 0.9714 0.4314   0.090509
 H 0.2772 0.0152 0.3552   0.096596
 H 0.4746 0.7083 0.3992   0.106413
 H 0.4136 0.7845 0.4587   0.102041
 H 0.1741 0.6009 0.3254   0.106827
 H 0.3272 0.5983 0.3162   0.108048
 H 0.1284 0.9046 0.2723   0.106226
 H 0.0489 0.7941 0.2979   0.10709
 H 0.4483 0.7766 0.2742   0.102611
 H 0.3724 0.8943 0.258   0.100276
 H 0.2505 0.2983 0.516   0.46862
 H 0.3286 0.285 0.5771   0.44913
 C 0.7867 0.9206 0.5439   0.672108
 C 0.7711 0.813 0.594   0.009737
 C 0.6537 0.7327 0.5739   -0.198527
 C 0.6484 0.6217 0.6219   0.00708
 C 0.7802 0.5532 0.6155   -0.200529
 C 0.898 0.6316 0.6368   0.025523
 C 0.9022 0.7417 0.588   -0.198454
 C 0.7535 0.8537 0.6705   -0.21332
 C 0.7453 0.7447 0.7184   0.020349
 C 0.6301 0.6633 0.6979   -0.208514
 C 0.8763 0.6736 0.7122   -0.20492
 C 0.5324 0.5436 0.5967   0.679895
 C 0.0313 0.5701 0.6274   0.621169
 C 0.7321 0.7876 0.7943   0.650221
 C 0.7133 0.0794 0.0439   0.672108
 C 0.7289 0.187 0.094   0.009737
 C 0.8463 0.2673 0.0739   -0.198527
 C 0.8516 0.3783 0.1219   0.00708
 C 0.7198 0.4468 0.1155   -0.200529
 C 0.602 0.3684 0.1368   0.025523
 C 0.5978 0.2583 0.088   -0.198454
 C 0.7465 0.1463 0.1705   -0.21332
 C 0.7547 0.2553 0.2184   0.020349
 C 0.8699 0.3367 0.1979   -0.208514
 C 0.6237 0.3264 0.2122   -0.20492
 C 0.9676 0.4564 0.0967   0.679895
 C 0.4687 0.4299 0.1274   0.621169
 C 0.7679 0.2124 0.2943   0.650221
 C 0.2133 0.4206 0.9561   0.672108
 C 0.2289 0.313 0.906   0.009737
 C 0.3463 0.2327 0.9261   -0.198527
 C 0.3516 0.1217 0.8781   0.007079
 C 0.2198 0.0532 0.8845   -0.200528
 C 0.102 0.1316 0.8632   0.025523
 C 0.0978 0.2417 0.912   -0.198454
 C 0.2465 0.3537 0.8295   -0.213319
 C 0.2547 0.2447 0.7816   0.020348
 C 0.3699 0.1633 0.8021   -0.208511
 C 0.1237 0.1736 0.7878   -0.20492
 C 0.4676 0.0436 0.9033   0.679895
 C 0.9687 0.0701 0.8726   0.621169
 C 0.2679 0.2876 0.7057   0.650221
 C 0.2867 0.5794 0.4561   0.672108
 C 0.2711 0.687 0.406   0.009737
 C 0.1537 0.7673 0.4261   -0.198527
 C 0.1484 0.8783 0.3781   0.007079
 C 0.2802 0.9468 0.3845   -0.200528
 C 0.398 0.8684 0.3632   0.025523
 C 0.4022 0.7583 0.412   -0.198454
 C 0.2535 0.6463 0.3295   -0.213319
 C 0.2453 0.7553 0.2816   0.020348
 C 0.1301 0.8367 0.3021   -0.208511
 C 0.3763 0.8264 0.2878   -0.20492
 C 0.0324 0.9564 0.4033   0.679895
 C 0.5313 0.9299 0.3726   0.621169
 C 0.2321 0.7124 0.2057   0.650221
 O 0.8353 0.0156 0.56967   -0.596117
 O 0.7568 0.9039 0.48158   -0.552953
 O 0.4305 0.5379 0.63247   -0.517235
 O 0.5498 0.4948 0.53791   -0.622347
 O 0.042 0.4758 0.5912   -0.588464
 O 0.1347 0.6171 0.65279   -0.513745
 O 0.6872 0.7124 0.83919   -0.656754
 O 0.7669 0.8894 0.80863   -0.538202
 O 0.8066 0.1688 0.45279   -0.853254
 O 0.6647 0.9844 0.06967   -0.596117
 O 0.7432 0.0961 0.98158   -0.552953
 O 0.0695 0.4621 0.13247   -0.517235
 O 0.9502 0.5052 0.03791   -0.622347
 O 0.458 0.5242 0.0912   -0.588464
 O 0.3653 0.3829 0.15279   -0.513745
 O 0.8128 0.2876 0.33919   -0.656754
 O 0.7331 0.1106 0.30863   -0.538202
 O 0.6934 0.8312 0.95279   -0.853254
 O 0.1647 0.5156 0.93033   -0.596117
 O 0.2432 0.4039 0.01842   -0.552953
 O 0.5695 0.0379 0.86753   -0.517235
 O 0.4502 0.9948 0.96209   -0.622347
 O 0.958 0.9758 0.9088   -0.588464
 O 0.8653 0.1171 0.84721   -0.513745
 O 0.3128 0.2124 0.66081   -0.656754
 O 0.2331 0.3894 0.69137   -0.538202
 O 0.1934 0.6688 0.04721   -0.853254
 O 0.3353 0.4844 0.43033   -0.596117
 O 0.2568 0.5961 0.51842   -0.552953
 O 0.9305 0.9621 0.36753   -0.517235
 O 0.0498 0.0052 0.46209   -0.622347
 O 0.542 0.0242 0.4088   -0.588464
 O 0.6347 0.8829 0.34721   -0.513745
 O 0.1872 0.7876 0.16081   -0.656754
 O 0.2669 0.6106 0.19137   -0.538202
 O 0.3066 0.3312 0.54721   -0.853254
