{'_ref': 'TBD', '_srcid': 'CAKYAQ_clean', 'submitters': [{'name': 'Dalar Nazarian Jeff Camp and David Sholl', 'email': 'dalar@gatech.edu jcamp6@gatech.edu'}], '_method': 'VASP DFT with PBE;DDEC'}
data_CrH4C8O5
_symmetry_space_group_name_H-M   'P 1'
_cell_length_a   6.83650020
_cell_length_b   11.18430002
_cell_length_c   11.18430000
_cell_angle_alpha   83.35080223
_cell_angle_beta   72.20389946
_cell_angle_gamma   72.20399944
_symmetry_Int_Tables_number   1
_chemical_formula_structural   CrH4C8O5
_chemical_formula_sum   'Cr2 H8 C16 O10'
_cell_volume   775.050921645
_cell_formula_units_Z   2
loop_
 _symmetry_equiv_pos_site_id
 _symmetry_equiv_pos_as_xyz
  1  'x, y, z'
loop_
 _atom_site_label
 _atom_site_fract_x
 _atom_site_fract_y
 _atom_site_fract_z
 _atom_site_charge
 Cr 0.0 0.0 0.5   1.757886
 Cr 0.5 0.0 0.5   1.754649
 H 0.1453 0.0038 0.1102   0.1169
 H 0.7407 0.6102 0.5038   0.115946
 H 0.8547 0.3898 0.4962   0.116904
 H 0.2593 0.9962 0.8898   0.115942
 H 0.8547 0.9962 0.8898   0.116899
 H 0.2593 0.3898 0.4962   0.115945
 H 0.1453 0.6102 0.5038   0.116903
 H 0.7407 0.0038 0.1102   0.115941
 C 0.2933 0.0022 0.0642   -0.059367
 C 0.6403 0.5642 0.5022   -0.057545
 C 0.7067 0.4358 0.4978   -0.059348
 C 0.3597 0.9978 0.9358   -0.057508
 C 0.7067 0.9978 0.9358   -0.059366
 C 0.3597 0.4358 0.4978   -0.057544
 C 0.2933 0.5642 0.5022   -0.059347
 C 0.6403 0.0022 0.0642   -0.057507
 C 0.4336 0.0043 0.1285   -0.113729
 C 0.3623 0.009 0.2664   0.749346
 C 0.4336 0.6285 0.5043   -0.11372
 C 0.3623 0.7664 0.509   0.749353
 C 0.5664 0.3715 0.4957   -0.11372
 C 0.6377 0.2336 0.491   0.749351
 C 0.5664 0.9957 0.8715   -0.113729
 C 0.6377 0.991 0.7336   0.749348
 O 0.1739 0.0109 0.3249   -0.620473
 O 0.4903 0.8249 0.5109   -0.6185
 O 0.8261 0.1751 0.4891   -0.620479
 O 0.5097 0.9891 0.6751   -0.618503
 O 0.8261 0.9891 0.6751   -0.620473
 O 0.5097 0.1751 0.4891   -0.6185
 O 0.1739 0.8249 0.5109   -0.620479
 O 0.4903 0.0109 0.3249   -0.618502
 O 0.1985 0.0515 0.5515   -0.781487
 O 0.8015 0.9485 0.4485   -0.781487
