{'_ref': 'TBD', '_srcid': 'CAKYAQ_clean', 'submitters': [{'name': 'Dalar Nazarian Jeff Camp and David Sholl', 'email': 'dalar@gatech.edu jcamp6@gatech.edu'}], '_method': 'VASP DFT with PBE;DDEC'}
data_MgH6(C3O)4
_symmetry_space_group_name_H-M   'P 1'
_cell_length_a   11.74359999
_cell_length_b   11.74359993
_cell_length_c   20.97900000
_cell_angle_alpha   97.33270149
_cell_angle_beta   97.33270145
_cell_angle_gamma   100.33299971
_symmetry_Int_Tables_number   1
_chemical_formula_structural   MgH6(C3O)4
_chemical_formula_sum   'Mg6 H36 C72 O24'
_cell_volume   2789.2634193
_cell_formula_units_Z   6
loop_
 _symmetry_equiv_pos_site_id
 _symmetry_equiv_pos_as_xyz
  1  'x, y, z'
loop_
 _atom_site_label
 _atom_site_fract_x
 _atom_site_fract_y
 _atom_site_fract_z
 _atom_site_charge
 Mg 0.04988 0.54042 0.30768   1.592227
 Mg 0.45958 0.95012 0.19232   1.592226
 Mg 0.95012 0.45958 0.69232   1.592227
 Mg 0.54042 0.04988 0.80768   1.592227
 Mg 0.24815 0.75185 0.25   1.551928
 Mg 0.75185 0.24815 0.75   1.551928
 H 0.1244 0.023 0.361   0.111201
 H 0.0797 0.1665 0.4337   0.111564
 H 0.9995 0.7761 0.4633   0.105044
 H 0.5018 0.7308 0.4143   0.078482
 H 0.6354 0.706 0.4993   0.103957
 H 0.3042 0.4148 0.4178   0.103
 H 0.0339 0.3107 0.11   0.112638
 H 0.9899 0.2717 0.9984   0.090408
 H 0.0539 0.6569 0.1087   0.111922
 H 0.977 0.8756 0.139   0.111201
 H 0.8335 0.9203 0.0663   0.111564
 H 0.2239 0.000500000000002 0.0367   0.105044
 H 0.2692 0.4982 0.0857   0.078482
 H 0.294 0.3646 0.000700000000002   0.103957
 H 0.5852 0.6958 0.0822   0.103
 H 0.6893 0.9661 0.39   0.112638
 H 0.7283 0.0101 0.5016   0.090408
 H 0.3431 0.9461 0.3913   0.111922
 H 0.8756 0.977 0.639   0.111201
 H 0.9203 0.8335 0.5663   0.111564
 H 0.000500000000002 0.2239 0.5367   0.105044
 H 0.4982 0.2692 0.5857   0.078482
 H 0.3646 0.294 0.5007   0.103957
 H 0.6958 0.5852 0.5822   0.103
 H 0.9661 0.6893 0.89   0.112638
 H 0.0101 0.7283 0.0016   0.090408
 H 0.9461 0.3431 0.8913   0.111922
 H 0.023 0.1244 0.861   0.111201
 H 0.1665 0.0797 0.9337   0.111564
 H 0.7761 0.9995 0.9633   0.105044
 H 0.7308 0.5018 0.9143   0.078482
 H 0.706 0.6354 0.9993   0.103957
 H 0.4148 0.3042 0.9178   0.103
 H 0.3107 0.0339 0.61   0.112638
 H 0.2717 0.9899 0.4984   0.090408
 H 0.6569 0.0539 0.6087   0.111922
 C 0.1024 0.7952 0.3598   0.772634
 C 0.0688 0.8866 0.4063   -0.142219
 C 0.0902 0.002 0.3976   -0.04059
 C 0.0634 0.0872 0.4407   -0.14637
 C 0.0121 0.0589 0.4953   0.042454
 C 0.0167 0.8563 0.4582   -0.072557
 C 0.3019 0.5905 0.3518   0.790201
 C 0.39 0.574 0.4068   -0.144931
 C 0.4889 0.6605 0.4326   -0.032621
 C 0.5676 0.6466 0.4835   -0.15517
 C 0.5491 0.5447 0.5127   0.045296
 C 0.3718 0.4736 0.4346   -0.087416
 C 0.0666 0.5092 0.1913   0.742321
 C 0.047 0.4882 0.1192   -0.113448
 C 0.028 0.3734 0.086   -0.05549
 C 0.0011 0.3501 0.0199   -0.118045
 C 0.9895 0.4409 0.9831   0.038232
 C 0.0396 0.5792 0.0858   -0.065691
 C 0.2048 0.8976 0.1402   0.772634
 C 0.1134 0.9312 0.0937   -0.142219
 C 0.998 0.9098 0.1024   -0.04059
 C 0.9128 0.9366 0.0593   -0.14637
 C 0.9411 0.9879 0.0047   0.042454
 C 0.1437 0.9833 0.0418   -0.072557
 C 0.4095 0.6981 0.1482   0.790201
 C 0.426 0.61 0.0932   -0.144931
 C 0.3395 0.5111 0.0674   -0.032621
 C 0.3534 0.4324 0.0165   -0.15517
 C 0.4553 0.4509 0.9873   0.045296
 C 0.5264 0.6282 0.0654   -0.087416
 C 0.4908 0.9334 0.3087   0.742321
 C 0.5118 0.953 0.3808   -0.113448
 C 0.6266 0.972 0.414   -0.05549
 C 0.6499 0.9989 0.4801   -0.118045
 C 0.5591 0.0105 0.5169   0.038232
 C 0.4208 0.9604 0.4142   -0.065691
 C 0.8976 0.2048 0.6402   0.772634
 C 0.9312 0.1134 0.5937   -0.142219
 C 0.9098 0.998 0.6024   -0.04059
 C 0.9366 0.9128 0.5593   -0.14637
 C 0.9879 0.9411 0.5047   0.042455
 C 0.9833 0.1437 0.5418   -0.072557
 C 0.6981 0.4095 0.6482   0.790201
 C 0.61 0.426 0.5932   -0.144931
 C 0.5111 0.3395 0.5674   -0.032621
 C 0.4324 0.3534 0.5165   -0.15517
 C 0.4509 0.4553 0.4873   0.045296
 C 0.6282 0.5264 0.5654   -0.087416
 C 0.9334 0.4908 0.8087   0.742321
 C 0.953 0.5118 0.8808   -0.113448
 C 0.972 0.6266 0.914   -0.05549
 C 0.9989 0.6499 0.9801   -0.118045
 C 0.0105 0.5591 0.0169   0.038231
 C 0.9604 0.4208 0.9142   -0.065692
 C 0.7952 0.1024 0.8598   0.772634
 C 0.8866 0.0688 0.9063   -0.142219
 C 0.002 0.0902 0.8976   -0.04059
 C 0.0872 0.0634 0.9407   -0.14637
 C 0.0589 0.0121 0.9953   0.042455
 C 0.8563 0.0167 0.9582   -0.072557
 C 0.5905 0.3019 0.8518   0.790201
 C 0.574 0.39 0.9068   -0.144931
 C 0.6605 0.4889 0.9326   -0.032621
 C 0.6466 0.5676 0.9835   -0.15517
 C 0.5447 0.5491 0.0127   0.045296
 C 0.4736 0.3718 0.9346   -0.087416
 C 0.5092 0.0666 0.6913   0.742321
 C 0.4882 0.047 0.6192   -0.113448
 C 0.3734 0.028 0.586   -0.05549
 C 0.3501 0.0011 0.5199   -0.118045
 C 0.4409 0.9895 0.4831   0.038231
 C 0.5792 0.0396 0.5858   -0.065692
 O 0.0737 0.6899 0.3692   -0.831819
 O 0.1553 0.8289 0.31544   -0.667237
 O 0.3291 0.6747 0.32234   -0.697699
 O 0.2081 0.5149 0.33983   -0.810942
 O 0.105 0.6114 0.22307   -0.832156
 O 0.0353 0.4233 0.21984   -0.713141
 O 0.3101 0.9263 0.1308   -0.831819
 O 0.1711 0.8447 0.18456   -0.667237
 O 0.3253 0.6709 0.17766   -0.697699
 O 0.4851 0.7919 0.16017   -0.810942
 O 0.3886 0.895 0.27693   -0.832156
 O 0.5767 0.9647 0.28016   -0.713141
 O 0.9263 0.3101 0.6308   -0.831819
 O 0.8447 0.1711 0.68456   -0.667237
 O 0.6709 0.3253 0.67766   -0.697699
 O 0.7919 0.4851 0.66017   -0.810942
 O 0.895 0.3886 0.77693   -0.832156
 O 0.9647 0.5767 0.78016   -0.713141
 O 0.6899 0.0737 0.8692   -0.831819
 O 0.8289 0.1553 0.81544   -0.667237
 O 0.6747 0.3291 0.82234   -0.697699
 O 0.5149 0.2081 0.83983   -0.810942
 O 0.6114 0.105 0.72307   -0.832156
 O 0.4233 0.0353 0.71984   -0.713141
