{'_ref': 'TBD', '_srcid': 'CAKYAQ_clean', 'submitters': [{'name': 'Dalar Nazarian Jeff Camp and David Sholl', 'email': 'dalar@gatech.edu jcamp6@gatech.edu'}], '_method': 'VASP DFT with PBE;DDEC'}
data_CdH11C17N3O4
_symmetry_space_group_name_H-M   'P 1'
_cell_length_a   13.75060054
_cell_length_b   17.86750000
_cell_length_c   17.86749999
_cell_angle_alpha   113.65880164
_cell_angle_beta   104.86399979
_cell_angle_gamma   104.86420102
_symmetry_Int_Tables_number   1
_chemical_formula_structural   CdH11C17N3O4
_chemical_formula_sum   'Cd6 H66 C102 N18 O24'
_cell_volume   3551.54464252
_cell_formula_units_Z   6
loop_
 _symmetry_equiv_pos_site_id
 _symmetry_equiv_pos_as_xyz
  1  'x, y, z'
loop_
 _atom_site_label
 _atom_site_fract_x
 _atom_site_fract_y
 _atom_site_fract_z
 _atom_site_charge
 Cd 0.92042 0.77229 0.36654   0.910323
 Cd 0.14813 0.59425 0.22771   0.911472
 Cd 0.55388 0.63346 0.40575   0.910774
 Cd 0.07958 0.22771 0.63346   0.910323
 Cd 0.85187 0.40575 0.77229   0.911472
 Cd 0.44612 0.36654 0.59425   0.910774
 H 0.7947 0.5318 0.0367   0.134892
 H 0.5721 0.6342 0.0636   0.137867
 H 0.6771 0.7164 0.2154   0.081427
 H 0.5552 0.6113 0.9155   0.129882
 H 0.6393 0.4127 0.9152   0.138764
 H 0.5594 0.3369 0.76   0.089512
 H 0.059 0.8192 0.2614   0.066003
 H 0.1208 0.9211 0.218   0.131225
 H 0.101 0.0537 0.2759   0.088039
 H 0.0135 0.0796 0.3691   0.128689
 H 0.9393 0.9676 0.4022   0.091021
 H 0.2629 0.5049 0.4682   0.134545
 H 0.9379 0.4294 0.3658   0.137528
 H 0.9607 0.499 0.2836   0.082444
 H 0.9439 0.3042 0.3887   0.131193
 H 0.2266 0.5025 0.5873   0.13833
 H 0.2225 0.4231 0.6631   0.089742
 H 0.2398 0.4422 0.1808   0.066814
 H 0.1997 0.2969 0.0789   0.129986
 H 0.0473 0.2222 0.9463   0.087504
 H 0.9339 0.2895 0.9204   0.12785
 H 0.9717 0.4346 0.0324   0.091612
 H 0.758 0.9633 0.4951   0.134074
 H 0.5085 0.9364 0.5706   0.136492
 H 0.4617 0.7846 0.501   0.082361
 H 0.6397 0.0845 0.6958   0.131598
 H 0.7241 0.0848 0.4975   0.139477
 H 0.7994 0.24 0.5769   0.089015
 H 0.7976 0.7386 0.5578   0.066803
 H 0.9028 0.782 0.7031   0.129731
 H 0.8251 0.7241 0.7778   0.087675
 H 0.6444 0.6309 0.7105   0.127785
 H 0.5371 0.5978 0.5654   0.091697
 H 0.2053 0.4682 0.9633   0.134892
 H 0.4279 0.3658 0.9364   0.137867
 H 0.3229 0.2836 0.7846   0.081427
 H 0.4448 0.3887 0.0845   0.129882
 H 0.3607 0.5873 0.0848   0.138764
 H 0.4406 0.6631 0.24   0.089512
 H 0.941 0.1808 0.7386   0.066003
 H 0.8792 0.0789 0.782   0.131225
 H 0.899 0.9463 0.7241   0.08804
 H 0.9865 0.9204 0.6309   0.128689
 H 0.0607 0.0324 0.5978   0.091021
 H 0.7371 0.4951 0.5318   0.134545
 H 0.0621 0.5706 0.6342   0.137529
 H 0.0393 0.501 0.7164   0.082444
 H 0.0561 0.6958 0.6113   0.131193
 H 0.7734 0.4975 0.4127   0.13833
 H 0.7775 0.5769 0.3369   0.089742
 H 0.7602 0.5578 0.8192   0.066814
 H 0.8003 0.7031 0.9211   0.129987
 H 0.9527 0.7778 0.0537   0.087506
 H 0.0661 0.7105 0.0796   0.12785
 H 0.0283 0.5654 0.9676   0.091612
 H 0.242 0.0367 0.5049   0.134074
 H 0.4915 0.0636 0.4294   0.136493
 H 0.5383 0.2154 0.499   0.082361
 H 0.3603 0.9155 0.3042   0.131597
 H 0.2759 0.9152 0.5025   0.139477
 H 0.2006 0.76 0.4231   0.089015
 H 0.2024 0.2614 0.4422   0.066803
 H 0.0972 0.218 0.2969   0.129731
 H 0.1749 0.2759 0.2222   0.087676
 H 0.3556 0.3691 0.2895   0.127785
 H 0.4629 0.4022 0.4346   0.091696
 C 0.8292 0.6225 0.1614   0.11455
 C 0.7701 0.5706 0.0717   -0.153572
 C 0.6714 0.5753 0.0319   0.104291
 C 0.6378 0.6298 0.0869   -0.199709
 C 0.7017 0.6795 0.1785   0.189627
 C 0.9398 0.6235 0.2051   0.579539
 C 0.5115 0.5099 0.794   0.112739
 C 0.5584 0.5565 0.8851   -0.153926
 C 0.6106 0.5227 0.9333   0.05812
 C 0.6082 0.4385 0.8852   -0.179182
 C 0.5591 0.3926 0.7916   0.175837
 C 0.4589 0.5422 0.738   0.595635
 C 0.0471 0.8714 0.2827   0.145076
 C 0.0863 0.9331 0.2573   -0.189191
 C 0.0735 0.0109 0.2908   0.009204
 C 0.0217 0.0259 0.3451   -0.157589
 C 0.9784 0.9583 0.3662   0.18228
 C 0.2067 0.5389 0.3775   0.112478
 C 0.1995 0.5011 0.4294   -0.150223
 C 0.0961 0.4566 0.4247   0.099989
 C 0.008 0.4571 0.3702   -0.196176
 C 0.0222 0.499 0.3205   0.18584
 C 0.3163 0.5816 0.3765   0.579131
 C 0.0016 0.2841 0.4901   0.114584
 C 0.0019 0.3286 0.4435   -0.156944
 C 0.0879 0.4106 0.4773   0.059034
 C 0.1697 0.4467 0.5615   -0.178944
 C 0.1665 0.399 0.6074   0.176146
 C 0.9167 0.1958 0.4578   0.595416
 C 0.1757 0.4113 0.1286   0.140562
 C 0.1532 0.3242 0.0669   -0.186874
 C 0.0626 0.2799 0.9891   0.011236
 C 0.9958 0.3192 0.9741   -0.15872
 C 0.0201 0.4079 0.0417   0.180694
 C 0.6678 0.8386 0.4611   0.112322
 C 0.6984 0.9283 0.4989   -0.151673
 C 0.6395 0.9681 0.5434   0.10263
 C 0.5509 0.9131 0.5429   -0.196033
 C 0.5232 0.8215 0.501   0.186416
 C 0.7347 0.7949 0.4184   0.579615
 C 0.7175 0.206 0.7159   0.115069
 C 0.6733 0.1149 0.6714   -0.157465
 C 0.6773 0.0667 0.5894   0.060411
 C 0.723 0.1148 0.5533   -0.182688
 C 0.7675 0.2084 0.601   0.176874
 C 0.7209 0.262 0.8042   0.5954
 C 0.7644 0.7173 0.5887   0.143293
 C 0.829 0.7427 0.6758   -0.187627
 C 0.7827 0.7092 0.7201   0.011664
 C 0.6766 0.6549 0.6808   -0.158756
 C 0.6122 0.6338 0.5921   0.180214
 C 0.1708 0.3775 0.8386   0.11455
 C 0.2299 0.4294 0.9283   -0.153571
 C 0.3286 0.4247 0.9681   0.104291
 C 0.3622 0.3702 0.9131   -0.199709
 C 0.2983 0.3205 0.8215   0.189627
 C 0.0602 0.3765 0.7949   0.579539
 C 0.4885 0.4901 0.206   0.112739
 C 0.4416 0.4435 0.1149   -0.153926
 C 0.3894 0.4773 0.0667   0.05812
 C 0.3918 0.5615 0.1148   -0.179183
 C 0.4409 0.6074 0.2084   0.175837
 C 0.5411 0.4578 0.262   0.595636
 C 0.9529 0.1286 0.7173   0.145076
 C 0.9137 0.0669 0.7427   -0.189191
 C 0.9265 0.9891 0.7092   0.009204
 C 0.9783 0.9741 0.6549   -0.157589
 C 0.0216 0.0417 0.6338   0.18228
 C 0.7933 0.4611 0.6225   0.112478
 C 0.8005 0.4989 0.5706   -0.150223
 C 0.9039 0.5434 0.5753   0.099989
 C 0.992 0.5429 0.6298   -0.196176
 C 0.9778 0.501 0.6795   0.18584
 C 0.6837 0.4184 0.6235   0.579131
 C 0.9984 0.7159 0.5099   0.114584
 C 0.9981 0.6714 0.5565   -0.156944
 C 0.9121 0.5894 0.5227   0.059034
 C 0.8303 0.5533 0.4385   -0.178945
 C 0.8335 0.601 0.3926   0.176146
 C 0.0833 0.8042 0.5422   0.595416
 C 0.8243 0.5887 0.8714   0.140562
 C 0.8468 0.6758 0.9331   -0.186874
 C 0.9374 0.7201 0.0109   0.011235
 C 0.0042 0.6808 0.0259   -0.15872
 C 0.9799 0.5921 0.9583   0.180694
 C 0.3322 0.1614 0.5389   0.112322
 C 0.3016 0.0717 0.5011   -0.151673
 C 0.3605 0.0319 0.4566   0.10263
 C 0.4491 0.0869 0.4571   -0.196033
 C 0.4768 0.1785 0.499   0.186416
 C 0.2653 0.2051 0.5816   0.579615
 C 0.2825 0.794 0.2841   0.115069
 C 0.3267 0.8851 0.3286   -0.157465
 C 0.3227 0.9333 0.4106   0.060411
 C 0.277 0.8852 0.4467   -0.182688
 C 0.2325 0.7916 0.399   0.176874
 C 0.2791 0.738 0.1958   0.5954
 C 0.2356 0.2827 0.4113   0.143294
 C 0.171 0.2573 0.3242   -0.187627
 C 0.2173 0.2908 0.2799   0.011663
 C 0.3234 0.3451 0.3192   -0.158756
 C 0.3878 0.3662 0.4079   0.180214
 N 0.7951 0.6765 0.2148   -0.334885
 N 0.5116 0.4276 0.7467   -0.332437
 N 0.9934 0.8831 0.3355   -0.32916
 N 0.1186 0.5383 0.3235   -0.33326
 N 0.084 0.3191 0.5724   -0.333309
 N 0.1103 0.4524 0.1169   -0.325157
 N 0.5803 0.7852 0.4617   -0.330922
 N 0.7649 0.2533 0.6809   -0.332799
 N 0.6579 0.6645 0.5476   -0.326833
 N 0.2049 0.3235 0.7852   -0.334885
 N 0.4884 0.5724 0.2533   -0.332437
 N 0.0066 0.1169 0.6645   -0.32916
 N 0.8814 0.4617 0.6765   -0.33326
 N 0.916 0.6809 0.4276   -0.333309
 N 0.8897 0.5476 0.8831   -0.325157
 N 0.4197 0.2148 0.5383   -0.330922
 N 0.2351 0.7467 0.3191   -0.332799
 N 0.3421 0.3355 0.4524   -0.326833
 O 0.9961 0.6795 0.2868   -0.580663
 O 0.9699 0.5687 0.1567   -0.567858
 O 0.4323 0.5015 0.6554   -0.605309
 O 0.4492 0.613 0.7788   -0.611343
 O 0.3166 0.6073 0.3205   -0.580377
 O 0.4012 0.588 0.4313   -0.567456
 O 0.9308 0.1539 0.4985   -0.605382
 O 0.8362 0.1658 0.387   -0.611082
 O 0.7093 0.7132 0.3927   -0.581451
 O 0.8132 0.8433 0.412   -0.568282
 O 0.7769 0.3446 0.8461   -0.606124
 O 0.6704 0.2212 0.8342   -0.610679
 O 0.0039 0.3205 0.7132   -0.580663
 O 0.0301 0.4313 0.8433   -0.567858
 O 0.5677 0.4985 0.3446   -0.605309
 O 0.5508 0.387 0.2212   -0.611343
 O 0.6834 0.3927 0.6795   -0.580377
 O 0.5988 0.412 0.5687   -0.567456
 O 0.0692 0.8461 0.5015   -0.605382
 O 0.1638 0.8342 0.613   -0.611083
 O 0.2907 0.2868 0.6073   -0.581451
 O 0.1868 0.1567 0.588   -0.568282
 O 0.2231 0.6554 0.1539   -0.606124
 O 0.3296 0.7788 0.1658   -0.61068
