{'_ref': 'TBD', '_srcid': 'CAKYAQ_clean', 'submitters': [{'name': 'Dalar Nazarian Jeff Camp and David Sholl', 'email': 'dalar@gatech.edu jcamp6@gatech.edu'}], '_method': 'VASP DFT with PBE;DDEC'}
data_ZnH12C16(NO2)2
_symmetry_space_group_name_H-M   'P 1'
_cell_length_a   9.33410030
_cell_length_b   9.75800053
_cell_length_c   12.86200000
_cell_angle_alpha   111.83000044
_cell_angle_beta   104.58999916
_cell_angle_gamma   91.63999957
_symmetry_Int_Tables_number   1
_chemical_formula_structural   ZnH12C16(NO2)2
_chemical_formula_sum   'Zn2 H24 C32 N4 O8'
_cell_volume   1042.62734832
_cell_formula_units_Z   2
loop_
 _symmetry_equiv_pos_site_id
 _symmetry_equiv_pos_as_xyz
  1  'x, y, z'
loop_
 _atom_site_label
 _atom_site_fract_x
 _atom_site_fract_y
 _atom_site_fract_z
 _atom_site_charge
 Zn 0.34426 0.54385 0.72197   0.413335
 Zn 0.65574 0.45615 0.27803   0.413335
 H 0.9283 0.786 0.3166   0.372906
 H 0.1275 0.9302 0.8619   0.392344
 H 0.2139 0.6717 0.0685   0.102449
 H 0.9265 0.3311 0.806   0.098278
 H 0.3559 0.6681 0.5452   0.058505
 H 0.2308 0.811 0.4547   0.133963
 H 0.9028 0.7853 0.5973   0.125037
 H 0.0355 0.6421 0.6834   0.080557
 H 0.4586 0.8783 0.8324   0.081042
 H 0.6777 0.0396 0.9189   0.141589
 H 0.8978 0.6852 0.851   0.12197
 H 0.6743 0.5363 0.7732   0.042993
 H 0.0717 0.214 0.6834   0.372904
 H 0.8725 0.0698 0.1381   0.392343
 H 0.7861 0.3283 0.9315   0.10245
 H 0.0735 0.6689 0.194   0.098279
 H 0.6441 0.3319 0.4548   0.058504
 H 0.7692 0.189 0.5453   0.133968
 H 0.0972 0.2147 0.4027   0.125038
 H 0.9645 0.3579 0.3166   0.080557
 H 0.5414 0.1217 0.1676   0.081042
 H 0.3223 0.9604 0.0811   0.141591
 H 0.1022 0.3148 0.149   0.12197
 H 0.3257 0.4637 0.2268   0.042992
 C 0.1728 0.5058 0.8422   0.631949
 C 0.0857 0.5016 0.926   -0.125643
 C 0.1284 0.6027 0.0412   -0.048195
 C 0.956 0.3983 0.8835   -0.062859
 C 0.2646 0.6939 0.5573   0.125994
 C 0.1898 0.7799 0.5024   -0.192052
 C 0.0524 0.8195 0.5191   0.138925
 C 0.9959 0.7647 0.5864   -0.195481
 C 0.0765 0.6788 0.6386   0.153937
 C 0.9696 0.9198 0.4653   0.056778
 C 0.5484 0.839 0.837   0.140809
 C 0.6799 0.9373 0.8888   -0.229446
 C 0.8159 0.8804 0.895   0.140508
 C 0.81 0.728 0.8494   -0.191646
 C 0.6747 0.639 0.8016   0.133515
 C 0.9797 0.9769 0.937   -0.042537
 C 0.8272 0.4942 0.1578   0.631948
 C 0.9143 0.4984 0.074   -0.125646
 C 0.8716 0.3973 0.9588   -0.048189
 C 0.044 0.6017 0.1165   -0.062854
 C 0.7354 0.3061 0.4427   0.125994
 C 0.8102 0.2201 0.4976   -0.192052
 C 0.9476 0.1805 0.4809   0.138925
 C 0.0041 0.2353 0.4136   -0.195481
 C 0.9235 0.3212 0.3614   0.153937
 C 0.0304 0.0802 0.5347   0.056781
 C 0.4516 0.161 0.163   0.140809
 C 0.3201 0.0627 0.1112   -0.229447
 C 0.1841 0.1196 0.105   0.140508
 C 0.19 0.272 0.1506   -0.191645
 C 0.3253 0.361 0.1984   0.133514
 C 0.0203 0.0231 0.063   -0.042536
 N 0.2118 0.6468 0.6265   -0.265131
 N 0.5431 0.6909 0.7933   -0.273943
 N 0.7882 0.3532 0.3735   -0.265132
 N 0.4569 0.3091 0.2067   -0.273943
 O 0.1302 0.4178 0.7373   -0.57276
 O 0.287 0.6026 0.8787   -0.525443
 O 0.9575 0.8757 0.3499   -0.476151
 O 0.0824 0.8875 0.8907   -0.486102
 O 0.8698 0.5822 0.2627   -0.572761
 O 0.713 0.3974 0.1213   -0.525443
 O 0.0425 0.1243 0.6501   -0.476151
 O 0.9176 0.1125 0.1093   -0.486102
