{'_ref': 'TBD', '_srcid': 'CAKYAQ_clean', 'submitters': [{'name': 'Dalar Nazarian Jeff Camp and David Sholl', 'email': 'dalar@gatech.edu jcamp6@gatech.edu'}], '_method': 'VASP DFT with PBE;DDEC'}
data_Nd2NiH14C26(N3O8)2
_symmetry_space_group_name_H-M   'P 1'
_cell_length_a   7.29039969
_cell_length_b   9.24139965
_cell_length_c   14.01400000
_cell_angle_alpha   83.88600023
_cell_angle_beta   85.39799902
_cell_angle_gamma   72.64700115
_symmetry_Int_Tables_number   1
_chemical_formula_structural   Nd2NiH14C26(N3O8)2
_chemical_formula_sum   'Nd2 Ni1 H14 C26 N6 O16'
_cell_volume   894.903177412
_cell_formula_units_Z   1
loop_
 _symmetry_equiv_pos_site_id
 _symmetry_equiv_pos_as_xyz
  1  'x, y, z'
loop_
 _atom_site_label
 _atom_site_fract_x
 _atom_site_fract_y
 _atom_site_fract_z
 _atom_site_charge
 Nd 0.49527 0.7131 0.90451   2.278932
 Nd 0.50473 0.2869 0.09549   2.278923
 Ni 0.5 0.5 0.5   0.68249
 H 0.2717 0.3252 0.4865   0.341621
 H 0.1636 0.4726 0.5022   0.289005
 H 0.7828 0.1163 0.7624   0.342076
 H 0.0079 0.5584 0.6432   0.121705
 H 0.3779 0.1427 0.6287   0.127712
 H 0.0807 0.2609 0.8769   0.122467
 H 0.8093 0.1693 0.5985   0.107516
 H 0.7283 0.6748 0.5135   0.341613
 H 0.8364 0.5274 0.4978   0.289007
 H 0.2172 0.8837 0.2376   0.342076
 H 0.9921 0.4416 0.3568   0.121703
 H 0.6221 0.8573 0.3713   0.127701
 H 0.9193 0.7391 0.1231   0.122467
 H 0.1907 0.8307 0.4015   0.107505
 C 0.8683 0.5408 0.8222   0.643511
 C 0.0223 0.4278 0.7688   -0.063241
 C 0.0685 0.463 0.6729   -0.161455
 C 0.2039 0.3576 0.6209   0.185976
 C 0.2901 0.2148 0.6641   -0.167438
 C 0.2463 0.178 0.7603   -0.089709
 C 0.1111 0.2852 0.8127   -0.050639
 C 0.3437 0.0235 0.8078   0.667222
 C 0.5556 0.3196 0.8815   0.682888
 C 0.6068 0.3307 0.7768   -0.02696
 C 0.549 0.4381 0.7009   -0.019861
 C 0.7366 0.2366 0.6417   0.221238
 C 0.4162 0.5963 0.6904   0.700626
 C 0.1317 0.4592 0.1778   0.643511
 C 0.9777 0.5722 0.2312   -0.063241
 C 0.9315 0.537 0.3271   -0.161454
 C 0.7961 0.6424 0.3791   0.185974
 C 0.7099 0.7852 0.3359   -0.167433
 C 0.7537 0.822 0.2397   -0.08971
 C 0.8889 0.7148 0.1873   -0.050638
 C 0.6563 0.9765 0.1922   0.667222
 C 0.4444 0.6804 0.1185   0.682888
 C 0.3932 0.6693 0.2232   -0.02696
 C 0.451 0.5619 0.2991   -0.019861
 C 0.2634 0.7634 0.3583   0.221241
 C 0.5838 0.4037 0.3096   0.700626
 N 0.2643 0.3987 0.5241   -0.58533
 N 0.7254 0.2041 0.7368   -0.214822
 N 0.6316 0.3757 0.6173   -0.359553
 N 0.7357 0.6013 0.4759   -0.585327
 N 0.2746 0.7959 0.2632   -0.214823
 N 0.3684 0.6243 0.3827   -0.359554
 O 0.7682 0.6583 0.7756   -0.683189
 O 0.8338 0.516 0.91   -0.674697
 O 0.4848 0.9369 0.7663   -0.664231
 O 0.2809 0.9833 0.8899   -0.726243
 O 0.4754 0.4387 0.9224   -0.788606
 O 0.5951 0.1905 0.9249   -0.645601
 O 0.3525 0.6687 0.7622   -0.699267
 O 0.3741 0.6459 0.605   -0.552884
 O 0.2318 0.3417 0.2244   -0.683189
 O 0.1662 0.484 0.09   -0.674696
 O 0.5152 0.0631 0.2337   -0.664231
 O 0.7191 0.0167 0.1101   -0.726243
 O 0.5246 0.5613 0.0776   -0.788605
 O 0.4049 0.8095 0.0751   -0.645601
 O 0.6475 0.3313 0.2378   -0.699267
 O 0.6259 0.3541 0.395   -0.552884
