{'_ref': 'TBD', '_srcid': 'CAKYAQ_clean', 'submitters': [{'name': 'Dalar Nazarian Jeff Camp and David Sholl', 'email': 'dalar@gatech.edu jcamp6@gatech.edu'}], '_method': 'VASP DFT with PBE;DDEC'}
data_ZnH9C17O4
_symmetry_space_group_name_H-M   'P 1'
_cell_length_a   6.33400000
_cell_length_b   20.49000000
_cell_length_c   28.02341324
_cell_angle_alpha   99.17288144
_cell_angle_beta   90.00000000
_cell_angle_gamma   90.00000000
_symmetry_Int_Tables_number   1
_chemical_formula_structural   ZnH9C17O4
_chemical_formula_sum   'Zn8 H72 C136 O32'
_cell_volume   3590.47079416
_cell_formula_units_Z   8
loop_
 _symmetry_equiv_pos_site_id
 _symmetry_equiv_pos_as_xyz
  1  'x, y, z'
loop_
 _atom_site_label
 _atom_site_fract_x
 _atom_site_fract_y
 _atom_site_fract_z
 _atom_site_charge
 Zn 0.2488 0.01099 0.02347   1.029391
 Zn 0.7488 0.51099 0.52347   1.029391
 Zn 0.2488 0.48901 0.97653   1.029391
 Zn 0.7488 0.98901 0.47653   1.029391
 Zn 0.7512 0.98901 0.97653   1.02939
 Zn 0.2512 0.48901 0.47653   1.02939
 Zn 0.7512 0.51099 0.02347   1.02939
 Zn 0.2512 0.01099 0.52347   1.02939
 H 0.6465 0.0828 0.8698   0.099509
 H 0.1465 0.5828 0.3698   0.099509
 H 0.6465 0.4172 0.1302   0.099509
 H 0.1465 0.9172 0.6302   0.099509
 H 0.3535 0.9172 0.1302   0.099509
 H 0.8535 0.4172 0.6302   0.099509
 H 0.3535 0.5828 0.8698   0.099509
 H 0.8535 0.0828 0.3698   0.099509
 H 0.6137 0.1495 0.8126   0.110523
 H 0.1137 0.6495 0.3126   0.110523
 H 0.6137 0.3505 0.1874   0.110523
 H 0.1137 0.8505 0.6874   0.110523
 H 0.3863 0.8505 0.1874   0.110523
 H 0.8863 0.3505 0.6874   0.110523
 H 0.3863 0.6495 0.8126   0.110523
 H 0.8863 0.1495 0.3126   0.110523
 H 0.0096 0.1911 0.8605   0.108249
 H 0.5096 0.6911 0.3605   0.108249
 H 0.0096 0.3089 0.1395   0.10825
 H 0.5096 0.8089 0.6395   0.10825
 H 0.9904 0.8089 0.1395   0.108249
 H 0.4904 0.3089 0.6395   0.108249
 H 0.9904 0.6911 0.8605   0.10825
 H 0.4904 0.1911 0.3605   0.10825
 H 0.0688 0.1261 0.9214   0.110933
 H 0.5688 0.6261 0.4214   0.110933
 H 0.0688 0.3739 0.0786   0.110933
 H 0.5688 0.8739 0.5786   0.110933
 H 0.9312 0.8739 0.0786   0.110933
 H 0.4312 0.3739 0.5786   0.110933
 H 0.9312 0.6261 0.9214   0.110933
 H 0.4312 0.1261 0.4214   0.110933
 H 0.5054 0.3585 0.9437   0.11148
 H 0.0054 0.8585 0.4437   0.11148
 H 0.5054 0.1415 0.0563   0.111481
 H 0.0054 0.6415 0.5563   0.111481
 H 0.4946 0.6415 0.0563   0.11148
 H 0.9946 0.1415 0.5563   0.11148
 H 0.4946 0.8585 0.9437   0.111481
 H 0.9946 0.3585 0.4437   0.111481
 H 0.3241 0.301 0.8797   0.092207
 H 0.8241 0.801 0.3797   0.092207
 H 0.3241 0.199 0.1203   0.092207
 H 0.8241 0.699 0.6203   0.092207
 H 0.6759 0.699 0.1203   0.092207
 H 0.1759 0.199 0.6203   0.092207
 H 0.6759 0.801 0.8797   0.092207
 H 0.1759 0.301 0.3797   0.092207
 H 0.0636 0.1544 0.7542   0.112473
 H 0.5636 0.6544 0.2542   0.112473
 H 0.0636 0.3456 0.2458   0.112473
 H 0.5636 0.8456 0.7458   0.112473
 H 0.9364 0.8456 0.2458   0.112473
 H 0.4364 0.3456 0.7458   0.112473
 H 0.9364 0.6544 0.7542   0.112473
 H 0.4364 0.1544 0.2542   0.112473
 H 0.9914 0.3763 0.8491   0.10723
 H 0.4914 0.8763 0.3491   0.10723
 H 0.9914 0.1237 0.1509   0.10723
 H 0.4914 0.6237 0.6509   0.10723
 H 0.0086 0.6237 0.1509   0.10723
 H 0.5086 0.1237 0.6509   0.10723
 H 0.0086 0.8763 0.8491   0.10723
 H 0.5086 0.3763 0.3491   0.10723
 H 0.7921 0.3215 0.7873   0.097976
 H 0.2921 0.8215 0.2873   0.097976
 H 0.7921 0.1785 0.2127   0.097976
 H 0.2921 0.6785 0.7127   0.097976
 H 0.2079 0.6785 0.2127   0.097976
 H 0.7079 0.1785 0.7127   0.097976
 H 0.2079 0.8215 0.7873   0.097976
 H 0.7079 0.3215 0.2873   0.097976
 C 0.519 0.1069 0.8684   -0.018851
 C 0.019 0.6069 0.3684   -0.018851
 C 0.519 0.3931 0.1316   -0.018851
 C 0.019 0.8931 0.6316   -0.018851
 C 0.481 0.8931 0.1316   -0.018851
 C 0.981 0.3931 0.6316   -0.018851
 C 0.481 0.6069 0.8684   -0.018851
 C 0.981 0.1069 0.3684   -0.018851
 C 0.499 0.1453 0.8338   -0.160567
 C 0.999 0.6453 0.3338   -0.160567
 C 0.499 0.3547 0.1662   -0.160567
 C 0.999 0.8547 0.6662   -0.160567
 C 0.501 0.8547 0.1662   -0.160567
 C 0.000999999999998 0.3547 0.6662   -0.160567
 C 0.501 0.6453 0.8338   -0.160567
 C 0.000999999999998 0.1453 0.3338   -0.160567
 C 0.143 0.1705 0.8623   -0.163977
 C 0.643 0.6705 0.3623   -0.163977
 C 0.143 0.3295 0.1377   -0.163977
 C 0.643 0.8295 0.6377   -0.163977
 C 0.857 0.8295 0.1377   -0.163977
 C 0.357 0.3295 0.6377   -0.163977
 C 0.857 0.6705 0.8623   -0.163977
 C 0.357 0.1705 0.3623   -0.163977
 C 0.178 0.131 0.899   -0.013327
 C 0.678 0.631 0.399   -0.013327
 C 0.178 0.369 0.101   -0.013327
 C 0.678 0.869 0.601   -0.013327
 C 0.822 0.869 0.101   -0.013327
 C 0.322 0.369 0.601   -0.013327
 C 0.822 0.631 0.899   -0.013327
 C 0.322 0.131 0.399   -0.013327
 C 0.272 0.2169 0.7911   0.027445
 C 0.772 0.7169 0.2911   0.027445
 C 0.272 0.2831 0.2089   0.027445
 C 0.772 0.7831 0.7089   0.027445
 C 0.728 0.7831 0.2089   0.027445
 C 0.228 0.2831 0.7089   0.027445
 C 0.728 0.7169 0.7911   0.027445
 C 0.228 0.2169 0.2911   0.027445
 C 0.564 0.3506 0.9121   0.004597
 C 0.064 0.8506 0.4121   0.004597
 C 0.564 0.1494 0.0879   0.004597
 C 0.064 0.6494 0.5879   0.004597
 C 0.436 0.6494 0.0879   0.004597
 C 0.936 0.1494 0.5879   0.004597
 C 0.436 0.8506 0.9121   0.004597
 C 0.936 0.3506 0.4121   0.004597
 C 0.401 0.06 0.9405   0.69497
 C 0.901 0.56 0.4405   0.69497
 C 0.401 0.44 0.0595   0.69497
 C 0.901 0.94 0.5595   0.69497
 C 0.599 0.94 0.0595   0.69497
 C 0.099 0.44 0.5595   0.69497
 C 0.599 0.56 0.9405   0.69497
 C 0.099 0.06 0.4405   0.69497
 C 0.363 0.1008 0.9021   -0.140538
 C 0.863 0.6008 0.4021   -0.140538
 C 0.363 0.3992 0.0979   -0.140538
 C 0.863 0.8992 0.5979   -0.140538
 C 0.637 0.8992 0.0979   -0.140538
 C 0.137 0.3992 0.5979   -0.140538
 C 0.637 0.6008 0.9021   -0.140538
 C 0.137 0.1008 0.4021   -0.140538
 C 0.887 0.4169 0.9396   0.697324
 C 0.387 0.9169 0.4396   0.697324
 C 0.887 0.0831 0.0604   0.697324
 C 0.387 0.5831 0.5604   0.697324
 C 0.113 0.5831 0.0604   0.697324
 C 0.613 0.0831 0.5604   0.697324
 C 0.113 0.9169 0.9396   0.697324
 C 0.613 0.4169 0.4396   0.697324
 C 0.527 0.307 0.8292   0.060091
 C 0.027 0.807 0.3292   0.060091
 C 0.527 0.193 0.1708   0.060091
 C 0.027 0.693 0.6708   0.060091
 C 0.473 0.693 0.1708   0.060091
 C 0.973 0.193 0.6708   0.060091
 C 0.473 0.807 0.8292   0.060091
 C 0.973 0.307 0.3292   0.060091
 C 0.46 0.3178 0.8737   -0.121673
 C 0.96 0.8178 0.3737   -0.121673
 C 0.46 0.1822 0.1263   -0.121673
 C 0.96 0.6822 0.6263   -0.121673
 C 0.54 0.6822 0.1263   -0.121673
 C 0.04 0.1822 0.6263   -0.121673
 C 0.54 0.8178 0.8737   -0.121673
 C 0.04 0.3178 0.3737   -0.121673
 C 0.768 0.3725 0.9016   -0.17042
 C 0.268 0.8725 0.4016   -0.17042
 C 0.768 0.1275 0.0984   -0.17042
 C 0.268 0.6275 0.5984   -0.17042
 C 0.232 0.6275 0.0984   -0.17042
 C 0.732 0.1275 0.5984   -0.17042
 C 0.232 0.8725 0.9016   -0.17042
 C 0.732 0.3725 0.4016   -0.17042
 C 0.301 0.1802 0.8289   0.074689
 C 0.801 0.6802 0.3289   0.074689
 C 0.301 0.3198 0.1711   0.074689
 C 0.801 0.8198 0.6711   0.074689
 C 0.699 0.8198 0.1711   0.074689
 C 0.199 0.3198 0.6711   0.074689
 C 0.699 0.6802 0.8289   0.074689
 C 0.199 0.1802 0.3289   0.074689
 C 0.139 0.1941 0.7532   -0.14321
 C 0.639 0.6941 0.2532   -0.14321
 C 0.139 0.3059 0.2468   -0.14321
 C 0.639 0.8059 0.7468   -0.14321
 C 0.861 0.8059 0.2468   -0.14321
 C 0.361 0.3059 0.7468   -0.14321
 C 0.861 0.6941 0.7532   -0.14321
 C 0.361 0.1941 0.2532   -0.14321
 C 0.39 0.2734 0.7866   -0.000914
 C 0.89 0.7734 0.2866   -0.000914
 C 0.39 0.2266 0.2134   -0.000914
 C 0.89 0.7266 0.7134   -0.000914
 C 0.61 0.7266 0.2134   -0.000914
 C 0.11 0.2266 0.7134   -0.000914
 C 0.61 0.7734 0.7866   -0.000914
 C 0.11 0.2734 0.2866   -0.000914
 C 0.853 0.3613 0.855   -0.022887
 C 0.353 0.8613 0.355   -0.022887
 C 0.853 0.1387 0.145   -0.022887
 C 0.353 0.6387 0.645   -0.022887
 C 0.147 0.6387 0.145   -0.022887
 C 0.647 0.1387 0.645   -0.022887
 C 0.147 0.8613 0.855   -0.022887
 C 0.647 0.3613 0.355   -0.022887
 C 0.738 0.3295 0.8193   -0.145443
 C 0.238 0.8295 0.3193   -0.145443
 C 0.738 0.1705 0.1807   -0.145443
 C 0.238 0.6705 0.6807   -0.145443
 C 0.262 0.6705 0.1807   -0.145443
 C 0.762 0.1705 0.6807   -0.145443
 C 0.262 0.8295 0.8193   -0.145443
 C 0.762 0.3295 0.3193   -0.145443
 O 0.2817 0.0706 0.978   -0.604558
 O 0.7817 0.5706 0.478   -0.604558
 O 0.2817 0.4294 0.022   -0.604558
 O 0.7817 0.9294 0.522   -0.604558
 O 0.7183 0.9294 0.022   -0.604558
 O 0.2183 0.4294 0.522   -0.604558
 O 0.7183 0.5706 0.978   -0.604558
 O 0.2183 0.0706 0.478   -0.604558
 O 0.8033 0.4279 0.9817   -0.646413
 O 0.3033 0.9279 0.4817   -0.646413
 O 0.8033 0.0721 0.0183   -0.646413
 O 0.3033 0.5721 0.5183   -0.646413
 O 0.1967 0.5721 0.0183   -0.646413
 O 0.6967 0.0721 0.5183   -0.646413
 O 0.1967 0.9279 0.9817   -0.646413
 O 0.6967 0.4279 0.4817   -0.646413
 O 0.5489 0.017 0.9333   -0.60162
 O 0.0489 0.517 0.4333   -0.60162
 O 0.5489 0.483 0.0667   -0.60162
 O 0.0489 0.983 0.5667   -0.60162
 O 0.4511 0.983 0.0667   -0.60162
 O 0.9511 0.483 0.5667   -0.60162
 O 0.4511 0.517 0.9333   -0.60162
 O 0.9511 0.017 0.4333   -0.60162
 O 0.0568 0.444 0.9297   -0.584691
 O 0.5568 0.944 0.4297   -0.584691
 O 0.0568 0.056 0.0703   -0.584691
 O 0.5568 0.556 0.5703   -0.584691
 O 0.9432 0.556 0.0703   -0.584691
 O 0.4432 0.056 0.5703   -0.584691
 O 0.9432 0.944 0.9297   -0.584691
 O 0.4432 0.444 0.4297   -0.584691
