{'_ref': 'TBD', '_srcid': 'CAKYAQ_clean', 'submitters': [{'name': 'Dalar Nazarian Jeff Camp and David Sholl', 'email': 'dalar@gatech.edu jcamp6@gatech.edu'}], '_method': 'VASP DFT with PBE;DDEC'}
data_NiH14C16(NO)4
_symmetry_space_group_name_H-M   'P 1'
_cell_length_a   13.16980000
_cell_length_b   16.69689956
_cell_length_c   19.19650000
_cell_angle_alpha   90.00000000
_cell_angle_beta   90.00000000
_cell_angle_gamma   108.96699970
_symmetry_Int_Tables_number   1
_chemical_formula_structural   NiH14C16(NO)4
_chemical_formula_sum   'Ni6 H84 C96 N24 O24'
_cell_volume   3992.02435202
_cell_formula_units_Z   6
loop_
 _symmetry_equiv_pos_site_id
 _symmetry_equiv_pos_as_xyz
  1  'x, y, z'
loop_
 _atom_site_label
 _atom_site_fract_x
 _atom_site_fract_y
 _atom_site_fract_z
 _atom_site_charge
 Ni 0.46247 0.52787 0.77383   0.763424
 Ni 0.03753 0.97213 0.27383   0.763424
 Ni 0.53753 0.47213 0.22617   0.763424
 Ni 0.96247 0.02787 0.72617   0.763424
 Ni 0.0 0.5 0.0   0.735006
 Ni 0.5 0.0 0.5   0.735006
 H 0.7941 0.5871 0.8851   0.086587
 H 0.7546 0.7648 0.7537   0.089578
 H 0.032 0.8121 0.8619   0.098357
 H 0.1115 0.3751 0.9466   0.079561
 H 0.1174 0.2956 0.8508   0.162319
 H 0.9431 0.4165 0.7457   0.149283
 H 0.9425 0.4926 0.8453   0.078402
 H 0.4594 0.6385 0.6477   0.081926
 H 0.3465 0.6468 0.5598   0.159166
 H 0.1163 0.4486 0.6471   0.1291
 H 0.2359 0.4469 0.7335   0.066514
 H 0.3216 0.6379 0.7991   0.071278
 H 0.2026 0.6529 0.8818   0.157921
 H 0.3109 0.5075 0.0118   0.160143
 H 0.4249 0.4949 0.9243   0.091197
 H 0.051 0.253 0.731   0.344382
 H 0.998 0.31 0.694   0.334638
 H 0.178 0.581 0.508   0.374452
 H 0.085 0.51 0.544   0.358141
 H 0.157 0.638 0.004   0.319577
 H 0.198 0.585 0.049   0.331517
 H 0.7059 0.9129 0.3851   0.086587
 H 0.7454 0.7352 0.2537   0.089578
 H 0.468 0.6879 0.3619   0.098357
 H 0.3885 0.1249 0.4466   0.079561
 H 0.3826 0.2044 0.3508   0.162319
 H 0.5569 0.0835 0.2457   0.149283
 H 0.5575 0.0074 0.3453   0.078402
 H 0.0406 0.8615 0.1477   0.081926
 H 0.1535 0.8532 0.0598   0.159166
 H 0.3837 0.0514 0.1471   0.1291
 H 0.2641 0.0531 0.2335   0.066514
 H 0.1784 0.8621 0.2991   0.071278
 H 0.2974 0.8471 0.3818   0.157921
 H 0.1891 0.9925 0.5118   0.160143
 H 0.0751 0.0051 0.4243   0.091197
 H 0.449 0.247 0.231   0.344382
 H 0.502 0.19 0.194   0.334638
 H 0.322 0.919 0.008   0.374452
 H 0.415 0.99 0.044   0.358141
 H 0.343 0.862 0.504   0.319576
 H 0.302 0.915 0.549   0.331517
 H 0.2059 0.4129 0.1149   0.086587
 H 0.2454 0.2352 0.2463   0.089578
 H 0.968 0.1879 0.1381   0.098357
 H 0.8885 0.6249 0.0534   0.079561
 H 0.8826 0.7044 0.1492   0.162319
 H 0.0569 0.5835 0.2543   0.149284
 H 0.0575 0.5074 0.1547   0.078403
 H 0.5406 0.3615 0.3523   0.081926
 H 0.6535 0.3532 0.4402   0.159166
 H 0.8837 0.5514 0.3529   0.1291
 H 0.7641 0.5531 0.2665   0.066514
 H 0.6784 0.3621 0.2009   0.071278
 H 0.7974 0.3471 0.1182   0.157922
 H 0.6891 0.4925 0.9882   0.160143
 H 0.5751 0.5051 0.0757   0.091196
 H 0.949 0.747 0.269   0.344382
 H 0.002 0.69 0.306   0.334639
 H 0.822 0.419 0.492   0.374451
 H 0.915 0.49 0.456   0.358138
 H 0.843 0.362 0.996   0.319577
 H 0.802 0.415 0.951   0.331517
 H 0.2941 0.0871 0.6149   0.086587
 H 0.2546 0.2648 0.7463   0.089578
 H 0.532 0.3121 0.6381   0.098357
 H 0.6115 0.8751 0.5534   0.079561
 H 0.6174 0.7956 0.6492   0.162319
 H 0.4431 0.9165 0.7543   0.149284
 H 0.4425 0.9926 0.6547   0.078403
 H 0.9594 0.1385 0.8523   0.081926
 H 0.8465 0.1468 0.9402   0.159166
 H 0.6163 0.9486 0.8529   0.1291
 H 0.7359 0.9469 0.7665   0.066514
 H 0.8216 0.1379 0.7009   0.071278
 H 0.7026 0.1529 0.6182   0.157922
 H 0.8109 0.0075 0.4882   0.160143
 H 0.9249 0.9949 0.5757   0.091196
 H 0.551 0.753 0.769   0.344382
 H 0.498 0.81 0.806   0.334639
 H 0.678 0.081 0.992   0.374451
 H 0.585 0.01 0.956   0.358138
 H 0.657 0.138 0.496   0.319576
 H 0.698 0.085 0.451   0.331517
 C 0.9927 0.6619 0.9278   0.662427
 C 0.9254 0.6941 0.8791   -0.173338
 C 0.8213 0.6415 0.8641   0.004395
 C 0.7571 0.6688 0.8183   -0.165979
 C 0.6447 0.6144 0.805   0.641911
 C 0.7974 0.7471 0.7862   0.000214
 C 0.9007 0.7998 0.8017   -0.147147
 C 0.9369 0.8853 0.7689   0.627925
 C 0.9632 0.7745 0.8494   0.013997
 C 0.0753 0.3828 0.9056   0.188189
 C 0.0792 0.335 0.8485   -0.317898
 C 0.0276 0.3435 0.7868   0.375183
 C 0.977 0.4057 0.7867   -0.358653
 C 0.9773 0.4508 0.8467   0.183039
 C 0.3886 0.5992 0.6473   0.198554
 C 0.3221 0.6048 0.5948   -0.332122
 C 0.2168 0.5476 0.5929   0.389924
 C 0.1867 0.4884 0.6462   -0.345004
 C 0.2587 0.4876 0.6972   0.190663
 C 0.3181 0.6099 0.8425   0.163165
 C 0.2474 0.6198 0.8918   -0.29335
 C 0.2421 0.5814 0.9559   0.338903
 C 0.3109 0.5342 0.9681   -0.306174
 C 0.3786 0.5271 0.9154   0.190711
 C 0.5073 0.8381 0.4278   0.662427
 C 0.5746 0.8059 0.3791   -0.173338
 C 0.6787 0.8585 0.3641   0.004395
 C 0.7429 0.8312 0.3183   -0.165979
 C 0.8553 0.8856 0.305   0.641911
 C 0.7026 0.7529 0.2862   0.000214
 C 0.5993 0.7002 0.3017   -0.147147
 C 0.5631 0.6147 0.2689   0.627925
 C 0.5368 0.7255 0.3494   0.013997
 C 0.4247 0.1172 0.4056   0.188189
 C 0.4208 0.165 0.3485   -0.317898
 C 0.4724 0.1565 0.2868   0.375183
 C 0.523 0.0943 0.2867   -0.358653
 C 0.5227 0.0492 0.3467   0.183039
 C 0.1114 0.9008 0.1473   0.198554
 C 0.1779 0.8952 0.0948   -0.332122
 C 0.2832 0.9524 0.0929   0.389924
 C 0.3133 0.0116 0.1462   -0.345004
 C 0.2413 0.0124 0.1972   0.190663
 C 0.1819 0.8901 0.3425   0.163165
 C 0.2526 0.8802 0.3918   -0.29335
 C 0.2579 0.9186 0.4559   0.338903
 C 0.1891 0.9658 0.4681   -0.306174
 C 0.1214 0.9729 0.4154   0.190711
 C 0.0073 0.3381 0.0722   0.662427
 C 0.0746 0.3059 0.1209   -0.173338
 C 0.1787 0.3585 0.1359   0.004395
 C 0.2429 0.3312 0.1817   -0.165979
 C 0.3553 0.3856 0.195   0.641911
 C 0.2026 0.2529 0.2138   0.000214
 C 0.0993 0.2002 0.1983   -0.147147
 C 0.0631 0.1147 0.2311   0.627925
 C 0.0368 0.2255 0.1506   0.013998
 C 0.9247 0.6172 0.0944   0.188189
 C 0.9208 0.665 0.1515   -0.317897
 C 0.9724 0.6565 0.2132   0.375183
 C 0.023 0.5943 0.2133   -0.358652
 C 0.0227 0.5492 0.1533   0.183039
 C 0.6114 0.4008 0.3527   0.198554
 C 0.6779 0.3952 0.4052   -0.332122
 C 0.7832 0.4524 0.4071   0.389924
 C 0.8133 0.5116 0.3538   -0.345004
 C 0.7413 0.5124 0.3028   0.190663
 C 0.6819 0.3901 0.1575   0.163165
 C 0.7526 0.3802 0.1082   -0.293351
 C 0.7579 0.4186 0.0441   0.338903
 C 0.6891 0.4658 0.0319   -0.306174
 C 0.6214 0.4729 0.0846   0.190711
 C 0.4927 0.1619 0.5722   0.662427
 C 0.4254 0.1941 0.6209   -0.173338
 C 0.3213 0.1415 0.6359   0.004395
 C 0.2571 0.1688 0.6817   -0.165979
 C 0.1447 0.1144 0.695   0.641911
 C 0.2974 0.2471 0.7138   0.000214
 C 0.4007 0.2998 0.6983   -0.147147
 C 0.4369 0.3853 0.7311   0.627925
 C 0.4632 0.2745 0.6506   0.013998
 C 0.5753 0.8828 0.5944   0.188189
 C 0.5792 0.835 0.6515   -0.317897
 C 0.5276 0.8435 0.7132   0.375183
 C 0.477 0.9057 0.7133   -0.358652
 C 0.4773 0.9508 0.6533   0.183039
 C 0.8886 0.0992 0.8527   0.198554
 C 0.8221 0.1048 0.9052   -0.332122
 C 0.7168 0.0476 0.9071   0.389924
 C 0.6867 0.9884 0.8538   -0.345004
 C 0.7587 0.9876 0.8028   0.190663
 C 0.8181 0.1099 0.6575   0.163165
 C 0.7474 0.1198 0.6082   -0.293351
 C 0.7421 0.0814 0.5441   0.338903
 C 0.8109 0.0342 0.5319   -0.306174
 C 0.8786 0.0271 0.5846   0.190711
 N 0.0228 0.4406 0.9074   -0.368423
 N 0.0269 0.2957 0.7299   -0.655456
 N 0.3604 0.5414 0.6988   -0.363566
 N 0.1464 0.5497 0.5423   -0.734436
 N 0.3831 0.5626 0.8525   -0.346548
 N 0.1684 0.5868 0.0066   -0.61006
 N 0.4772 0.0594 0.4074   -0.368423
 N 0.4731 0.2043 0.2299   -0.655456
 N 0.1396 0.9586 0.1988   -0.363566
 N 0.3536 0.9503 0.0423   -0.734436
 N 0.1169 0.9374 0.3525   -0.346548
 N 0.3316 0.9132 0.5066   -0.61006
 N 0.9772 0.5594 0.0926   -0.368423
 N 0.9731 0.7043 0.2701   -0.655456
 N 0.6396 0.4586 0.3012   -0.363566
 N 0.8536 0.4503 0.4577   -0.734435
 N 0.6169 0.4374 0.1475   -0.346548
 N 0.8316 0.4132 0.9934   -0.61006
 N 0.5228 0.9406 0.5926   -0.368423
 N 0.5269 0.7957 0.7701   -0.655456
 N 0.8604 0.0414 0.8012   -0.363566
 N 0.6464 0.0497 0.9577   -0.734435
 N 0.8831 0.0626 0.6475   -0.346548
 N 0.6684 0.0868 0.4934   -0.61006
 O 0.9542 0.58407 0.94291   -0.598667
 O 0.0802 0.7115 0.9508   -0.638019
 O 0.6056 0.54336 0.83467   -0.558009
 O 0.588 0.63995 0.76222   -0.586179
 O 0.8865 0.89939 0.71707   -0.565923
 O 0.014 0.94478 0.79546   -0.559215
 O 0.5458 0.91593 0.44291   -0.598667
 O 0.4198 0.7885 0.4508   -0.638019
 O 0.8944 0.95664 0.33467   -0.558009
 O 0.912 0.86005 0.26222   -0.586179
 O 0.6135 0.60061 0.21707   -0.565923
 O 0.486 0.55522 0.29546   -0.559215
 O 0.0458 0.41593 0.05709   -0.598667
 O 0.9198 0.2885 0.0492   -0.638019
 O 0.3944 0.45664 0.16533   -0.558009
 O 0.412 0.36005 0.23778   -0.586179
 O 0.1135 0.10061 0.28293   -0.565923
 O 0.986 0.05522 0.20454   -0.559215
 O 0.4542 0.08407 0.55709   -0.598667
 O 0.5802 0.2115 0.5492   -0.638019
 O 0.1056 0.04336 0.66533   -0.558009
 O 0.088 0.13995 0.73778   -0.586179
 O 0.3865 0.39939 0.78293   -0.565923
 O 0.514 0.44478 0.70454   -0.559215
