{'_ref': 'TBD', '_srcid': 'CAKYAQ_clean', 'submitters': [{'name': 'Dalar Nazarian Jeff Camp and David Sholl', 'email': 'dalar@gatech.edu jcamp6@gatech.edu'}], '_method': 'VASP DFT with PBE;DDEC'}
data_GdH9C18(NO2)3
_symmetry_space_group_name_H-M   'P 1'
_cell_length_a   9.93799978
_cell_length_b   11.71299954
_cell_length_c   13.49800000
_cell_angle_alpha   66.87999986
_cell_angle_beta   86.94000128
_cell_angle_gamma   76.45000071
_symmetry_Int_Tables_number   1
_chemical_formula_structural   GdH9C18(NO2)3
_chemical_formula_sum   'Gd2 H18 C36 N6 O12'
_cell_volume   1403.49317675
_cell_formula_units_Z   2
loop_
 _symmetry_equiv_pos_site_id
 _symmetry_equiv_pos_as_xyz
  1  'x, y, z'
loop_
 _atom_site_label
 _atom_site_fract_x
 _atom_site_fract_y
 _atom_site_fract_z
 _atom_site_charge
 Gd 0.23641 0.52617 0.00482   2.235858
 Gd 0.76359 0.47383 0.99518   2.235856
 H 0.0552 0.2348 0.2655   0.109048
 H 0.0116 0.1222 0.4415   0.057898
 H 0.4379 0.0089 0.3193   0.118316
 H 0.718 0.7022 0.5242   0.068923
 H 0.6861 0.6004 0.7049   0.117263
 H 0.3035 0.8262 0.6578   0.120377
 H 0.2398 0.5688 0.7264   0.098174
 H 0.3078 0.5979 0.5548   0.0752
 H 0.9088 0.4662 0.6614   0.117896
 H 0.9448 0.7652 0.7345   0.109048
 H 0.9884 0.8778 0.5585   0.057898
 H 0.5621 0.9911 0.6807   0.118317
 H 0.282 0.2978 0.4758   0.068924
 H 0.3139 0.3996 0.2951   0.117263
 H 0.6965 0.1738 0.3422   0.120378
 H 0.7602 0.4312 0.2736   0.098174
 H 0.6922 0.4021 0.4452   0.0752
 H 0.0912 0.5338 0.3386   0.117896
 C 0.2889 0.2087 0.15876   0.69764
 C 0.2525 0.1348 0.27255   -0.043776
 C 0.1236 0.1678 0.3104   -0.162309
 C 0.0985 0.0991 0.4164   0.179636
 C 0.3157 0.9691 0.4474   0.194876
 C 0.3501 0.0335 0.34251   -0.122993
 C 0.4183 0.8596 0.5249   0.195932
 C 0.634 0.7282 0.5517   0.171023
 C 0.6156 0.6653 0.6606   -0.132877
 C 0.4898 0.7014 0.70161   -0.105825
 C 0.3892 0.8001 0.63257   -0.098191
 C 0.4651 0.6327 0.81908   0.851856
 C 0.0132 0.4958 0.82367   0.833869
 C 0.0659 0.5132 0.71344   -0.098709
 C 0.1867 0.5535 0.6803   -0.115792
 C 0.2265 0.5705 0.5768   0.175667
 C 0.039 0.5113 0.5394   0.197834
 C 0.991 0.4926 0.6415   -0.09913
 C 0.7111 0.7913 0.84124   0.69764
 C 0.7475 0.8652 0.72745   -0.043776
 C 0.8764 0.8322 0.6896   -0.162309
 C 0.9015 0.9009 0.5836   0.179637
 C 0.6843 0.0309 0.5526   0.194876
 C 0.6499 0.9665 0.65749   -0.122993
 C 0.5817 0.1404 0.4751   0.195932
 C 0.366 0.2718 0.4483   0.171022
 C 0.3844 0.3347 0.3394   -0.132877
 C 0.5102 0.2986 0.29839   -0.105825
 C 0.6108 0.1999 0.36743   -0.098191
 C 0.5349 0.3673 0.18092   0.851856
 C 0.9868 0.5042 0.17633   0.833869
 C 0.9341 0.4868 0.28656   -0.098709
 C 0.8133 0.4465 0.3197   -0.115791
 C 0.7735 0.4295 0.4232   0.175666
 C 0.961 0.4887 0.4606   0.197833
 C 0.009 0.5074 0.3585   -0.09913
 N 0.1914 0.0013 0.4851   -0.401524
 N 0.5392 0.8232 0.4843   -0.371921
 N 0.1562 0.5503 0.5065   -0.384635
 N 0.8086 0.9987 0.5149   -0.401525
 N 0.4608 0.1768 0.5157   -0.371921
 N 0.8438 0.4497 0.4935   -0.384634
 O 0.3965 0.16411 0.12352   -0.578057
 O 0.20441 0.31425 0.107   -0.778332
 O 0.34383 0.64912 0.84964   -0.763104
 O 0.56839 0.55877 0.87834   -0.826221
 O 0.08885 0.50624 0.88935   -0.817293
 O 0.89562 0.47307 0.84225   -0.716597
 O 0.6035 0.83589 0.87648   -0.578054
 O 0.79559 0.68575 0.893   -0.778332
 O 0.65617 0.35088 0.15036   -0.763104
 O 0.43161 0.44123 0.12166   -0.826221
 O 0.91115 0.49376 0.11065   -0.817293
 O 0.10438 0.52693 0.15775   -0.716597
