{'_ref': 'TBD', '_srcid': 'CAKYAQ_clean', 'submitters': [{'name': 'Dalar Nazarian Jeff Camp and David Sholl', 'email': 'dalar@gatech.edu jcamp6@gatech.edu'}], '_method': 'VASP DFT with PBE;DDEC'}
data_Cu3H8W2(C6N5)4
_symmetry_space_group_name_H-M   'P 1'
_cell_length_a   11.41899955
_cell_length_b   20.29300039
_cell_length_c   20.29300000
_cell_angle_alpha   75.43770021
_cell_angle_beta   73.65900013
_cell_angle_gamma   73.65899924
_symmetry_Int_Tables_number   1
_chemical_formula_structural   Cu3H8W2(C6N5)4
_chemical_formula_sum   'Cu12 H32 W8 C96 N80'
_cell_volume   4253.7168202
_cell_formula_units_Z   4
loop_
 _symmetry_equiv_pos_site_id
 _symmetry_equiv_pos_as_xyz
  1  'x, y, z'
loop_
 _atom_site_label
 _atom_site_fract_x
 _atom_site_fract_y
 _atom_site_fract_z
 _atom_site_charge
 Cu 0.84803 0.61952 0.11656   0.82369
 Cu 0.41589 0.11656 0.61952   0.823701
 Cu 0.65197 0.38344 0.88048   0.82369
 Cu 0.08411 0.88048 0.38344   0.823701
 Cu 0.15197 0.38048 0.88344   0.82369
 Cu 0.58411 0.88344 0.38048   0.823701
 Cu 0.34803 0.61656 0.11952   0.82369
 Cu 0.91589 0.11952 0.61656   0.823701
 Cu 0.1135 0.8865 0.8865   0.923841
 Cu 0.3865 0.6135 0.6135   0.923841
 Cu 0.8865 0.1135 0.1135   0.923841
 Cu 0.6135 0.3865 0.3865   0.923841
 H 0.2688 0.4983 0.2395   0.107564
 H 0.0886 0.4547 0.2883   0.170175
 H 0.916 0.5034 0.2396   0.101494
 H 0.0979 0.6345 0.1027   0.056122
 H 0.9934 0.2395 0.4983   0.107548
 H 0.1684 0.2883 0.4547   0.169924
 H 0.341 0.2396 0.5034   0.101708
 H 0.1649 0.1027 0.6345   0.056261
 H 0.2312 0.2605 0.0017   0.107564
 H 0.4114 0.2117 0.0453   0.170175
 H 0.584 0.2604 0.9966   0.101494
 H 0.4021 0.3973 0.8655   0.056122
 H 0.5066 0.0017 0.2605   0.107547
 H 0.3316 0.0453 0.2117   0.169924
 H 0.159 0.9966 0.2604   0.101708
 H 0.3351 0.8655 0.3973   0.056261
 H 0.7312 0.5017 0.7605   0.107564
 H 0.9114 0.5453 0.7117   0.170175
 H 0.084 0.4966 0.7604   0.101494
 H 0.9021 0.3655 0.8973   0.056122
 H 0.0066 0.7605 0.5017   0.107548
 H 0.8316 0.7117 0.5453   0.169924
 H 0.659 0.7604 0.4966   0.101708
 H 0.8351 0.8973 0.3655   0.056261
 H 0.7688 0.7395 0.9983   0.107564
 H 0.5886 0.7883 0.9547   0.170175
 H 0.416 0.7396 0.0034   0.101494
 H 0.5979 0.6027 0.1345   0.056122
 H 0.4934 0.9983 0.7395   0.107547
 H 0.6684 0.9547 0.7883   0.169924
 H 0.841 0.0034 0.7396   0.101708
 H 0.6649 0.1345 0.6027   0.056261
 W 0.93649 0.84182 0.15818   0.060749
 W 0.06351 0.15818 0.84182   0.060748
 W 0.56351 0.34182 0.65818   0.060748
 W 0.43649 0.65818 0.34182   0.060748
 W 0.75 0.38029 0.11971   0.064421
 W 0.75 0.11971 0.38029   0.061522
 W 0.25 0.61971 0.88029   0.064421
 W 0.25 0.88029 0.61971   0.061522
 C 0.8927 0.75881 0.12819   0.192732
 C 0.11892 0.773 0.13556   0.14048
 C 0.01271 0.86478 0.0472   0.205996
 C 0.79827 0.47638 0.11728   0.175112
 C 0.08282 0.61642 0.96334   0.146548
 C 0.17592 0.72794 0.88862   0.216494
 C 0.59632 0.32934 0.15342   0.085993
 C 0.19667 0.51822 0.22044   0.250537
 C 0.0909 0.49219 0.24921   -0.204253
 C 0.98981 0.52092 0.22046   0.24922
 C 0.09652 0.59651 0.14125   0.3736
 C 0.2203 0.12819 0.75881   0.192806
 C 0.97252 0.13556 0.773   0.138509
 C 0.07531 0.0472 0.86478   0.206438
 C 0.60807 0.11728 0.47638   0.176068
 C 0.33742 0.96334 0.61642   0.146751
 C 0.20752 0.88862 0.72794   0.217416
 C 0.92092 0.15342 0.32934   0.086395
 C 0.06467 0.22044 0.51822   0.250262
 C 0.1677 0.24921 0.49219   -0.204309
 C 0.26881 0.22046 0.52092   0.248506
 C 0.16572 0.14125 0.59651   0.37357
 C 0.6073 0.37181 0.74119   0.192732
 C 0.38108 0.36444 0.727   0.14048
 C 0.48729 0.4528 0.63522   0.205997
 C 0.70173 0.38272 0.02362   0.175113
 C 0.41718 0.53666 0.88358   0.146548
 C 0.32408 0.61138 0.77206   0.216494
 C 0.90368 0.34658 0.17066   0.085993
 C 0.30333 0.27956 0.98178   0.250537
 C 0.4091 0.25079 0.00781   -0.204253
 C 0.51019 0.27954 0.97908   0.24922
 C 0.40348 0.35875 0.90349   0.3736
 C 0.2797 0.74119 0.37181   0.192806
 C 0.52748 0.727 0.36444   0.138509
 C 0.42469 0.63522 0.4528   0.206438
 C 0.89193 0.02362 0.38272   0.176068
 C 0.16258 0.88358 0.53666   0.146751
 C 0.29248 0.77206 0.61138   0.217416
 C 0.57908 0.17066 0.34658   0.086395
 C 0.43533 0.98178 0.27956   0.250262
 C 0.3323 0.00781 0.25079   -0.204309
 C 0.23119 0.97908 0.27954   0.248506
 C 0.33428 0.90349 0.35875   0.37357
 C 0.1073 0.24119 0.87181   0.192732
 C 0.88108 0.227 0.86444   0.140481
 C 0.98729 0.13522 0.9528   0.205997
 C 0.20173 0.52362 0.88272   0.175114
 C 0.91718 0.38358 0.03666   0.14655
 C 0.82408 0.27206 0.11138   0.216495
 C 0.40368 0.67066 0.84658   0.085994
 C 0.80333 0.48178 0.77956   0.250537
 C 0.9091 0.50781 0.75079   -0.204253
 C 0.01019 0.47908 0.77954   0.24922
 C 0.90348 0.40349 0.85875   0.3736
 C 0.7797 0.87181 0.24119   0.192806
 C 0.02748 0.86444 0.227   0.13851
 C 0.92469 0.9528 0.13522   0.206439
 C 0.39193 0.88272 0.52362   0.17607
 C 0.66258 0.03666 0.38358   0.146753
 C 0.79248 0.11138 0.27206   0.217417
 C 0.07908 0.84658 0.67066   0.086396
 C 0.93533 0.77956 0.48178   0.250262
 C 0.8323 0.75079 0.50781   -0.204309
 C 0.73119 0.77954 0.47908   0.248506
 C 0.83428 0.85875 0.40349   0.373571
 C 0.3927 0.62819 0.25881   0.192732
 C 0.61892 0.63556 0.273   0.140481
 C 0.51271 0.5472 0.36478   0.205997
 C 0.29827 0.61728 0.97638   0.175114
 C 0.58282 0.46334 0.11642   0.14655
 C 0.67592 0.38862 0.22794   0.216495
 C 0.09632 0.65342 0.82934   0.085995
 C 0.69667 0.72044 0.01822   0.250537
 C 0.5909 0.74921 0.99219   -0.204253
 C 0.48981 0.72046 0.02092   0.24922
 C 0.59652 0.64125 0.09651   0.3736
 C 0.7203 0.25881 0.62819   0.192806
 C 0.47252 0.273 0.63556   0.13851
 C 0.57531 0.36478 0.5472   0.206439
 C 0.10807 0.97638 0.61728   0.17607
 C 0.83742 0.11642 0.46334   0.146753
 C 0.70752 0.22794 0.38862   0.217417
 C 0.42092 0.82934 0.65342   0.086397
 C 0.56467 0.01822 0.72044   0.250263
 C 0.6677 0.99219 0.74921   -0.204309
 C 0.76881 0.02092 0.72046   0.248506
 C 0.66572 0.09651 0.64125   0.373571
 C 0.7762 0.8879 0.1121   0.101153
 C 0.9365 0.7546 0.2454   0.11799
 C 0.2238 0.1121 0.8879   0.101153
 C 0.0635 0.2454 0.7546   0.11799
 C 0.7238 0.3879 0.6121   0.101153
 C 0.5635 0.2546 0.7454   0.117991
 C 0.2762 0.6121 0.3879   0.101153
 C 0.4365 0.7454 0.2546   0.117991
 N 0.87231 0.71223 0.11555   -0.371562
 N 0.2103 0.73223 0.12237   -0.397207
 N 0.05034 0.8761 0.98822   -0.396806
 N 0.82104 0.52721 0.11851   -0.368446
 N 0.99509 0.6168 0.00742   -0.400399
 N 0.13997 0.78541 0.89265   -0.393938
 N 0.51394 0.30236 0.16876   -0.352422
 N 0.99276 0.57349 0.16559   -0.330993
 N 0.19921 0.57112 0.16606   -0.336657
 N 0.29991 0.11555 0.71223   -0.371961
 N 0.9351 0.12237 0.73223   -0.395342
 N 0.08534 0.98822 0.8761   -0.397115
 N 0.53324 0.11851 0.52721   -0.368861
 N 0.38069 0.00742 0.6168   -0.400373
 N 0.18197 0.89265 0.78541   -0.394462
 N 0.01494 0.16876 0.30236   -0.352471
 N 0.26816 0.16559 0.57349   -0.330428
 N 0.06361 0.16606 0.57112   -0.336203
 N 0.62769 0.38445 0.78777   -0.371563
 N 0.2897 0.37763 0.76777   -0.397207
 N 0.44966 0.51178 0.6239   -0.396806
 N 0.67896 0.38149 0.97279   -0.368446
 N 0.50491 0.49258 0.8832   -0.400399
 N 0.36003 0.60735 0.71459   -0.393938
 N 0.98606 0.33124 0.19764   -0.352423
 N 0.50724 0.33441 0.92651   -0.330993
 N 0.30079 0.33394 0.92888   -0.336657
 N 0.20009 0.78777 0.38445   -0.371961
 N 0.5649 0.76777 0.37763   -0.395342
 N 0.41466 0.6239 0.51178   -0.397115
 N 0.96676 0.97279 0.38149   -0.368861
 N 0.11931 0.8832 0.49258   -0.400373
 N 0.31803 0.71459 0.60735   -0.394462
 N 0.48506 0.19764 0.33124   -0.352472
 N 0.23184 0.92651 0.33441   -0.330428
 N 0.43639 0.92888 0.33394   -0.336203
 N 0.12769 0.28777 0.88445   -0.371562
 N 0.7897 0.26777 0.87763   -0.397207
 N 0.94966 0.1239 0.01178   -0.396806
 N 0.17896 0.47279 0.88149   -0.368446
 N 0.00491 0.3832 0.99258   -0.400399
 N 0.86003 0.21459 0.10735   -0.393938
 N 0.48606 0.69764 0.83124   -0.352422
 N 0.00724 0.42651 0.83441   -0.330993
 N 0.80079 0.42888 0.83394   -0.336657
 N 0.70009 0.88445 0.28777   -0.371961
 N 0.0649 0.87763 0.26777   -0.395342
 N 0.91466 0.01178 0.1239   -0.397115
 N 0.46676 0.88149 0.47279   -0.368861
 N 0.61931 0.99258 0.3832   -0.400373
 N 0.81803 0.10735 0.21459   -0.394462
 N 0.98506 0.83124 0.69764   -0.352471
 N 0.73184 0.83441 0.42651   -0.330428
 N 0.93639 0.83394 0.42888   -0.336203
 N 0.37231 0.61555 0.21223   -0.371563
 N 0.7103 0.62237 0.23223   -0.397207
 N 0.55034 0.48822 0.3761   -0.396806
 N 0.32104 0.61851 0.02721   -0.368446
 N 0.49509 0.50742 0.1168   -0.400399
 N 0.63997 0.39265 0.28541   -0.393938
 N 0.01394 0.66876 0.80236   -0.352423
 N 0.49276 0.66559 0.07349   -0.330993
 N 0.69921 0.66606 0.07112   -0.336657
 N 0.79991 0.21223 0.61555   -0.371961
 N 0.4351 0.23223 0.62237   -0.395342
 N 0.58534 0.3761 0.48822   -0.397115
 N 0.03324 0.02721 0.61851   -0.368861
 N 0.88069 0.1168 0.50742   -0.400373
 N 0.68197 0.28541 0.39265   -0.394462
 N 0.51494 0.80236 0.66876   -0.352472
 N 0.76816 0.07349 0.66559   -0.330428
 N 0.56361 0.07112 0.66606   -0.336203
 N 0.6925 0.9123 0.0877   -0.378654
 N 0.9342 0.7092 0.2908   -0.375468
 N 0.3075 0.0877 0.9123   -0.378656
 N 0.0658 0.2908 0.7092   -0.375468
 N 0.8075 0.4123 0.5877   -0.378653
 N 0.5658 0.2092 0.7908   -0.375467
 N 0.1925 0.5877 0.4123   -0.378655
 N 0.4342 0.7908 0.2092   -0.375467
