{'_ref': 'TBD', '_srcid': 'CAKYAQ_clean', 'submitters': [{'name': 'Dalar Nazarian Jeff Camp and David Sholl', 'email': 'dalar@gatech.edu jcamp6@gatech.edu'}], '_method': 'VASP DFT with PBE;DDEC'}
data_ZnH6C6N5O2
_symmetry_space_group_name_H-M   'P 1'
_cell_length_a   13.28280000
_cell_length_b   13.28280000
_cell_length_c   26.64910000
_cell_angle_alpha   90.00000000
_cell_angle_beta   90.00000000
_cell_angle_gamma   90.00000000
_symmetry_Int_Tables_number   1
_chemical_formula_structural   ZnH6C6N5O2
_chemical_formula_sum   'Zn16 H96 C96 N80 O32'
_cell_volume   4701.77468664
_cell_formula_units_Z   16
loop_
 _symmetry_equiv_pos_site_id
 _symmetry_equiv_pos_as_xyz
  1  'x, y, z'
loop_
 _atom_site_label
 _atom_site_fract_x
 _atom_site_fract_y
 _atom_site_fract_z
 _atom_site_charge
 Zn 0.32896 0.77722 0.304855   0.870889
 Zn 0.67104 0.22278 0.304855   0.870889
 Zn 0.22278 0.32896 0.304855   0.870889
 Zn 0.77722 0.67104 0.304855   0.870889
 Zn 0.82896 0.27722 0.804855   0.870889
 Zn 0.17104 0.72278 0.804855   0.870889
 Zn 0.72278 0.82896 0.804855   0.870889
 Zn 0.27722 0.17104 0.804855   0.870889
 Zn 0.67104 0.22278 0.695145   0.870889
 Zn 0.32896 0.77722 0.695145   0.870889
 Zn 0.77722 0.67104 0.695145   0.870889
 Zn 0.22278 0.32896 0.695145   0.870889
 Zn 0.17104 0.72278 0.195145   0.870889
 Zn 0.82896 0.27722 0.195145   0.870889
 Zn 0.27722 0.17104 0.195145   0.870889
 Zn 0.72278 0.82896 0.195145   0.870889
 H 0.2259 0.9898 0.4248   0.098273
 H 0.7741 0.0102 0.4248   0.098273
 H 0.0102 0.2259 0.4248   0.098275
 H 0.9898 0.7741 0.4248   0.098275
 H 0.7259 0.4898 0.9248   0.098273
 H 0.2741 0.5102 0.9248   0.098273
 H 0.5102 0.7259 0.9248   0.098275
 H 0.4898 0.2741 0.9248   0.098275
 H 0.7741 0.0102 0.5752   0.098273
 H 0.2259 0.9898 0.5752   0.098273
 H 0.9898 0.7741 0.5752   0.098275
 H 0.0102 0.2259 0.5752   0.098275
 H 0.2741 0.5102 0.0752   0.098273
 H 0.7259 0.4898 0.0752   0.098273
 H 0.4898 0.2741 0.0752   0.098275
 H 0.5102 0.7259 0.0752   0.098275
 H 0.1643 0.0563 0.5   0.090721
 H 0.8357 0.9437 0.5   0.090721
 H 0.9437 0.1643 0.5   0.090721
 H 0.0563 0.8357 0.5   0.090721
 H 0.6643 0.5563 0.0   0.090721
 H 0.3357 0.4437 0.0   0.090721
 H 0.4437 0.6643 0.0   0.090721
 H 0.5563 0.3357 0.0   0.090721
 H 0.3386 0.7556 0.5   0.095101
 H 0.6614 0.2444 0.5   0.095101
 H 0.2444 0.3386 0.5   0.095101
 H 0.7556 0.6614 0.5   0.095101
 H 0.8386 0.2556 0.0   0.095101
 H 0.1614 0.7444 0.0   0.095101
 H 0.7444 0.8386 0.0   0.095101
 H 0.2556 0.1614 0.0   0.095101
 H 0.5064 0.83 0.175   0.361417
 H 0.4936 0.17 0.175   0.361418
 H 0.17 0.5064 0.175   0.361417
 H 0.83 0.4936 0.175   0.361418
 H 0.0064 0.33 0.675   0.361417
 H 0.9936 0.67 0.675   0.361418
 H 0.67 0.0064 0.675   0.361417
 H 0.33 0.9936 0.675   0.361418
 H 0.4936 0.17 0.825   0.361417
 H 0.5064 0.83 0.825   0.361418
 H 0.83 0.4936 0.825   0.361417
 H 0.17 0.5064 0.825   0.361418
 H 0.9936 0.67 0.325   0.361417
 H 0.0064 0.33 0.325   0.361418
 H 0.33 0.9936 0.325   0.361417
 H 0.67 0.0064 0.325   0.361418
 H 0.41 0.8268 0.2035   0.336419
 H 0.59 0.1732 0.2035   0.336419
 H 0.1732 0.41 0.2035   0.336419
 H 0.8268 0.59 0.2035   0.336419
 H 0.91 0.3268 0.7035   0.336419
 H 0.09 0.6732 0.7035   0.336419
 H 0.6732 0.91 0.7035   0.336419
 H 0.3268 0.09 0.7035   0.336419
 H 0.59 0.1732 0.7965   0.336419
 H 0.41 0.8268 0.7965   0.336419
 H 0.8268 0.59 0.7965   0.336419
 H 0.1732 0.41 0.7965   0.336419
 H 0.09 0.6732 0.2965   0.336419
 H 0.91 0.3268 0.2965   0.336419
 H 0.3268 0.09 0.2965   0.336419
 H 0.6732 0.91 0.2965   0.336419
 H 0.5944 0.6881 0.3828   0.353196
 H 0.4056 0.3119 0.3828   0.353196
 H 0.3119 0.5944 0.3828   0.353196
 H 0.6881 0.4056 0.3828   0.353197
 H 0.0944 0.1881 0.8828   0.353196
 H 0.9056 0.8119 0.8828   0.353196
 H 0.8119 0.0944 0.8828   0.353196
 H 0.1881 0.9056 0.8828   0.353197
 H 0.4056 0.3119 0.6172   0.353196
 H 0.5944 0.6881 0.6172   0.353196
 H 0.6881 0.4056 0.6172   0.353196
 H 0.3119 0.5944 0.6172   0.353197
 H 0.9056 0.8119 0.1172   0.353196
 H 0.0944 0.1881 0.1172   0.353196
 H 0.1881 0.9056 0.1172   0.353196
 H 0.8119 0.0944 0.1172   0.353197
 H 0.484 0.7054 0.3779   0.341076
 H 0.516 0.2946 0.3779   0.341076
 H 0.2946 0.484 0.3779   0.341076
 H 0.7054 0.516 0.3779   0.341076
 H 0.984 0.2054 0.8779   0.341076
 H 0.016 0.7946 0.8779   0.341076
 H 0.7946 0.984 0.8779   0.341076
 H 0.2054 0.016 0.8779   0.341076
 H 0.516 0.2946 0.6221   0.341076
 H 0.484 0.7054 0.6221   0.341076
 H 0.7054 0.516 0.6221   0.341076
 H 0.2946 0.484 0.6221   0.341076
 H 0.016 0.7946 0.1221   0.341076
 H 0.984 0.2054 0.1221   0.341076
 H 0.2054 0.016 0.1221   0.341076
 H 0.7946 0.984 0.1221   0.341076
 C 0.3122 0.8107 0.40695   0.674143
 C 0.6878 0.1893 0.40695   0.674143
 C 0.1893 0.3122 0.40695   0.674143
 C 0.8107 0.6878 0.40695   0.674143
 C 0.8122 0.3107 0.90695   0.674143
 C 0.1878 0.6893 0.90695   0.674143
 C 0.6893 0.8122 0.90695   0.674143
 C 0.3107 0.1878 0.90695   0.674143
 C 0.6878 0.1893 0.59305   0.674143
 C 0.3122 0.8107 0.59305   0.674143
 C 0.8107 0.6878 0.59305   0.674143
 C 0.1893 0.3122 0.59305   0.674143
 C 0.1878 0.6893 0.09305   0.674143
 C 0.8122 0.3107 0.09305   0.674143
 C 0.3107 0.1878 0.09305   0.674143
 C 0.6893 0.8122 0.09305   0.674143
 C 0.2814 0.8625 0.45472   -0.17304
 C 0.7186 0.1375 0.45472   -0.17304
 C 0.1375 0.2814 0.45472   -0.17304
 C 0.8625 0.7186 0.45472   -0.17304
 C 0.7814 0.3625 0.95472   -0.17304
 C 0.2186 0.6375 0.95472   -0.17304
 C 0.6375 0.7814 0.95472   -0.17304
 C 0.3625 0.2186 0.95472   -0.17304
 C 0.7186 0.1375 0.54528   -0.17304
 C 0.2814 0.8625 0.54528   -0.17304
 C 0.8625 0.7186 0.54528   -0.17304
 C 0.1375 0.2814 0.54528   -0.17304
 C 0.2186 0.6375 0.04528   -0.17304
 C 0.7814 0.3625 0.04528   -0.17304
 C 0.3625 0.2186 0.04528   -0.17304
 C 0.6375 0.7814 0.04528   -0.17304
 C 0.236 0.9558 0.4548   -0.015747
 C 0.764 0.0442 0.4548   -0.015747
 C 0.0442 0.236 0.4548   -0.015748
 C 0.9558 0.764 0.4548   -0.015748
 C 0.736 0.4558 0.9548   -0.015747
 C 0.264 0.5442 0.9548   -0.015747
 C 0.5442 0.736 0.9548   -0.015748
 C 0.4558 0.264 0.9548   -0.015748
 C 0.764 0.0442 0.5452   -0.015748
 C 0.236 0.9558 0.5452   -0.015748
 C 0.9558 0.764 0.5452   -0.015748
 C 0.0442 0.236 0.5452   -0.015748
 C 0.264 0.5442 0.0452   -0.015748
 C 0.736 0.4558 0.0452   -0.015748
 C 0.4558 0.264 0.0452   -0.015748
 C 0.5442 0.736 0.0452   -0.015748
 C 0.2049 0.9993 0.5   -0.117881
 C 0.7951 0.000700000000002 0.5   -0.117881
 C 0.000700000000002 0.2049 0.5   -0.117881
 C 0.9993 0.7951 0.5   -0.117881
 C 0.7049 0.4993 0.0   -0.117881
 C 0.2951 0.5007 0.0   -0.117881
 C 0.5007 0.7049 0.0   -0.117881
 C 0.4993 0.2951 0.0   -0.117881
 C 0.3056 0.8173 0.5   0.01893
 C 0.6944 0.1827 0.5   0.01893
 C 0.1827 0.3056 0.5   0.01893
 C 0.8173 0.6944 0.5   0.01893
 C 0.8056 0.3173 0.0   0.01893
 C 0.1944 0.6827 0.0   0.01893
 C 0.6827 0.8056 0.0   0.01893
 C 0.3173 0.1944 0.0   0.01893
 C 0.5237 0.7867 0.24312   0.665969
 C 0.4763 0.2133 0.24312   0.665969
 C 0.2133 0.5237 0.24312   0.665971
 C 0.7867 0.4763 0.24312   0.665971
 C 0.0237 0.2867 0.74312   0.665969
 C 0.9763 0.7133 0.74312   0.665969
 C 0.7133 0.0237 0.74312   0.665971
 C 0.2867 0.9763 0.74312   0.665971
 C 0.4763 0.2133 0.75688   0.665968
 C 0.5237 0.7867 0.75688   0.665969
 C 0.7867 0.4763 0.75688   0.665971
 C 0.2133 0.5237 0.75688   0.665971
 C 0.9763 0.7133 0.25688   0.665968
 C 0.0237 0.2867 0.25688   0.665969
 C 0.2867 0.9763 0.25688   0.665971
 C 0.7133 0.0237 0.25688   0.665971
 C 0.5562 0.7336 0.31723   0.670327
 C 0.4438 0.2664 0.31723   0.670327
 C 0.2664 0.5562 0.31723   0.670328
 C 0.7336 0.4438 0.31723   0.670328
 C 0.0562 0.2336 0.81723   0.670327
 C 0.9438 0.7664 0.81723   0.670327
 C 0.7664 0.0562 0.81723   0.670328
 C 0.2336 0.9438 0.81723   0.670328
 C 0.4438 0.2664 0.68277   0.670327
 C 0.5562 0.7336 0.68277   0.670327
 C 0.7336 0.4438 0.68277   0.670328
 C 0.2664 0.5562 0.68277   0.670328
 C 0.9438 0.7664 0.18277   0.670327
 C 0.0562 0.2336 0.18277   0.670327
 C 0.2336 0.9438 0.18277   0.670328
 C 0.7664 0.0562 0.18277   0.670328
 N 0.6217 0.7716 0.24477   -0.434488
 N 0.3783 0.2284 0.24477   -0.434488
 N 0.2284 0.6217 0.24477   -0.434489
 N 0.7716 0.3783 0.24477   -0.434489
 N 0.1217 0.2716 0.74477   -0.434488
 N 0.8783 0.7284 0.74477   -0.434488
 N 0.7284 0.1217 0.74477   -0.434489
 N 0.2716 0.8783 0.74477   -0.434489
 N 0.3783 0.2284 0.75523   -0.434488
 N 0.6217 0.7716 0.75523   -0.434488
 N 0.7716 0.3783 0.75523   -0.434489
 N 0.2284 0.6217 0.75523   -0.434489
 N 0.8783 0.7284 0.25523   -0.434488
 N 0.1217 0.2716 0.25523   -0.434488
 N 0.2716 0.8783 0.25523   -0.434489
 N 0.7284 0.1217 0.25523   -0.434489
 N 0.643 0.7369 0.29369   -0.447278
 N 0.357 0.2631 0.29369   -0.447278
 N 0.2631 0.643 0.29369   -0.447278
 N 0.7369 0.357 0.29369   -0.447278
 N 0.143 0.2369 0.79369   -0.447278
 N 0.857 0.7631 0.79369   -0.447278
 N 0.7631 0.143 0.79369   -0.447278
 N 0.2369 0.857 0.79369   -0.447278
 N 0.357 0.2631 0.70631   -0.447278
 N 0.643 0.7369 0.70631   -0.447278
 N 0.7369 0.357 0.70631   -0.447278
 N 0.2631 0.643 0.70631   -0.447278
 N 0.857 0.7631 0.20631   -0.447278
 N 0.143 0.2369 0.20631   -0.447278
 N 0.2369 0.857 0.20631   -0.447278
 N 0.7631 0.143 0.20631   -0.447278
 N 0.4781 0.7662 0.28804   -0.667309
 N 0.5219 0.2338 0.28804   -0.667309
 N 0.2338 0.4781 0.28804   -0.667309
 N 0.7662 0.5219 0.28804   -0.667309
 N 0.9781 0.2662 0.78804   -0.667309
 N 0.0219 0.7338 0.78804   -0.667309
 N 0.7338 0.9781 0.78804   -0.667309
 N 0.2662 0.0219 0.78804   -0.667309
 N 0.5219 0.2338 0.71196   -0.667309
 N 0.4781 0.7662 0.71196   -0.667309
 N 0.7662 0.5219 0.71196   -0.667309
 N 0.2338 0.4781 0.71196   -0.667309
 N 0.0219 0.7338 0.21196   -0.667309
 N 0.9781 0.2662 0.21196   -0.667309
 N 0.2662 0.0219 0.21196   -0.667309
 N 0.7338 0.9781 0.21196   -0.667309
 N 0.4742 0.8183 0.20238   -0.737573
 N 0.5258 0.1817 0.20238   -0.737574
 N 0.1817 0.4742 0.20238   -0.737574
 N 0.8183 0.5258 0.20238   -0.737574
 N 0.9742 0.3183 0.70238   -0.737573
 N 0.0258 0.6817 0.70238   -0.737574
 N 0.6817 0.9742 0.70238   -0.737574
 N 0.3183 0.0258 0.70238   -0.737574
 N 0.5258 0.1817 0.79762   -0.737573
 N 0.4742 0.8183 0.79762   -0.737574
 N 0.8183 0.5258 0.79762   -0.737574
 N 0.1817 0.4742 0.79762   -0.737574
 N 0.0258 0.6817 0.29762   -0.737573
 N 0.9742 0.3183 0.29762   -0.737574
 N 0.3183 0.0258 0.29762   -0.737574
 N 0.6817 0.9742 0.29762   -0.737574
 N 0.5433 0.7057 0.365   -0.732742
 N 0.4567 0.2943 0.365   -0.732742
 N 0.2943 0.5433 0.365   -0.732742
 N 0.7057 0.4567 0.365   -0.732742
 N 0.0433 0.2057 0.865   -0.732742
 N 0.9567 0.7943 0.865   -0.732742
 N 0.7943 0.0433 0.865   -0.732742
 N 0.2057 0.9567 0.865   -0.732742
 N 0.4567 0.2943 0.635   -0.732742
 N 0.5433 0.7057 0.635   -0.732742
 N 0.7057 0.4567 0.635   -0.732742
 N 0.2943 0.5433 0.635   -0.732742
 N 0.9567 0.7943 0.135   -0.732742
 N 0.0433 0.2057 0.135   -0.732742
 N 0.2057 0.9567 0.135   -0.732742
 N 0.7943 0.0433 0.135   -0.732742
 O 0.296 0.8563 0.36546   -0.623006
 O 0.704 0.1437 0.36546   -0.623006
 O 0.1437 0.296 0.36546   -0.623006
 O 0.8563 0.704 0.36546   -0.623006
 O 0.796 0.3563 0.86546   -0.623006
 O 0.204 0.6437 0.86546   -0.623006
 O 0.6437 0.796 0.86546   -0.623006
 O 0.3563 0.204 0.86546   -0.623006
 O 0.704 0.1437 0.63454   -0.623006
 O 0.296 0.8563 0.63454   -0.623006
 O 0.8563 0.704 0.63454   -0.623006
 O 0.1437 0.296 0.63454   -0.623006
 O 0.204 0.6437 0.13454   -0.623006
 O 0.796 0.3563 0.13454   -0.623006
 O 0.3563 0.204 0.13454   -0.623006
 O 0.6437 0.796 0.13454   -0.623006
 O 0.3498 0.7262 0.40918   -0.583963
 O 0.6502 0.2738 0.40918   -0.583963
 O 0.2738 0.3498 0.40918   -0.583963
 O 0.7262 0.6502 0.40918   -0.583963
 O 0.8498 0.2262 0.90918   -0.583963
 O 0.1502 0.7738 0.90918   -0.583963
 O 0.7738 0.8498 0.90918   -0.583963
 O 0.2262 0.1502 0.90918   -0.583963
 O 0.6502 0.2738 0.59082   -0.583963
 O 0.3498 0.7262 0.59082   -0.583963
 O 0.7262 0.6502 0.59082   -0.583963
 O 0.2738 0.3498 0.59082   -0.583963
 O 0.1502 0.7738 0.09082   -0.583963
 O 0.8498 0.2262 0.09082   -0.583963
 O 0.2262 0.1502 0.09082   -0.583963
 O 0.7738 0.8498 0.09082   -0.583963
