{'_ref': 'TBD', '_srcid': 'CAKYAQ_clean', 'submitters': [{'name': 'Dalar Nazarian Jeff Camp and David Sholl', 'email': 'dalar@gatech.edu jcamp6@gatech.edu'}], '_method': 'VASP DFT with PBE;DDEC'}
data_ZnH5C6(N2O)2
_symmetry_space_group_name_H-M   'P 1'
_cell_length_a   12.52229987
_cell_length_b   12.52230032
_cell_length_c   15.73830000
_cell_angle_alpha   113.44199905
_cell_angle_beta   113.44199994
_cell_angle_gamma   90.00010132
_symmetry_Int_Tables_number   1
_chemical_formula_structural   ZnH5C6(N2O)2
_chemical_formula_sum   'Zn8 H40 C48 N32 O16'
_cell_volume   2040.27175974
_cell_formula_units_Z   8
loop_
 _symmetry_equiv_pos_site_id
 _symmetry_equiv_pos_as_xyz
  1  'x, y, z'
loop_
 _atom_site_label
 _atom_site_fract_x
 _atom_site_fract_y
 _atom_site_fract_z
 _atom_site_charge
 Zn 0.87509 0.3956 0.37492   0.814733
 Zn 0.49983 0.97932 0.37492   0.814376
 Zn 0.3956 0.49983 0.37492   0.814716
 Zn 0.97932 0.87509 0.37492   0.814444
 Zn 0.12491 0.6044 0.62508   0.814733
 Zn 0.50017 0.02068 0.62508   0.814376
 Zn 0.6044 0.50017 0.62508   0.814716
 Zn 0.02068 0.12491 0.62508   0.814444
 H 0.749 0.9999 0.1546   0.087215
 H 0.9149 0.1933 0.4438   0.088532
 H 0.1646 0.3865 0.788   0.351347
 H 0.1818 0.5073 0.7886   0.353862
 H 0.4056 0.1547 0.1546   0.087852
 H 0.5289 0.2505 0.4438   0.088185
 H 0.6234 0.4015 0.788   0.351116
 H 0.6068 0.2813 0.7886   0.353674
 H 0.9999 0.4056 0.1546   0.087681
 H 0.1933 0.5289 0.4438   0.08811
 H 0.3865 0.6234 0.788   0.35151
 H 0.5073 0.6068 0.7886   0.353946
 H 0.1547 0.749 0.1546   0.088189
 H 0.2505 0.9149 0.4438   0.088276
 H 0.4015 0.1646 0.788   0.350694
 H 0.2813 0.1818 0.7886   0.353445
 H 0.251 0.000100000000003 0.8454   0.087215
 H 0.0851 0.8067 0.5562   0.088532
 H 0.8354 0.6135 0.212   0.351347
 H 0.8182 0.4927 0.2114   0.353862
 H 0.5944 0.8453 0.8454   0.087852
 H 0.4711 0.7495 0.5562   0.088185
 H 0.3766 0.5985 0.212   0.351116
 H 0.3932 0.7187 0.2114   0.353674
 H 0.000100000000003 0.5944 0.8454   0.087682
 H 0.8067 0.4711 0.5562   0.088109
 H 0.6135 0.3766 0.212   0.35151
 H 0.4927 0.3932 0.2114   0.353946
 H 0.8453 0.251 0.8454   0.088189
 H 0.7495 0.0851 0.5562   0.088276
 H 0.5985 0.8354 0.212   0.350694
 H 0.7187 0.8182 0.2114   0.353445
 H 0.6448 0.8314 0.0   0.115868
 H 0.6805 0.2019 0.0   0.084073
 H 0.3552 0.1686 0.0   0.115868
 H 0.3195 0.7981 0.0   0.084074
 H 0.8314 0.3552 0.0   0.115872
 H 0.2019 0.3195 0.0   0.084506
 H 0.1686 0.6448 0.0   0.115872
 H 0.7981 0.6805 0.0   0.084506
 C 0.72245 0.11635 0.0929   -0.137817
 C 0.715 0.0068 0.0916   -0.014206
 C 0.0763 0.3849 0.6542   0.657641
 C 0.96215 0.26435 0.5021   0.26524
 C 0.7789 0.2426 0.1872   0.631386
 C 0.37045 0.97655 0.0929   -0.138578
 C 0.3766 0.0848 0.0916   -0.01474
 C 0.5779 0.2693 0.6542   0.656502
 C 0.53995 0.23775 0.5021   0.265123
 C 0.4083 0.9446 0.1872   0.631666
 C 0.11635 0.37045 0.0929   -0.138714
 C 0.0068 0.3766 0.0916   -0.014541
 C 0.3849 0.5779 0.6542   0.656895
 C 0.26435 0.53995 0.5021   0.265666
 C 0.2426 0.4083 0.1872   0.632859
 C 0.97655 0.72245 0.0929   -0.13765
 C 0.0848 0.715 0.0916   -0.015606
 C 0.2693 0.0763 0.6542   0.657293
 C 0.23775 0.96215 0.5021   0.26496
 C 0.9446 0.7789 0.1872   0.632447
 C 0.27755 0.88365 0.9071   -0.137818
 C 0.285 0.9932 0.9084   -0.014207
 C 0.9237 0.6151 0.3458   0.657641
 C 0.03785 0.73565 0.4979   0.265242
 C 0.2211 0.7574 0.8128   0.631387
 C 0.62955 0.02345 0.9071   -0.138579
 C 0.6234 0.9152 0.9084   -0.014741
 C 0.4221 0.7307 0.3458   0.656503
 C 0.46005 0.76225 0.4979   0.265125
 C 0.5917 0.0554 0.8128   0.631667
 C 0.88365 0.62955 0.9071   -0.138715
 C 0.9932 0.6234 0.9084   -0.014543
 C 0.6151 0.4221 0.3458   0.656895
 C 0.73565 0.46005 0.4979   0.265667
 C 0.7574 0.5917 0.8128   0.632859
 C 0.02345 0.27755 0.9071   -0.137651
 C 0.9152 0.285 0.9084   -0.015607
 C 0.7307 0.9237 0.3458   0.657293
 C 0.76225 0.03785 0.4979   0.264961
 C 0.0554 0.2211 0.8128   0.632447
 C 0.6589 0.906 0.0   -0.112987
 C 0.6779 0.126 0.0   -0.036204
 C 0.3411 0.094 0.0   -0.112987
 C 0.3221 0.874 0.0   -0.036204
 C 0.906 0.3411 0.0   -0.112562
 C 0.126 0.3221 0.0   -0.037192
 C 0.094 0.6589 0.0   -0.112562
 C 0.874 0.6779 0.0   -0.037191
 N 0.97457 0.36517 0.49814   -0.266112
 N 0.0501 0.4478 0.599   -0.42356
 N 0.02296 0.27066 0.59732   -0.546388
 N 0.14934 0.43164 0.75528   -0.741396
 N 0.52357 0.13297 0.49814   -0.26556
 N 0.5489 0.1512 0.599   -0.423372
 N 0.57436 0.32666 0.59732   -0.545639
 N 0.60594 0.32364 0.75528   -0.740644
 N 0.36517 0.52357 0.49814   -0.266118
 N 0.4478 0.5489 0.599   -0.42317
 N 0.27066 0.57436 0.59732   -0.546393
 N 0.43164 0.60594 0.75528   -0.741464
 N 0.13297 0.97457 0.49814   -0.265536
 N 0.1512 0.0501 0.599   -0.423412
 N 0.32666 0.02296 0.59732   -0.545841
 N 0.32364 0.14934 0.75528   -0.740512
 N 0.02543 0.63483 0.50186   -0.266112
 N 0.9499 0.5522 0.401   -0.423561
 N 0.97704 0.72934 0.40268   -0.546388
 N 0.85066 0.56836 0.24472   -0.741396
 N 0.47643 0.86703 0.50186   -0.26556
 N 0.4511 0.8488 0.401   -0.423372
 N 0.42564 0.67334 0.40268   -0.545639
 N 0.39406 0.67636 0.24472   -0.740643
 N 0.63483 0.47643 0.50186   -0.266118
 N 0.5522 0.4511 0.401   -0.42317
 N 0.72934 0.42564 0.40268   -0.546393
 N 0.56836 0.39406 0.24472   -0.741464
 N 0.86703 0.02543 0.50186   -0.265536
 N 0.8488 0.9499 0.401   -0.423412
 N 0.67334 0.97704 0.40268   -0.545842
 N 0.67636 0.85066 0.24472   -0.740512
 O 0.7524 0.3378 0.1816   -0.583928
 O 0.8429 0.2377 0.2714   -0.561473
 O 0.4292 0.8438 0.1816   -0.584219
 O 0.4285 0.0337 0.2714   -0.561496
 O 0.3378 0.4292 0.1816   -0.584101
 O 0.2377 0.4285 0.2714   -0.562229
 O 0.8438 0.7524 0.1816   -0.584326
 O 0.0337 0.8429 0.2714   -0.562215
 O 0.2476 0.6622 0.8184   -0.583928
 O 0.1571 0.7623 0.7286   -0.561473
 O 0.5708 0.1562 0.8184   -0.584219
 O 0.5715 0.9663 0.7286   -0.561496
 O 0.6622 0.5708 0.8184   -0.584101
 O 0.7623 0.5715 0.7286   -0.562229
 O 0.1562 0.2476 0.8184   -0.584326
 O 0.9663 0.1571 0.7286   -0.562215
