{'_ref': 'TBD', '_srcid': 'CAKYAQ_clean', 'submitters': [{'name': 'Dalar Nazarian Jeff Camp and David Sholl', 'email': 'dalar@gatech.edu jcamp6@gatech.edu'}], '_method': 'VASP DFT with PBE;DDEC'}
data_MnRe3C3S4N3
_symmetry_space_group_name_H-M   'P 1'
_cell_length_a   16.50100000
_cell_length_b   16.63300000
_cell_length_c   17.20800000
_cell_angle_alpha   90.00000000
_cell_angle_beta   90.00000000
_cell_angle_gamma   90.00000000
_symmetry_Int_Tables_number   1
_chemical_formula_structural   MnRe3C3S4N3
_chemical_formula_sum   'Mn8 Re24 C24 S32 N24'
_cell_volume   4722.92717666
_cell_formula_units_Z   8
loop_
 _symmetry_equiv_pos_site_id
 _symmetry_equiv_pos_as_xyz
  1  'x, y, z'
loop_
 _atom_site_label
 _atom_site_fract_x
 _atom_site_fract_y
 _atom_site_fract_z
 _atom_site_charge
 Mn 0.41419 0.91339 0.60102   1.053452
 Mn 0.08581 0.08661 0.10102   1.053452
 Mn 0.58581 0.41339 0.89898   1.053452
 Mn 0.91419 0.58661 0.39898   1.053452
 Mn 0.58581 0.08661 0.39898   1.053454
 Mn 0.91419 0.91339 0.89898   1.053454
 Mn 0.41419 0.58661 0.10102   1.053454
 Mn 0.08581 0.41339 0.60102   1.053454
 Re 0.10233 0.96704 0.52777   -0.021064
 Re 0.97663 0.8977 0.46611   -0.024725
 Re 0.03716 0.02614 0.4025   -0.020779
 Re 0.39767 0.03296 0.02777   -0.021064
 Re 0.52337 0.1023 0.96611   -0.024725
 Re 0.46284 0.97386 0.9025   -0.020779
 Re 0.89767 0.46704 0.97223   -0.021064
 Re 0.02337 0.3977 0.03389   -0.024725
 Re 0.96284 0.52614 0.0975   -0.020779
 Re 0.60233 0.53296 0.47223   -0.021064
 Re 0.47663 0.6023 0.53389   -0.024725
 Re 0.53716 0.47386 0.5975   -0.020779
 Re 0.89767 0.03296 0.47223   -0.021064
 Re 0.02337 0.1023 0.53389   -0.024725
 Re 0.96284 0.97386 0.5975   -0.02078
 Re 0.60233 0.96704 0.97223   -0.021064
 Re 0.47663 0.8977 0.03389   -0.024725
 Re 0.53716 0.02614 0.0975   -0.020779
 Re 0.10233 0.53296 0.02777   -0.021064
 Re 0.97663 0.6023 0.96611   -0.024725
 Re 0.03716 0.47386 0.9025   -0.020779
 Re 0.39767 0.46704 0.52777   -0.021064
 Re 0.52337 0.3977 0.46611   -0.024725
 Re 0.46284 0.52614 0.4025   -0.020779
 C 0.2203 0.9299 0.5604   0.225753
 C 0.9485 0.7802 0.4272   0.233086
 C 0.0759 0.0565 0.2889   0.225871
 C 0.2797 0.0701 0.0604   0.225753
 C 0.5515 0.2198 0.9272   0.233086
 C 0.4241 0.9435 0.7889   0.225871
 C 0.7797 0.4299 0.9396   0.225753
 C 0.0515 0.2802 0.0728   0.233086
 C 0.9241 0.5565 0.2111   0.225871
 C 0.7203 0.5701 0.4396   0.225753
 C 0.4485 0.7198 0.5728   0.233086
 C 0.5759 0.4435 0.7111   0.225871
 C 0.7797 0.0701 0.4396   0.225753
 C 0.0515 0.2198 0.5728   0.233087
 C 0.9241 0.9435 0.7111   0.225871
 C 0.7203 0.9299 0.9396   0.225753
 C 0.4485 0.7802 0.0728   0.233087
 C 0.5759 0.0565 0.2111   0.225871
 C 0.2203 0.5701 0.0604   0.225753
 C 0.9485 0.7198 0.9272   0.233087
 C 0.0759 0.4435 0.7889   0.225871
 C 0.2797 0.4299 0.5604   0.225753
 C 0.5515 0.2802 0.4272   0.233087
 C 0.4241 0.5565 0.2889   0.225871
 S 0.10779 0.89925 0.404   -0.055507
 S 0.03836 0.85118 0.58447   -0.055701
 S 0.15005 0.08826 0.46679   -0.057847
 S 0.082 0.04042 0.64667   -0.05561
 S 0.39221 0.10075 0.904   -0.055509
 S 0.46164 0.14882 0.08447   -0.055701
 S 0.34995 0.91174 0.96679   -0.057847
 S 0.418 0.95958 0.14667   -0.055611
 S 0.89221 0.39925 0.096   -0.055507
 S 0.96164 0.35118 0.91553   -0.055701
 S 0.84995 0.58826 0.03321   -0.057847
 S 0.918 0.54042 0.85333   -0.05561
 S 0.60779 0.60075 0.596   -0.055509
 S 0.53836 0.64882 0.41553   -0.055702
 S 0.65005 0.41174 0.53321   -0.057847
 S 0.582 0.45958 0.35333   -0.055612
 S 0.89221 0.10075 0.596   -0.055509
 S 0.96164 0.14882 0.41553   -0.055702
 S 0.84995 0.91174 0.53321   -0.057848
 S 0.918 0.95958 0.35333   -0.05561
 S 0.60779 0.89925 0.096   -0.055511
 S 0.53836 0.85118 0.91553   -0.055703
 S 0.65005 0.08826 0.03321   -0.057848
 S 0.582 0.04042 0.85333   -0.055611
 S 0.10779 0.60075 0.904   -0.055509
 S 0.03836 0.64882 0.08447   -0.055703
 S 0.15005 0.41174 0.96679   -0.057848
 S 0.082 0.45958 0.14667   -0.05561
 S 0.39221 0.39925 0.404   -0.055511
 S 0.46164 0.35118 0.58447   -0.055703
 S 0.34995 0.58826 0.46679   -0.057848
 S 0.418 0.54042 0.64667   -0.055612
 N 0.2849 0.9128 0.581   -0.48522
 N 0.9335 0.7167 0.4077   -0.484094
 N 0.0936 0.0736 0.2269   -0.477612
 N 0.2151 0.0872 0.081   -0.48522
 N 0.5665 0.2833 0.9077   -0.484094
 N 0.4064 0.9264 0.7269   -0.477612
 N 0.7151 0.4128 0.919   -0.48522
 N 0.0665 0.2167 0.0923   -0.484094
 N 0.9064 0.5736 0.2731   -0.477612
 N 0.7849 0.5872 0.419   -0.48522
 N 0.4335 0.7833 0.5923   -0.484094
 N 0.5936 0.4264 0.7731   -0.477612
 N 0.7151 0.0872 0.419   -0.48522
 N 0.0665 0.2833 0.5923   -0.484094
 N 0.9064 0.9264 0.7731   -0.477613
 N 0.7849 0.9128 0.919   -0.48522
 N 0.4335 0.7167 0.0923   -0.484094
 N 0.5936 0.0736 0.2731   -0.477613
 N 0.2849 0.5872 0.081   -0.48522
 N 0.9335 0.7833 0.9077   -0.484094
 N 0.0936 0.4264 0.7269   -0.477613
 N 0.2151 0.4128 0.581   -0.48522
 N 0.5665 0.2167 0.4077   -0.484094
 N 0.4064 0.5736 0.2269   -0.477613
