{'_ref': 'TBD', '_srcid': 'CAKYAQ_clean', 'submitters': [{'name': 'Dalar Nazarian Jeff Camp and David Sholl', 'email': 'dalar@gatech.edu jcamp6@gatech.edu'}], '_method': 'VASP DFT with PBE;DDEC'}
data_MoH48Rh4C24(N2O3)4
_symmetry_space_group_name_H-M   'P 1'
_cell_length_a   12.95200039
_cell_length_b   13.84900015
_cell_length_c   14.67900000
_cell_angle_alpha   112.45999929
_cell_angle_beta   99.57399764
_cell_angle_gamma   108.47199942
_symmetry_Int_Tables_number   1
_chemical_formula_structural   MoH48Rh4C24(N2O3)4
_chemical_formula_sum   'Mo2 H96 Rh8 C48 N16 O24'
_cell_volume   2180.36173238
_cell_formula_units_Z   2
loop_
 _symmetry_equiv_pos_site_id
 _symmetry_equiv_pos_as_xyz
  1  'x, y, z'
loop_
 _atom_site_label
 _atom_site_fract_x
 _atom_site_fract_y
 _atom_site_fract_z
 _atom_site_charge
 Mo 0.23058 0.88965 0.66989   2.145392
 Mo 0.76942 0.11035 0.33011   2.145392
 H 0.2389 0.1126 0.6552   0.341072
 H 0.1005 0.8224 0.4543   0.327832
 H 0.1828 0.6765 0.7072   0.338515
 H 0.9618 0.7174 0.5708   0.336158
 H 0.4571 0.7867 0.8026   0.349536
 H 0.486 0.0524 0.8173   0.338134
 H 0.2855 0.0437 0.4836   0.319202
 H 0.3013 0.796 0.4761   0.334198
 H 0.3388 0.2963 0.5685   0.106151
 H 0.3665 0.2765 0.6676   0.11494
 H 0.2325 0.3969 0.6434   0.107755
 H 0.2695 0.3826 0.7443   0.096507
 H 0.3638 0.458 0.7138   0.094579
 H 0.1452 0.8077 0.2619   0.105669
 H 0.0633 0.7089 0.2795   0.110804
 H 0.9039 0.6915 0.1594   0.089464
 H 0.9886 0.7867 0.1395   0.104276
 H 0.9959 0.6666 0.1063   0.085234
 H 0.1865 0.6392 0.8439   0.112361
 H 0.1356 0.5063 0.812   0.09554
 H 0.0156 0.6466 0.8596   0.103657
 H 0.9556 0.5116 0.816   0.086506
 H 0.0529 0.5894 0.9266   0.087348
 H 0.791 0.707 0.5975   0.10849
 H 0.7894 0.6508 0.673   0.107627
 H 0.6258 0.4871 0.542   0.098364
 H 0.6037 0.5999 0.5849   0.088758
 H 0.6245 0.5545 0.4759   0.088707
 H 0.7099 0.7937 0.8848   0.107521
 H 0.584 0.7064 0.8065   0.088318
 H 0.6517 0.7432 0.0117   0.108165
 H 0.5406 0.6412 0.9189   0.083638
 H 0.6644 0.6457 0.9192   0.090346
 H 0.6538 0.1932 0.8291   0.1097
 H 0.761 0.2526 0.9318   0.099843
 H 0.5709 0.3097 0.9125   0.10304
 H 0.6679 0.3621 0.0208   0.087461
 H 0.699 0.3897 0.9311   0.095036
 H 0.3365 0.1709 0.3513   0.107309
 H 0.2241 0.0846 0.354   0.105471
 H 0.3192 0.027 0.1914   0.094725
 H 0.2064 0.9409 0.194   0.092696
 H 0.2068 0.0504 0.1829   0.101765
 H 0.2493 0.6437 0.2421   0.10005
 H 0.2514 0.6233 0.3412   0.119912
 H 0.4118 0.6075 0.2336   0.088238
 H 0.419 0.592 0.3356   0.095666
 H 0.3147 0.5019 0.2314   0.09291
 H 0.7611 0.8874 0.3448   0.341069
 H 0.8995 0.1776 0.5457   0.327832
 H 0.8172 0.3235 0.2928   0.338515
 H 0.0382 0.2826 0.4292   0.336158
 H 0.5429 0.2133 0.1974   0.349531
 H 0.514 0.9476 0.1827   0.338134
 H 0.7145 0.9563 0.5164   0.319201
 H 0.6987 0.204 0.5239   0.334196
 H 0.6612 0.7037 0.4315   0.106159
 H 0.6335 0.7235 0.3324   0.114944
 H 0.7675 0.6031 0.3566   0.107756
 H 0.7305 0.6174 0.2557   0.096523
 H 0.6362 0.542 0.2862   0.094588
 H 0.8548 0.1923 0.7381   0.105669
 H 0.9367 0.2911 0.7205   0.110803
 H 0.0961 0.3085 0.8406   0.089474
 H 0.0114 0.2133 0.8605   0.104277
 H 0.0041 0.3334 0.8937   0.085241
 H 0.8135 0.3608 0.1561   0.11236
 H 0.8644 0.4937 0.188   0.095544
 H 0.9844 0.3534 0.1404   0.103664
 H 0.0444 0.4884 0.184   0.086514
 H 0.9471 0.4106 0.0734   0.087357
 H 0.209 0.293 0.4025   0.108493
 H 0.2106 0.3492 0.327   0.107643
 H 0.3742 0.5129 0.458   0.098369
 H 0.3963 0.4001 0.4151   0.088771
 H 0.3755 0.4455 0.5241   0.088722
 H 0.2901 0.2063 0.1152   0.10756
 H 0.416 0.2936 0.1935   0.088326
 H 0.3483 0.2568 0.9883   0.108171
 H 0.4594 0.3588 0.0811   0.08366
 H 0.3356 0.3543 0.0808   0.090373
 H 0.3462 0.8068 0.1709   0.109699
 H 0.239 0.7474 0.0682   0.099847
 H 0.4291 0.6903 0.0875   0.103056
 H 0.3321 0.6379 0.9792   0.087474
 H 0.301 0.6103 0.0689   0.095051
 H 0.6635 0.8291 0.6487   0.107315
 H 0.7759 0.9154 0.646   0.10547
 H 0.6808 0.973 0.8086   0.094728
 H 0.7936 0.0591 0.806   0.092701
 H 0.7932 0.9496 0.8171   0.101818
 H 0.7507 0.3563 0.7579   0.100057
 H 0.7486 0.3767 0.6588   0.119912
 H 0.5882 0.3925 0.7664   0.088263
 H 0.581 0.408 0.6644   0.095681
 H 0.6853 0.4981 0.7686   0.092958
 Rh 0.03464 0.96822 0.55978   0.804716
 Rh 0.06787 0.59336 0.51925   0.835517
 Rh 0.4203 0.95128 0.92025   0.861613
 Rh 0.44345 0.000100000000003 0.55763   0.834291
 Rh 0.96536 0.03178 0.44022   0.804707
 Rh 0.93213 0.40664 0.48075   0.835505
 Rh 0.5797 0.04872 0.07975   0.861603
 Rh 0.55655 0.9999 0.44237   0.834282
 C 0.1979 0.1784 0.5725   0.576702
 C 0.3092 0.2856 0.6228   -0.246212
 C 0.2923 0.39 0.6867   -0.263909
 C 0.0488 0.8609 0.3509   0.588762
 C 0.0675 0.7726 0.264   -0.239118
 C 0.9813 0.7251 0.1578   -0.256832
 C 0.0774 0.5389 0.6933   0.594026
 C 0.1165 0.5673 0.8064   -0.238473
 C 0.0274 0.5798 0.8565   -0.248738
 C 0.851 0.5829 0.5568   0.58931
 C 0.7722 0.6337 0.5995   -0.233439
 C 0.6454 0.5625 0.5459   -0.264913
 C 0.587 0.852 0.9214   0.582884
 C 0.6293 0.7583 0.8802   -0.224702
 C 0.6208 0.6915 0.9373   -0.251619
 C 0.6168 0.141 0.9377   0.594798
 C 0.6777 0.2285 0.9054   -0.241884
 C 0.6516 0.3315 0.946   -0.257627
 C 0.3648 0.0519 0.3896   0.582254
 C 0.2921 0.0899 0.3317   -0.243932
 C 0.2526 0.0209 0.2146   -0.249222
 C 0.3758 0.7796 0.3755   0.576768
 C 0.3001 0.6528 0.3051   -0.237903
 C 0.3673 0.5823 0.2737   -0.257019
 C 0.8021 0.8216 0.4275   0.576701
 C 0.6908 0.7144 0.3772   -0.246213
 C 0.7077 0.61 0.3133   -0.263917
 C 0.9512 0.1391 0.6491   0.58876
 C 0.9325 0.2274 0.736   -0.239116
 C 0.0187 0.2749 0.8422   -0.256838
 C 0.9226 0.4611 0.3067   0.594026
 C 0.8835 0.4327 0.1936   -0.238472
 C 0.9726 0.4202 0.1435   -0.248747
 C 0.149 0.4171 0.4432   0.589311
 C 0.2278 0.3663 0.4005   -0.233444
 C 0.3546 0.4375 0.4541   -0.264919
 C 0.413 0.148 0.0786   0.582887
 C 0.3707 0.2417 0.1198   -0.224713
 C 0.3792 0.3085 0.0627   -0.251633
 C 0.3832 0.859 0.0623   0.594797
 C 0.3223 0.7715 0.0946   -0.241882
 C 0.3484 0.6685 0.054   -0.257641
 C 0.6352 0.9481 0.6104   0.582252
 C 0.7079 0.9101 0.6683   -0.243929
 C 0.7474 0.9791 0.7854   -0.249241
 C 0.6242 0.2204 0.6245   0.576766
 C 0.6999 0.3472 0.6949   -0.237898
 C 0.6327 0.4177 0.7263   -0.257047
 N 0.1812 0.1028 0.6075   -0.708131
 N 0.0697 0.866 0.4433   -0.713599
 N 0.1234 0.6133 0.6621   -0.705513
 N 0.9483 0.6463 0.555   -0.702755
 N 0.4913 0.8427 0.8659   -0.70665
 N 0.5144 0.0595 0.8787   -0.706607
 N 0.3459 0.037 0.4686   -0.69952
 N 0.3567 0.8352 0.4609   -0.693367
 N 0.8188 0.8972 0.3925   -0.708129
 N 0.9303 0.134 0.5567   -0.713598
 N 0.8766 0.3867 0.3379   -0.705511
 N 0.0517 0.3537 0.445   -0.702754
 N 0.5087 0.1573 0.1341   -0.706648
 N 0.4856 0.9405 0.1213   -0.706606
 N 0.6541 0.963 0.5314   -0.699519
 N 0.6433 0.1648 0.5391   -0.693365
 O 0.1225 0.1655 0.4951   -0.485803
 O 0.0141 0.93 0.3308   -0.477473
 O 0.995 0.4398 0.6308   -0.498534
 O 0.8186 0.4734 0.5247   -0.5021
 O 0.6447 0.9344 0.0139   -0.495878
 O 0.6674 0.1535 0.0264   -0.499166
 O 0.4499 0.0394 0.3593   -0.494809
 O 0.4566 0.8292 0.3471   -0.497396
 O 0.1072 0.9177 0.6743   -0.799202
 O 0.192 0.7645 0.5514   -0.823676
 O 0.273 0.8639 0.7748   -0.816696
 O 0.3432 0.0043 0.6716   -0.833946
 O 0.8775 0.8345 0.5049   -0.485804
 O 0.9859 0.07 0.6692   -0.477477
 O 0.005 0.5602 0.3692   -0.498536
 O 0.1814 0.5266 0.4753   -0.502103
 O 0.3553 0.0656 0.9861   -0.495879
 O 0.3326 0.8465 0.9736   -0.499168
 O 0.5501 0.9606 0.6407   -0.494809
 O 0.5434 0.1708 0.6529   -0.497399
 O 0.8928 0.0823 0.3257   -0.799204
 O 0.808 0.2355 0.4486   -0.823677
 O 0.727 0.1361 0.2252   -0.816696
 O 0.6568 0.9957 0.3284   -0.833948
