{'_ref': 'TBD', '_srcid': 'CAKYAQ_clean', 'submitters': [{'name': 'Dalar Nazarian Jeff Camp and David Sholl', 'email': 'dalar@gatech.edu jcamp6@gatech.edu'}], '_method': 'VASP DFT with PBE;DDEC'}
data_PrH12(C3O2)3
_symmetry_space_group_name_H-M   'P 1'
_cell_length_a   7.85380026
_cell_length_b   11.02189962
_cell_length_c   11.66930000
_cell_angle_alpha   108.67399842
_cell_angle_beta   105.81199714
_cell_angle_gamma   104.10800189
_symmetry_Int_Tables_number   1
_chemical_formula_structural   PrH12(C3O2)3
_chemical_formula_sum   'Pr2 H24 C18 O12'
_cell_volume   857.899197932
_cell_formula_units_Z   2
loop_
 _symmetry_equiv_pos_site_id
 _symmetry_equiv_pos_as_xyz
  1  'x, y, z'
loop_
 _atom_site_label
 _atom_site_fract_x
 _atom_site_fract_y
 _atom_site_fract_z
 _atom_site_charge
 Pr 0.72538 0.97892 0.93458   2.22526
 Pr 0.27462 0.02108 0.06542   2.225222
 H 0.7692 0.5948 0.9486   0.138004
 H 0.7378 0.6973 0.0621   0.131202
 H 0.0121 0.5772 0.1176   0.070969
 H 0.9334 0.6541 0.2171   0.064732
 H 0.1543 0.1827 0.4642   0.121056
 H 0.9357 0.1545 0.4175   0.117234
 H 0.8967 0.3532 0.1661   0.124174
 H 0.8322 0.4435 0.2679   0.125059
 H 0.873 0.9187 0.3698   0.063579
 H 0.0916 0.948 0.4186   0.066127
 H 0.7161 0.3969 0.000799999999998   0.073435
 H 0.6305 0.4746 0.0938   0.064257
 H 0.2308 0.4052 0.0514   0.137996
 H 0.2622 0.3027 0.9379   0.131176
 H 0.9879 0.4228 0.8824   0.070966
 H 0.0666 0.3459 0.7829   0.064756
 H 0.8457 0.8173 0.5358   0.12114
 H 0.0643 0.8455 0.5825   0.117294
 H 0.1033 0.6468 0.8339   0.124191
 H 0.1678 0.5565 0.7321   0.12516
 H 0.127 0.0813 0.6302   0.063597
 H 0.9084 0.052 0.5814   0.06615
 H 0.2839 0.6031 0.9992   0.073406
 H 0.3695 0.5254 0.9062   0.064219
 C 0.018 0.0811 0.2656   0.835286
 C 0.8318 0.6634 0.0383   -0.350785
 C 0.8996 0.5938 0.1265   -0.071124
 C 0.0299 0.1149 0.4038   -0.34465
 C 0.793 0.3825 0.1767   -0.322527
 C 0.9856 0.7814 0.0441   0.785899
 C 0.9963 0.9866 0.432   -0.064184
 C 0.7447 0.4573 0.0905   -0.081709
 C 0.619 0.259 0.1375   0.779489
 C 0.982 0.9189 0.7344   0.835297
 C 0.1682 0.3366 0.9617   -0.35077
 C 0.1004 0.4062 0.8735   -0.071142
 C 0.9701 0.8851 0.5962   -0.344704
 C 0.207 0.6175 0.8233   -0.322574
 C 0.0144 0.2186 0.9559   0.785895
 C 0.0037 0.0134 0.568   -0.064157
 C 0.2553 0.5427 0.9095   -0.081673
 C 0.381 0.741 0.8625   0.779499
 O 0.9318 0.8507 0.9817   -0.841479
 O 0.8532 0.0399 0.1765   -0.765194
 O 0.5899 0.144 0.0478   -0.856918
 O 0.1654 0.0895 0.2431   -0.750989
 O 0.5001 0.2716 0.1888   -0.671936
 O 0.1561 0.8085 0.1044   -0.664345
 O 0.0682 0.1493 0.0183   -0.84148
 O 0.1468 0.9601 0.8235   -0.765193
 O 0.4101 0.856 0.9522   -0.856919
 O 0.8346 0.9105 0.7569   -0.750993
 O 0.4999 0.7284 0.8112   -0.671938
 O 0.8439 0.1915 0.8956   -0.664346
