{'_ref': 'TBD', '_srcid': 'CAKYAQ_clean', 'submitters': [{'name': 'Dalar Nazarian Jeff Camp and David Sholl', 'email': 'dalar@gatech.edu jcamp6@gatech.edu'}], '_method': 'VASP DFT with PBE;DDEC'}
data_Ni2H64C49(NO)8
_symmetry_space_group_name_H-M   'P 1'
_cell_length_a   12.28400000
_cell_length_b   16.76400000
_cell_length_c   16.76400000
_cell_angle_alpha   90.00000000
_cell_angle_beta   90.00000000
_cell_angle_gamma   90.00000000
_symmetry_Int_Tables_number   1
_chemical_formula_structural   Ni2H64C49(NO)8
_chemical_formula_sum   'Ni4 H128 C98 N16 O16'
_cell_volume   3452.19335366
_cell_formula_units_Z   2
loop_
 _symmetry_equiv_pos_site_id
 _symmetry_equiv_pos_as_xyz
  1  'x, y, z'
loop_
 _atom_site_label
 _atom_site_fract_x
 _atom_site_fract_y
 _atom_site_fract_z
 _atom_site_charge
 Ni 0.0 0.5 0.0   0.558374
 Ni 0.0 0.5 0.5   0.558374
 Ni 0.0 0.0 0.0   0.558374
 Ni 0.0 0.0 0.5   0.558374
 H 0.8954 0.3874 0.0592   0.25942
 H 0.8954 0.4408 0.3874   0.25942
 H 0.8954 0.0592 0.1126   0.25942
 H 0.8954 0.1126 0.4408   0.25942
 H 0.1046 0.6126 0.9408   0.25942
 H 0.1046 0.5592 0.6126   0.25942
 H 0.1046 0.9408 0.8874   0.25942
 H 0.1046 0.8874 0.5592   0.25942
 H 0.3327 0.2341 0.8482   0.095203
 H 0.3327 0.6518 0.2341   0.095203
 H 0.3327 0.8482 0.2659   0.095203
 H 0.3327 0.2659 0.6518   0.095203
 H 0.6673 0.7659 0.1518   0.095203
 H 0.6673 0.3482 0.7659   0.095203
 H 0.6673 0.1518 0.7341   0.095203
 H 0.6673 0.7341 0.3482   0.095203
 H 0.3662 0.5017 0.7924   0.100703
 H 0.3662 0.7076 0.5017   0.100703
 H 0.3662 0.7924 0.9983   0.100703
 H 0.3662 0.9983 0.7076   0.100702
 H 0.6338 0.4983 0.2076   0.100703
 H 0.6338 0.2924 0.4983   0.100703
 H 0.6338 0.2076 0.0017   0.100703
 H 0.6338 0.0017 0.2924   0.100702
 H 0.2161 0.3237 0.9042   0.066789
 H 0.2161 0.5958 0.3237   0.066789
 H 0.2161 0.9042 0.1763   0.066789
 H 0.2161 0.1763 0.5958   0.066789
 H 0.7839 0.6763 0.0958   0.066789
 H 0.7839 0.4042 0.6763   0.066789
 H 0.7839 0.0958 0.8237   0.066789
 H 0.7839 0.8237 0.4042   0.066789
 H 0.8265 0.517 0.9264   0.277446
 H 0.8265 0.5736 0.517   0.277446
 H 0.8265 0.9264 0.983   0.277446
 H 0.8265 0.983 0.5736   0.277446
 H 0.1735 0.483 0.0736   0.277446
 H 0.1735 0.4264 0.483   0.277446
 H 0.1735 0.0736 0.017   0.277446
 H 0.1735 0.017 0.4264   0.277446
 H 0.9087 0.2791 0.9867   0.05437
 H 0.9087 0.5133 0.2791   0.05437
 H 0.9087 0.9867 0.2209   0.05437
 H 0.9087 0.2209 0.5133   0.05437
 H 0.0913 0.7209 0.0133   0.05437
 H 0.0913 0.4867 0.7209   0.05437
 H 0.0913 0.0133 0.7791   0.05437
 H 0.0913 0.7791 0.4867   0.05437
 H 0.000599999999999 0.3189 0.9355   0.054743
 H 0.000599999999999 0.5645 0.3189   0.054743
 H 0.000599999999999 0.9355 0.1811   0.054743
 H 0.000599999999999 0.1811 0.5645   0.054743
 H 0.9994 0.6811 0.0645   0.054743
 H 0.9994 0.4355 0.6811   0.054743
 H 0.9994 0.0645 0.8189   0.054743
 H 0.9994 0.8189 0.4355   0.054743
 H 0.4854 0.4123 0.7355   0.101768
 H 0.4854 0.7645 0.4123   0.101768
 H 0.4854 0.7355 0.0877   0.101768
 H 0.4854 0.0877 0.7645   0.101768
 H 0.5146 0.5877 0.2645   0.101768
 H 0.5146 0.2355 0.5877   0.101768
 H 0.5146 0.2645 0.9123   0.101768
 H 0.5146 0.9123 0.2355   0.101768
 H 0.8271 0.3194 0.8723   0.100959
 H 0.8271 0.6277 0.3194   0.100959
 H 0.8271 0.8723 0.1806   0.10096
 H 0.8271 0.1806 0.6277   0.10096
 H 0.1729 0.6806 0.1277   0.100959
 H 0.1729 0.3723 0.6806   0.100959
 H 0.1729 0.1277 0.8194   0.10096
 H 0.1729 0.8194 0.3723   0.10096
 H 0.7853 0.3769 0.9391   0.098096
 H 0.7853 0.5609 0.3769   0.098096
 H 0.7853 0.9391 0.1231   0.098096
 H 0.7853 0.1231 0.5609   0.098096
 H 0.2147 0.6231 0.0609   0.098096
 H 0.2147 0.4391 0.6231   0.098096
 H 0.2147 0.0609 0.8769   0.098096
 H 0.2147 0.8769 0.4391   0.098096
 H 0.8291 0.4409 0.8171   0.051724
 H 0.8291 0.6829 0.4409   0.051724
 H 0.8291 0.8171 0.0591   0.051724
 H 0.8291 0.0591 0.6829   0.051724
 H 0.1709 0.5591 0.1829   0.051724
 H 0.1709 0.3171 0.5591   0.051724
 H 0.1709 0.1829 0.9409   0.051724
 H 0.1709 0.9409 0.3171   0.051724
 H 0.9517 0.4208 0.8334   0.067636
 H 0.9517 0.6666 0.4208   0.067636
 H 0.9517 0.8334 0.0792   0.067636
 H 0.9517 0.0792 0.6666   0.067636
 H 0.0483 0.5792 0.1666   0.067636
 H 0.0483 0.3334 0.5792   0.067636
 H 0.0483 0.1666 0.9208   0.067636
 H 0.0483 0.9208 0.3334   0.067636
 H 0.1058 0.3392 0.0556   0.067049
 H 0.1058 0.4444 0.3392   0.067049
 H 0.1058 0.0556 0.1608   0.067049
 H 0.1058 0.1608 0.4444   0.067049
 H 0.8942 0.6608 0.9444   0.067049
 H 0.8942 0.5556 0.6608   0.067049
 H 0.8942 0.9444 0.8392   0.067049
 H 0.8942 0.8392 0.5556   0.067049
 H 0.0155 0.3114 0.116   0.061289
 H 0.0155 0.384 0.3114   0.061288
 H 0.0155 0.116 0.1886   0.061288
 H 0.0155 0.1886 0.384   0.061288
 H 0.9845 0.6886 0.884   0.061289
 H 0.9845 0.616 0.6886   0.061288
 H 0.9845 0.884 0.8114   0.061288
 H 0.9845 0.8114 0.616   0.061288
 H 0.9892 0.5625 0.826   0.07705
 H 0.9892 0.674 0.5625   0.07705
 H 0.9892 0.826 0.9375   0.07705
 H 0.9892 0.9375 0.674   0.07705
 H 0.0108 0.4375 0.174   0.07705
 H 0.0108 0.326 0.4375   0.07705
 H 0.0108 0.174 0.0625   0.07705
 H 0.0108 0.0625 0.326   0.07705
 H 0.8682 0.593 0.8246   0.051741
 H 0.8682 0.6754 0.593   0.051742
 H 0.8682 0.8246 0.907   0.051742
 H 0.8682 0.907 0.6754   0.051743
 H 0.1318 0.407 0.1754   0.051741
 H 0.1318 0.3246 0.407   0.051742
 H 0.1318 0.1754 0.093   0.051742
 H 0.1318 0.093 0.3246   0.051743
 C 0.2792 0.42226 0.85479   -0.156295
 C 0.2792 0.64521 0.42226   -0.156295
 C 0.2792 0.85479 0.07774   -0.156295
 C 0.2792 0.07774 0.64521   -0.156295
 C 0.7208 0.57774 0.14521   -0.156295
 C 0.7208 0.35479 0.57774   -0.156295
 C 0.7208 0.14521 0.92226   -0.156295
 C 0.7208 0.92226 0.35479   -0.156295
 C 0.4242 0.31419 0.78707   0.058394
 C 0.4242 0.71293 0.31419   0.058394
 C 0.4242 0.78707 0.18581   0.058394
 C 0.4242 0.18581 0.71293   0.058394
 C 0.5758 0.68581 0.21293   0.058394
 C 0.5758 0.28707 0.68581   0.058394
 C 0.5758 0.21293 0.81419   0.058394
 C 0.5758 0.81419 0.28707   0.058394
 C 0.5 0.25 0.75   0.010984
 C 0.5 0.75 0.25   0.010984
 C 0.3406 0.28821 0.8373   -0.157581
 C 0.3406 0.6627 0.28821   -0.157581
 C 0.3406 0.8373 0.21179   -0.157581
 C 0.3406 0.21179 0.6627   -0.157581
 C 0.6594 0.71179 0.1627   -0.157581
 C 0.6594 0.3373 0.71179   -0.157581
 C 0.6594 0.1627 0.78821   -0.157581
 C 0.6594 0.78821 0.3373   -0.157581
 C 0.3598 0.4476 0.804   -0.021138
 C 0.3598 0.696 0.4476   -0.021138
 C 0.3598 0.804 0.0524   -0.021138
 C 0.3598 0.0524 0.696   -0.021138
 C 0.6402 0.5524 0.196   -0.021138
 C 0.6402 0.304 0.5524   -0.021138
 C 0.6402 0.196 0.9476   -0.021138
 C 0.6402 0.9476 0.304   -0.021138
 C 0.2708 0.34176 0.87033   -0.046254
 C 0.2708 0.62967 0.34176   -0.046254
 C 0.2708 0.87033 0.15824   -0.046254
 C 0.2708 0.15824 0.62967   -0.046254
 C 0.7292 0.65824 0.12967   -0.046254
 C 0.7292 0.37033 0.65824   -0.046254
 C 0.7292 0.12967 0.84176   -0.046254
 C 0.7292 0.84176 0.37033   -0.046254
 C 0.1998 0.4809 0.8922   0.6584
 C 0.1998 0.6078 0.4809   0.6584
 C 0.1998 0.8922 0.0191   0.6584
 C 0.1998 0.0191 0.6078   0.6584
 C 0.8002 0.5191 0.1078   0.6584
 C 0.8002 0.3922 0.5191   0.6584
 C 0.8002 0.1078 0.9809   0.6584
 C 0.8002 0.9809 0.3922   0.6584
 C 0.9341 0.3293 0.9649   0.051489
 C 0.9341 0.5351 0.3293   0.051489
 C 0.9341 0.9649 0.1707   0.051489
 C 0.9341 0.1707 0.5351   0.051489
 C 0.0659 0.6707 0.0351   0.051489
 C 0.0659 0.4649 0.6707   0.051489
 C 0.0659 0.0351 0.8293   0.051489
 C 0.0659 0.8293 0.4649   0.051489
 C 0.4317 0.3941 0.7701   -0.158431
 C 0.4317 0.7299 0.3941   -0.158431
 C 0.4317 0.7701 0.1059   -0.158431
 C 0.4317 0.1059 0.7299   -0.158431
 C 0.5683 0.6059 0.2299   -0.158431
 C 0.5683 0.2701 0.6059   -0.158431
 C 0.5683 0.2299 0.8941   -0.158431
 C 0.5683 0.8941 0.2701   -0.158431
 C 0.8489 0.362 0.9082   -0.206789
 C 0.8489 0.5918 0.362   -0.206789
 C 0.8489 0.9082 0.138   -0.206789
 C 0.8489 0.138 0.5918   -0.206789
 C 0.1511 0.638 0.0918   -0.206789
 C 0.1511 0.4082 0.638   -0.206789
 C 0.1511 0.0918 0.862   -0.206789
 C 0.1511 0.862 0.4082   -0.206789
 C 0.8826 0.4324 0.8589   0.045586
 C 0.8826 0.6411 0.4324   0.045586
 C 0.8826 0.8589 0.0676   0.045586
 C 0.8826 0.0676 0.6411   0.045586
 C 0.1174 0.5676 0.1411   0.045586
 C 0.1174 0.3589 0.5676   0.045586
 C 0.1174 0.1411 0.9324   0.045586
 C 0.1174 0.9324 0.3589   0.045586
 C 0.0422 0.3564 0.0853   0.001036
 C 0.0422 0.4147 0.3564   0.001036
 C 0.0422 0.0853 0.1436   0.001036
 C 0.0422 0.1436 0.4147   0.001036
 C 0.9578 0.6436 0.9147   0.001036
 C 0.9578 0.5853 0.6436   0.001036
 C 0.9578 0.9147 0.8564   0.001036
 C 0.9578 0.8564 0.5853   0.001036
 C 0.9273 0.5762 0.8592   -0.00392
 C 0.9273 0.6408 0.5762   -0.00392
 C 0.9273 0.8592 0.9238   -0.00392
 C 0.9273 0.9238 0.6408   -0.003921
 C 0.0727 0.4238 0.1408   -0.00392
 C 0.0727 0.3592 0.4238   -0.00392
 C 0.0727 0.1408 0.0762   -0.00392
 C 0.0727 0.0762 0.3592   -0.003921
 N 0.9577 0.3838 0.03002   -0.346856
 N 0.9577 0.46998 0.3838   -0.346856
 N 0.9577 0.03002 0.1162   -0.346856
 N 0.9577 0.1162 0.46998   -0.346856
 N 0.0423 0.6162 0.96998   -0.346856
 N 0.0423 0.53002 0.6162   -0.346856
 N 0.0423 0.96998 0.8838   -0.346856
 N 0.0423 0.8838 0.53002   -0.346856
 N 0.8933 0.50589 0.90579   -0.355553
 N 0.8933 0.59421 0.50589   -0.355553
 N 0.8933 0.90579 0.99411   -0.355553
 N 0.8933 0.99411 0.59421   -0.355552
 N 0.1067 0.49411 0.09421   -0.355553
 N 0.1067 0.40579 0.49411   -0.355553
 N 0.1067 0.09421 0.00589   -0.355553
 N 0.1067 0.00589 0.40579   -0.355552
 O 0.12254 0.45204 0.92742   -0.59523
 O 0.12254 0.57258 0.45204   -0.59523
 O 0.12254 0.92742 0.04796   -0.59523
 O 0.12254 0.04796 0.57258   -0.59523
 O 0.87746 0.54796 0.07258   -0.59523
 O 0.87746 0.42742 0.54796   -0.59523
 O 0.87746 0.07258 0.95204   -0.59523
 O 0.87746 0.95204 0.42742   -0.59523
 O 0.2205 0.55225 0.8842   -0.634778
 O 0.2205 0.6158 0.55225   -0.634778
 O 0.2205 0.8842 0.94775   -0.634778
 O 0.2205 0.94775 0.6158   -0.634778
 O 0.7795 0.44775 0.1158   -0.634778
 O 0.7795 0.3842 0.44775   -0.634778
 O 0.7795 0.1158 0.05225   -0.634778
 O 0.7795 0.05225 0.3842   -0.634778
