{'_ref': 'TBD', '_srcid': 'CAKYAQ_clean', 'submitters': [{'name': 'Dalar Nazarian Jeff Camp and David Sholl', 'email': 'dalar@gatech.edu jcamp6@gatech.edu'}], '_method': 'VASP DFT with PBE;DDEC'}
data_ZnH11C12NO5
_symmetry_space_group_name_H-M   'P 1'
_cell_length_a   8.76510018
_cell_length_b   8.79410019
_cell_length_c   13.69110000
_cell_angle_alpha   73.56699734
_cell_angle_beta   73.04800140
_cell_angle_gamma   81.47200158
_symmetry_Int_Tables_number   1
_chemical_formula_structural   ZnH11C12NO5
_chemical_formula_sum   'Zn2 H22 C24 N2 O10'
_cell_volume   965.741708015
_cell_formula_units_Z   2
loop_
 _symmetry_equiv_pos_site_id
 _symmetry_equiv_pos_as_xyz
  1  'x, y, z'
loop_
 _atom_site_label
 _atom_site_fract_x
 _atom_site_fract_y
 _atom_site_fract_z
 _atom_site_charge
 Zn 0.50394 0.15125 0.14478   0.938335
 Zn 0.37594 0.10068 0.37999   0.955953
 H 0.885 0.2606 0.6202   0.144032
 H 0.0723 0.2432 0.4646   0.09805
 H 0.5681 0.9635 0.9825   0.091888
 H 0.7651 0.932 0.8319   0.140555
 H 0.9618 0.3173 0.8352   0.146523
 H 0.7584 0.3407 0.9828   0.09564
 H 0.1002 0.8767 0.8721   0.050853
 H 0.3003 0.717 0.7892   0.031675
 H 0.5046 0.9708 0.7287   0.088083
 H 0.5665 0.7955 0.7136   0.089535
 H 0.4109 0.8187 0.595   0.12079
 H 0.5049 0.9769 0.5546   0.13164
 H 0.2535 0.9227 0.000399999999999   0.062796
 H 0.2162 0.1092 0.9916   0.086292
 H 0.0777 0.0032 0.9991   0.050344
 H 0.4618 0.5466 0.863   0.05336
 H 0.5926 0.6349 0.883   0.040015
 H 0.4595 0.5435 0.9809   0.092856
 H 0.9027 0.0981 0.3691   0.12655
 H 0.986 0.1719 0.1498   0.120212
 H 0.4761 0.6645 0.1559   0.12484
 H 0.4027 0.5876 0.3741   0.129916
 C 0.2614 0.0191 0.6193   0.287248
 C 0.1518 0.0162 0.7182   -0.154533
 C 0.0084 0.1118 0.7168   0.096323
 C 0.9813 0.1954 0.6221   -0.233682
 C 0.0934 0.1851 0.5298   0.19165
 C 0.6492 0.0365 0.952   0.192736
 C 0.7655 0.0172 0.8617   -0.228814
 C 0.8825 0.1258 0.8161   0.132703
 C 0.8808 0.2441 0.8634   -0.210829
 C 0.7609 0.2558 0.952   0.16562
 C 0.1952 0.9295 0.8199   0.164719
 C 0.3352 0.8077 0.806   0.153058
 C 0.4734 0.8747 0.7173   -0.188685
 C 0.4209 0.918 0.6125   -0.235129
 C 0.1922 0.0188 0.9713   -0.004488
 C 0.481 0.6076 0.9076   -0.00132
 C 0.7147 0.1143 0.2933   0.703196
 C 0.8845 0.1181 0.3013   -0.17646
 C 0.0051 0.148 0.2176   -0.201205
 C 0.1685 0.1459 0.2248   0.716285
 C 0.4362 0.4301 0.2336   0.714224
 C 0.4494 0.5952 0.2247   -0.20879
 C 0.4272 0.6556 0.3048   -0.167422
 C 0.4393 0.8325 0.2907   0.707917
 N 0.2308 0.0965 0.5285   -0.331791
 N 0.6456 0.151 0.9975   -0.31069
 O 0.2354 0.0502 0.8579   -0.356604
 O 0.3772 0.7505 0.9017   -0.328847
 O 0.6042 0.1055 0.3786   -0.61181
 O 0.6961 0.1137 0.2072   -0.610308
 O 0.191 0.11 0.3151   -0.626696
 O 0.2739 0.1804 0.1391   -0.598852
 O 0.3717 0.341 0.3251   -0.633317
 O 0.4937 0.381 0.1508   -0.60829
 O 0.4158 0.8745 0.3745   -0.612411
 O 0.4708 0.9163 0.2003   -0.59544
