{'_ref': 'TBD', '_srcid': 'CAKYAQ_clean', 'submitters': [{'name': 'Dalar Nazarian Jeff Camp and David Sholl', 'email': 'dalar@gatech.edu jcamp6@gatech.edu'}], '_method': 'VASP DFT with PBE;DDEC'}
data_Co3H18(C4O7)2
_symmetry_space_group_name_H-M   'P 1'
_cell_length_a   6.46800006
_cell_length_b   9.93910000
_cell_length_c   9.93909962
_cell_angle_alpha   60.55199876
_cell_angle_beta   74.62430016
_cell_angle_gamma   74.62399816
_symmetry_Int_Tables_number   1
_chemical_formula_structural   Co3H18(C4O7)2
_chemical_formula_sum   'Co3 H18 C8 O14'
_cell_volume   529.522280245
_cell_formula_units_Z   1
loop_
 _symmetry_equiv_pos_site_id
 _symmetry_equiv_pos_as_xyz
  1  'x, y, z'
loop_
 _atom_site_label
 _atom_site_fract_x
 _atom_site_fract_y
 _atom_site_fract_z
 _atom_site_charge
 Co 0.5 0.0 0.0   1.208908
 Co 0.0 0.15226 0.84774   1.034169
 Co 0.0 0.84774 0.15226   1.034157
 H 0.6882 0.9376 0.5778   0.140523
 H 0.6155 0.1161 0.4557   0.121522
 H 0.7225 0.2047 0.6769   0.423077
 H 0.9416 0.1967 0.6735   0.310717
 H 0.3118 0.4222 0.0624   0.140524
 H 0.3845 0.5443 0.8839   0.121553
 H 0.2775 0.3231 0.7953   0.423096
 H 0.0584 0.3265 0.8033   0.310718
 H 0.3118 0.0624 0.4222   0.140615
 H 0.3845 0.8839 0.5443   0.121605
 H 0.2775 0.7953 0.3231   0.42308
 H 0.0584 0.8033 0.3265   0.310738
 H 0.6882 0.5778 0.9376   0.140615
 H 0.6155 0.4557 0.1161   0.121634
 H 0.7225 0.6769 0.2047   0.423099
 H 0.9416 0.6735 0.1967   0.310738
 H 0.1573 0.0821 0.0821   0.459974
 H 0.8427 0.9179 0.9179   0.459974
 C 0.428 0.04211 0.68191   0.759224
 C 0.561 0.01304 0.54544   -0.302556
 C 0.572 0.31809 0.95789   0.759234
 C 0.439 0.45456 0.98696   -0.302594
 C 0.572 0.95789 0.31809   0.759237
 C 0.439 0.98696 0.45456   -0.302633
 C 0.428 0.68191 0.04211   0.759247
 C 0.561 0.54544 0.01304   -0.302669
 O 0.2255 0.04697 0.71037   -0.613881
 O 0.5329 0.06226 0.75884   -0.673186
 O 0.8215 0.26029 0.65789   -0.708972
 O 0.7745 0.28963 0.95303   -0.61388
 O 0.4671 0.24116 0.93774   -0.673195
 O 0.1785 0.34211 0.73971   -0.708999
 O 0.7745 0.95303 0.28963   -0.613887
 O 0.4671 0.93774 0.24116   -0.673188
 O 0.1785 0.73971 0.34211   -0.708981
 O 0.2255 0.71037 0.04697   -0.613886
 O 0.5329 0.75884 0.06226   -0.673197
 O 0.8215 0.65789 0.26029   -0.709008
 O 0.1683 0.03458 0.03458   -1.011632
 O 0.8317 0.96542 0.96542   -1.011632
