{'_ref': 'TBD', '_srcid': 'CAKYAQ_clean', 'submitters': [{'name': 'Dalar Nazarian Jeff Camp and David Sholl', 'email': 'dalar@gatech.edu jcamp6@gatech.edu'}], '_method': 'VASP DFT with PBE;DDEC'}
data_Mn2Mo(CN)8
_symmetry_space_group_name_H-M   'P 1'
_cell_length_a   10.72199970
_cell_length_b   10.72200000
_cell_length_c   10.72200029
_cell_angle_alpha   103.58620170
_cell_angle_beta   112.49099720
_cell_angle_gamma   112.49149977
_symmetry_Int_Tables_number   1
_chemical_formula_structural   Mn2Mo(CN)8
_chemical_formula_sum   'Mn4 Mo2 C16 N16'
_cell_volume   941.469878292
_cell_formula_units_Z   2
loop_
 _symmetry_equiv_pos_site_id
 _symmetry_equiv_pos_as_xyz
  1  'x, y, z'
loop_
 _atom_site_label
 _atom_site_fract_x
 _atom_site_fract_y
 _atom_site_fract_z
 _atom_site_charge
 Mn 0.89115 0.19702 0.69413   1.214185
 Mn 0.10885 0.80298 0.30587   1.214203
 Mn 0.49711 0.69413 0.80298   1.214256
 Mn 0.50289 0.30587 0.19702   1.214273
 Mo 0.0 0.7483 0.7483   -0.287819
 Mo 0.0 0.2517 0.2517   -0.287819
 C 0.9464 0.914 0.706   0.244334
 C 0.0945 0.8031 0.6108   0.234765
 C 0.0536 0.7596 0.9676   0.24433
 C 0.9055 0.5163 0.7086   0.234764
 C 0.792 0.706 0.7596   0.244339
 C 0.8077 0.6108 0.5163   0.234807
 C 0.208 0.9676 0.914   0.244369
 C 0.1923 0.7086 0.8031   0.234787
 C 0.0536 0.086 0.294   0.244335
 C 0.9055 0.1969 0.3892   0.234765
 C 0.9464 0.2404 0.0324   0.24433
 C 0.0945 0.4837 0.2914   0.234766
 C 0.208 0.294 0.2404   0.244339
 C 0.1923 0.3892 0.4837   0.234807
 C 0.792 0.0324 0.086   0.244369
 C 0.8077 0.2914 0.1969   0.234788
 N 0.9253 0.0056 0.6835   -0.504602
 N 0.1372 0.8329 0.5315   -0.509617
 N 0.0747 0.7582 0.0803   -0.504603
 N 0.8628 0.3943 0.6957   -0.509615
 N 0.6779 0.6835 0.7582   -0.504664
 N 0.6986 0.5315 0.3943   -0.509682
 N 0.3221 0.0803 0.0056   -0.504699
 N 0.3014 0.6957 0.8329   -0.509658
 N 0.0747 0.9944 0.3165   -0.504603
 N 0.8628 0.1671 0.4685   -0.509615
 N 0.9253 0.2418 0.9197   -0.504602
 N 0.1372 0.6057 0.3043   -0.509615
 N 0.3221 0.3165 0.2418   -0.504665
 N 0.3014 0.4685 0.6057   -0.509679
 N 0.6779 0.9197 0.9944   -0.504698
 N 0.6986 0.3043 0.1671   -0.509658
