{'_ref': 'TBD', '_srcid': 'CAKYAQ_clean', 'submitters': [{'name': 'Dalar Nazarian Jeff Camp and David Sholl', 'email': 'dalar@gatech.edu jcamp6@gatech.edu'}], '_method': 'VASP DFT with PBE;DDEC'}
data_Mn2Mo(CN)8
_symmetry_space_group_name_H-M   'P 1'
_cell_length_a   10.74349950
_cell_length_b   10.74350051
_cell_length_c   10.74350000
_cell_angle_alpha   103.56400085
_cell_angle_beta   112.50300019
_cell_angle_gamma   112.50299892
_symmetry_Int_Tables_number   1
_chemical_formula_structural   Mn2Mo(CN)8
_chemical_formula_sum   'Mn4 Mo2 C16 N16'
_cell_volume   947.087191299
_cell_formula_units_Z   2
loop_
 _symmetry_equiv_pos_site_id
 _symmetry_equiv_pos_as_xyz
  1  'x, y, z'
loop_
 _atom_site_label
 _atom_site_fract_x
 _atom_site_fract_y
 _atom_site_fract_z
 _atom_site_charge
 Mn 0.10956 0.30316 0.8064   1.21496
 Mn 0.89044 0.69684 0.1936   1.214996
 Mn 0.50324 0.8064 0.69684   1.215017
 Mn 0.49676 0.1936 0.30316   1.215051
 Mo 0.0 0.24813 0.24813   -0.288272
 Mo 0.0 0.75187 0.75187   -0.288272
 C 0.05306 0.2589 0.46776   0.243787
 C 0.09612 0.30341 0.11115   0.234758
 C 0.94694 0.4147 0.20584   0.243789
 C 0.90388 0.01503 0.20729   0.234758
 C 0.20886 0.46776 0.4147   0.243787
 C 0.80774 0.11115 0.01503   0.234774
 C 0.79114 0.20584 0.2589   0.243789
 C 0.19226 0.20729 0.30341   0.234756
 C 0.94694 0.7411 0.53224   0.243787
 C 0.90388 0.69659 0.88885   0.23476
 C 0.05306 0.5853 0.79416   0.243787
 C 0.09612 0.98497 0.79271   0.234757
 C 0.79114 0.53224 0.5853   0.243788
 C 0.19226 0.88885 0.98497   0.234775
 C 0.20886 0.79416 0.7411   0.243787
 C 0.80774 0.79271 0.69659   0.234755
 N 0.07376 0.25711 0.57993   -0.505381
 N 0.13946 0.33293 0.03319   -0.508558
 N 0.92624 0.50617 0.18335   -0.505385
 N 0.86054 0.89373 0.19347   -0.508557
 N 0.32282 0.57993 0.50617   -0.505443
 N 0.70026 0.03319 0.89373   -0.508604
 N 0.67718 0.18335 0.25711   -0.505436
 N 0.29974 0.19347 0.33293   -0.508577
 N 0.92624 0.74289 0.42007   -0.505384
 N 0.86054 0.66707 0.96681   -0.50856
 N 0.07376 0.49383 0.81665   -0.505382
 N 0.13946 0.10627 0.80653   -0.508553
 N 0.67718 0.42007 0.49383   -0.505446
 N 0.29974 0.96681 0.10627   -0.508605
 N 0.32282 0.81665 0.74289   -0.505433
 N 0.70026 0.80653 0.66707   -0.508573
