{'_ref': 'TBD', '_srcid': 'CAKYAQ_clean', 'submitters': [{'name': 'Dalar Nazarian Jeff Camp and David Sholl', 'email': 'dalar@gatech.edu jcamp6@gatech.edu'}], '_method': 'VASP DFT with PBE;DDEC'}
data_GaH4C8O5
_symmetry_space_group_name_H-M   'P 1'
_cell_length_a   6.68120016
_cell_length_b   15.16420000
_cell_length_c   19.23950000
_cell_angle_alpha   90.00000000
_cell_angle_beta   95.91579871
_cell_angle_gamma   90.00000000
_symmetry_Int_Tables_number   1
_chemical_formula_structural   GaH4C8O5
_chemical_formula_sum   'Ga8 H32 C64 O40'
_cell_volume   1938.87014836
_cell_formula_units_Z   8
loop_
 _symmetry_equiv_pos_site_id
 _symmetry_equiv_pos_as_xyz
  1  'x, y, z'
loop_
 _atom_site_label
 _atom_site_fract_x
 _atom_site_fract_y
 _atom_site_fract_z
 _atom_site_charge
 Ga 0.01928 0.25396 0.50432   1.465544
 Ga 0.48072 0.75396 0.49568   1.465544
 Ga 0.98072 0.74604 0.49568   1.46553
 Ga 0.51928 0.24604 0.50432   1.46553
 Ga 0.5 0.0 0.0   1.529004
 Ga 0.0 0.5 0.0   1.529004
 Ga 0.0 0.0 0.0   1.450265
 Ga 0.5 0.5 0.0   1.450265
 H 0.08149 0.09372 0.21268   0.104495
 H 0.05727 0.12474 0.33119   0.11772
 H 0.44831 0.14273 0.29176   0.108146
 H 0.47252 0.11171 0.17324   0.118942
 H 0.0601 0.17689 0.71918   0.104422
 H 0.02772 0.14363 0.8368   0.120024
 H 0.44732 0.06812 0.78401   0.103177
 H 0.4797 0.10139 0.66639   0.122463
 H 0.41851 0.59372 0.78732   0.104495
 H 0.44273 0.62474 0.66881   0.11772
 H 0.05169 0.64273 0.70824   0.108146
 H 0.02748 0.61171 0.82676   0.118942
 H 0.4399 0.67689 0.28082   0.104422
 H 0.47228 0.64363 0.1632   0.120024
 H 0.05268 0.56812 0.21599   0.103177
 H 0.0203 0.60139 0.33361   0.122463
 H 0.91851 0.90628 0.78732   0.104496
 H 0.94273 0.87526 0.66881   0.11772
 H 0.55169 0.85727 0.70824   0.108146
 H 0.52748 0.88829 0.82676   0.118943
 H 0.9399 0.82311 0.28082   0.104422
 H 0.97228 0.85637 0.1632   0.120024
 H 0.55268 0.93188 0.21599   0.103177
 H 0.5203 0.89861 0.33361   0.122463
 H 0.58149 0.40628 0.21268   0.104496
 H 0.55727 0.37526 0.33119   0.11772
 H 0.94831 0.35727 0.29176   0.108146
 H 0.97252 0.38829 0.17324   0.118943
 H 0.5601 0.32311 0.71918   0.104422
 H 0.52772 0.35637 0.8368   0.120024
 H 0.94732 0.43188 0.78401   0.103177
 H 0.9797 0.39861 0.66639   0.122463
 C 0.77902 0.10014 0.18313   -0.109392
 C 0.94947 0.10394 0.22917   -0.059067
 C 0.93535 0.12202 0.29826   -0.059837
 C 0.75078 0.13631 0.32131   -0.096145
 C 0.58033 0.13251 0.27527   -0.067512
 C 0.59445 0.11442 0.20618   -0.053035
 C 0.79427 0.0806 0.10849   0.703557
 C 0.73553 0.15584 0.39595   0.684635
 C 0.77259 0.1419 0.68303   -0.10487
 C 0.93233 0.15421 0.7327   -0.061375
 C 0.91345 0.13482 0.80127   -0.05639
 C 0.73483 0.10312 0.82016   -0.102512
 C 0.57509 0.0908 0.77049   -0.065558
 C 0.59397 0.11019 0.70192   -0.052177
 C 0.79299 0.16285 0.60896   0.696481
 C 0.71443 0.08217 0.89423   0.68088
 C 0.72098 0.60014 0.81687   -0.109392
 C 0.55053 0.60394 0.77083   -0.059067
 C 0.56465 0.62202 0.70174   -0.059837
 C 0.74922 0.63631 0.67869   -0.096145
 C 0.91967 0.63251 0.72473   -0.067512
 C 0.90555 0.61442 0.79382   -0.053035
 C 0.70573 0.5806 0.89151   0.703557
 C 0.76447 0.65584 0.60405   0.684635
 C 0.72741 0.6419 0.31697   -0.10487
 C 0.56767 0.65421 0.2673   -0.061375
 C 0.58655 0.63482 0.19873   -0.05639
 C 0.76517 0.60312 0.17984   -0.102512
 C 0.92491 0.5908 0.22951   -0.065558
 C 0.90603 0.61019 0.29808   -0.052177
 C 0.70701 0.66285 0.39104   0.696481
 C 0.78557 0.58217 0.10577   0.68088
 C 0.22098 0.89986 0.81687   -0.10939
 C 0.05053 0.89606 0.77083   -0.059071
 C 0.06465 0.87798 0.70174   -0.059843
 C 0.24922 0.86369 0.67869   -0.096145
 C 0.41967 0.86749 0.72473   -0.067508
 C 0.40555 0.88558 0.79382   -0.053044
 C 0.20573 0.9194 0.89151   0.703554
 C 0.26447 0.84416 0.60405   0.684635
 C 0.22741 0.8581 0.31697   -0.104871
 C 0.06767 0.84579 0.2673   -0.061374
 C 0.08655 0.86518 0.19873   -0.056392
 C 0.26517 0.89688 0.17984   -0.102512
 C 0.42491 0.9092 0.22951   -0.065558
 C 0.40603 0.88981 0.29808   -0.052175
 C 0.20701 0.83715 0.39104   0.696477
 C 0.28557 0.91783 0.10577   0.680879
 C 0.27902 0.39986 0.18313   -0.10939
 C 0.44947 0.39606 0.22917   -0.059071
 C 0.43535 0.37798 0.29826   -0.059843
 C 0.25078 0.36369 0.32131   -0.096145
 C 0.08033 0.36749 0.27527   -0.067508
 C 0.09445 0.38558 0.20618   -0.053044
 C 0.29427 0.4194 0.10849   0.703554
 C 0.23553 0.34416 0.39595   0.684635
 C 0.27259 0.3581 0.68303   -0.104871
 C 0.43233 0.34579 0.7327   -0.061374
 C 0.41345 0.36518 0.80127   -0.056392
 C 0.23483 0.39688 0.82016   -0.102512
 C 0.07509 0.4092 0.77049   -0.065558
 C 0.09397 0.38981 0.70192   -0.052175
 C 0.29299 0.33715 0.60896   0.696477
 C 0.21443 0.41783 0.89423   0.680879
 O 0.2718 0.189 0.501   -0.582875
 O 0.2465 0.0636 0.000100000000003   -0.552751
 O 0.96508 0.06603 0.08732   -0.575877
 O 0.63655 0.07842 0.06561   -0.590601
 O 0.893 0.15703 0.43897   -0.562837
 O 0.56497 0.17142 0.41697   -0.560774
 O 0.95851 0.19231 0.59145   -0.580198
 O 0.64496 0.15135 0.5629   -0.573304
 O 0.85933 0.09747 0.94074   -0.579921
 O 0.55204 0.0489 0.91129   -0.573102
 O 0.2282 0.689 0.499   -0.582875
 O 0.2535 0.5636 0.9999   -0.552751
 O 0.53492 0.56603 0.91268   -0.575877
 O 0.86345 0.57842 0.93439   -0.590601
 O 0.607 0.65703 0.56103   -0.562837
 O 0.93503 0.67142 0.58303   -0.560774
 O 0.54149 0.69231 0.40855   -0.580198
 O 0.85504 0.65135 0.4371   -0.573304
 O 0.64067 0.59747 0.05926   -0.579921
 O 0.94796 0.5489 0.08871   -0.573102
 O 0.7282 0.811 0.499   -0.582875
 O 0.7535 0.9364 0.9999   -0.552751
 O 0.03492 0.93397 0.91268   -0.575877
 O 0.36345 0.92158 0.93439   -0.590599
 O 0.107 0.84297 0.56103   -0.562835
 O 0.43503 0.82858 0.58303   -0.560775
 O 0.04149 0.80769 0.40855   -0.580196
 O 0.35504 0.84865 0.4371   -0.573304
 O 0.14067 0.90253 0.05926   -0.579921
 O 0.44796 0.9511 0.08871   -0.573099
 O 0.7718 0.311 0.501   -0.582875
 O 0.7465 0.4364 0.000100000000003   -0.552751
 O 0.46508 0.43397 0.08732   -0.575877
 O 0.13655 0.42158 0.06561   -0.590599
 O 0.393 0.34297 0.43897   -0.562835
 O 0.06497 0.32858 0.41697   -0.560775
 O 0.45851 0.30769 0.59145   -0.580196
 O 0.14496 0.34865 0.5629   -0.573304
 O 0.35933 0.40253 0.94074   -0.579921
 O 0.05204 0.4511 0.91129   -0.573099
