{'_ref': 'TBD', '_srcid': 'CAKYAQ_clean', 'submitters': [{'name': 'Dalar Nazarian Jeff Camp and David Sholl', 'email': 'dalar@gatech.edu jcamp6@gatech.edu'}], '_method': 'VASP DFT with PBE;DDEC'}
data_CdH2C3O4
_symmetry_space_group_name_H-M   'P 1'
_cell_length_a   10.69009978
_cell_length_b   10.69009984
_cell_length_c   10.69010000
_cell_angle_alpha   105.94199966
_cell_angle_beta   105.94199975
_cell_angle_gamma   105.94199863
_symmetry_Int_Tables_number   1
_chemical_formula_structural   CdH2C3O4
_chemical_formula_sum   'Cd6 H12 C18 O24'
_cell_volume   1045.37285174
_cell_formula_units_Z   6
loop_
 _symmetry_equiv_pos_site_id
 _symmetry_equiv_pos_as_xyz
  1  'x, y, z'
loop_
 _atom_site_label
 _atom_site_fract_x
 _atom_site_fract_y
 _atom_site_fract_z
 _atom_site_charge
 Cd 0.75065 0.48516 0.21557   1.155325
 Cd 0.21557 0.75065 0.48516   1.155325
 Cd 0.48516 0.21557 0.75065   1.155325
 Cd 0.24935 0.51484 0.78443   1.155326
 Cd 0.78443 0.24935 0.51484   1.155326
 Cd 0.51484 0.78443 0.24935   1.155326
 H 0.3648 0.1446 0.1996   0.180945
 H 0.4403 0.2109 0.3635   0.183013
 H 0.1996 0.3648 0.1446   0.180947
 H 0.3635 0.4403 0.2109   0.18301
 H 0.1446 0.1996 0.3648   0.180949
 H 0.2109 0.3635 0.4403   0.183009
 H 0.6352 0.8554 0.8004   0.180949
 H 0.5597 0.7891 0.6365   0.183013
 H 0.8004 0.6352 0.8554   0.180951
 H 0.6365 0.5597 0.7891   0.18301
 H 0.8554 0.8004 0.6352   0.180952
 H 0.7891 0.6365 0.5597   0.183009
 C 0.566 0.2824 0.265   0.755539
 C 0.4813 0.038 0.2743   0.766489
 C 0.4525 0.1709 0.2767   -0.525534
 C 0.265 0.566 0.2824   0.755539
 C 0.2743 0.4813 0.038   0.766489
 C 0.2767 0.4525 0.1709   -0.525534
 C 0.2824 0.265 0.566   0.755539
 C 0.038 0.2743 0.4813   0.766489
 C 0.1709 0.2767 0.4525   -0.525534
 C 0.434 0.7176 0.735   0.755539
 C 0.5187 0.962 0.7257   0.766489
 C 0.5475 0.8291 0.7233   -0.525535
 C 0.735 0.434 0.7176   0.755539
 C 0.7257 0.5187 0.962   0.766489
 C 0.7233 0.5475 0.8291   -0.525535
 C 0.7176 0.735 0.434   0.755539
 C 0.962 0.7257 0.5187   0.766489
 C 0.8291 0.7233 0.5475   -0.525535
 O 0.6893 0.336 0.3554   -0.672744
 O 0.5926 0.0486 0.3657   -0.6647
 O 0.5321 0.3228 0.1664   -0.589121
 O 0.3947 0.9211 0.1835   -0.589214
 O 0.3554 0.6893 0.336   -0.672744
 O 0.3657 0.5926 0.0486   -0.6647
 O 0.1664 0.5321 0.3228   -0.589121
 O 0.1835 0.3947 0.9211   -0.589214
 O 0.336 0.3554 0.6893   -0.672744
 O 0.0486 0.3657 0.5926   -0.6647
 O 0.3228 0.1664 0.5321   -0.589121
 O 0.9211 0.1835 0.3947   -0.589214
 O 0.3107 0.664 0.6446   -0.672744
 O 0.4074 0.9514 0.6343   -0.664699
 O 0.4679 0.6772 0.8336   -0.58912
 O 0.6053 0.0789 0.8165   -0.589214
 O 0.6446 0.3107 0.664   -0.672744
 O 0.6343 0.4074 0.9514   -0.664699
 O 0.8336 0.4679 0.6772   -0.58912
 O 0.8165 0.6053 0.0789   -0.589214
 O 0.664 0.6446 0.3107   -0.672744
 O 0.9514 0.6343 0.4074   -0.664699
 O 0.6772 0.8336 0.4679   -0.589121
 O 0.0789 0.8165 0.6053   -0.589214
