{'_ref': 'TBD', '_srcid': 'CAKYAQ_clean', 'submitters': [{'name': 'Dalar Nazarian Jeff Camp and David Sholl', 'email': 'dalar@gatech.edu jcamp6@gatech.edu'}], '_method': 'VASP DFT with PBE;DDEC'}
data_NaCuH5C7SO7
_symmetry_space_group_name_H-M   'P 1'
_cell_length_a   11.23400031
_cell_length_b   11.57670016
_cell_length_c   11.57670000
_cell_angle_alpha   109.09800186
_cell_angle_beta   100.10000075
_cell_angle_gamma   100.09999761
_symmetry_Int_Tables_number   1
_chemical_formula_structural   NaCuH5C7SO7
_chemical_formula_sum   'Na4 Cu4 H20 C28 S4 O28'
_cell_volume   1356.12521114
_cell_formula_units_Z   4
loop_
 _symmetry_equiv_pos_site_id
 _symmetry_equiv_pos_as_xyz
  1  'x, y, z'
loop_
 _atom_site_label
 _atom_site_fract_x
 _atom_site_fract_y
 _atom_site_fract_z
 _atom_site_charge
 Na 0.75 0.1418 0.8582   0.95394
 Na 0.75 0.9507 0.0493   0.979845
 Na 0.25 0.8582 0.1418   0.95394
 Na 0.25 0.0493 0.9507   0.979845
 Cu 0.0193 0.1653 0.7757   0.887521
 Cu 0.4807 0.2243 0.8347   0.887521
 Cu 0.9807 0.8347 0.2243   0.887518
 Cu 0.5193 0.7757 0.1653   0.887518
 H 0.8581 0.9776 0.6606   0.453078
 H 0.9003 0.9641 0.7785   0.436056
 H 0.8615 0.353 0.1256   0.091255
 H 0.2513 0.6025 0.1809   0.126862
 H 0.2239 0.3904 0.1392   0.105592
 H 0.6419 0.3394 0.0224   0.453078
 H 0.5997 0.2215 0.0359   0.436056
 H 0.6385 0.8744 0.647   0.091256
 H 0.2487 0.8191 0.3975   0.126861
 H 0.2761 0.8608 0.6096   0.105592
 H 0.1419 0.0224 0.3394   0.453078
 H 0.0997 0.0359 0.2215   0.436056
 H 0.1385 0.647 0.8744   0.091255
 H 0.7487 0.3975 0.8191   0.126862
 H 0.7761 0.6096 0.8608   0.105592
 H 0.3581 0.6606 0.9776   0.453078
 H 0.4003 0.7785 0.9641   0.436056
 H 0.3615 0.1256 0.353   0.091256
 H 0.7513 0.1809 0.6025   0.126861
 H 0.7239 0.1392 0.3904   0.105592
 C 0.0361 0.3505 0.1225   -0.311725
 C 0.9388 0.4037 0.1333   0.086848
 C 0.9496 0.533 0.156   -0.343217
 C 0.0693 0.6112 0.1716   0.433805
 C 0.1716 0.5529 0.1669   -0.241956
 C 0.1559 0.4259 0.1425   0.059642
 C 0.8341 0.5798 0.152   0.725973
 C 0.4639 0.8775 0.6495   -0.311725
 C 0.5612 0.8667 0.5963   0.086848
 C 0.5504 0.844 0.467   -0.343217
 C 0.4307 0.8284 0.3888   0.433805
 C 0.3284 0.8331 0.4471   -0.241953
 C 0.3441 0.8575 0.5741   0.059643
 C 0.6659 0.848 0.4202   0.725975
 C 0.9639 0.6495 0.8775   -0.311724
 C 0.0612 0.5963 0.8667   0.08685
 C 0.0504 0.467 0.844   -0.343216
 C 0.9307 0.3888 0.8284   0.433805
 C 0.8284 0.4471 0.8331   -0.241956
 C 0.8441 0.5741 0.8575   0.059643
 C 0.1659 0.4202 0.848   0.725974
 C 0.5361 0.1225 0.3505   -0.311724
 C 0.4388 0.1333 0.4037   0.086849
 C 0.4496 0.156 0.533   -0.343217
 C 0.5693 0.1716 0.6112   0.433805
 C 0.6716 0.1669 0.5529   -0.241953
 C 0.6559 0.1425 0.4259   0.059644
 C 0.3341 0.152 0.5798   0.725976
 S 0.0163 0.1875 0.0851   1.485918
 S 0.4837 0.9149 0.8125   1.485919
 S 0.9837 0.8125 0.9149   1.485918
 S 0.5163 0.0851 0.1875   1.485918
 O 0.8824 0.1314 0.0398   -0.824187
 O 0.0817 0.1455 0.9869   -0.832543
 O 0.0715 0.1699 0.1997   -0.659382
 O 0.7304 0.5027 0.1265   -0.597175
 O 0.839 0.6953 0.1751   -0.582507
 O 0.0918 0.731 0.1886   -0.627843
 O 0.8773 0.0195 0.7365   -0.838914
 O 0.6176 0.9602 0.8686   -0.824187
 O 0.4183 0.0131 0.8545   -0.832543
 O 0.4285 0.8003 0.8301   -0.659383
 O 0.7696 0.8735 0.4973   -0.597175
 O 0.661 0.8249 0.3047   -0.582507
 O 0.4082 0.8114 0.269   -0.627843
 O 0.6227 0.2635 0.9805   -0.838915
 O 0.1176 0.8686 0.9602   -0.824187
 O 0.9183 0.8545 0.0131   -0.832543
 O 0.9285 0.8301 0.8003   -0.65938
 O 0.2696 0.4973 0.8735   -0.597173
 O 0.161 0.3047 0.8249   -0.582507
 O 0.9082 0.269 0.8114   -0.627843
 O 0.1227 0.9805 0.2635   -0.838914
 O 0.3824 0.0398 0.1314   -0.824187
 O 0.5817 0.9869 0.1455   -0.832543
 O 0.5715 0.1997 0.1699   -0.659381
 O 0.2304 0.1265 0.5027   -0.597173
 O 0.339 0.1751 0.6953   -0.582507
 O 0.5918 0.1886 0.731   -0.627843
 O 0.3773 0.7365 0.0195   -0.838914
