{'_ref': 'TBD', '_srcid': 'CAKYAQ_clean', 'submitters': [{'name': 'Dalar Nazarian Jeff Camp and David Sholl', 'email': 'dalar@gatech.edu jcamp6@gatech.edu'}], '_method': 'VASP DFT with PBE;DDEC'}
data_Cd3H6C18(NO2)4
_symmetry_space_group_name_H-M   'P 1'
_cell_length_a   9.16829975
_cell_length_b   9.16829985
_cell_length_c   16.02390000
_cell_angle_alpha   73.89789837
_cell_angle_beta   73.89789818
_cell_angle_gamma   72.32299863
_symmetry_Int_Tables_number   1
_chemical_formula_structural   Cd3H6C18(NO2)4
_chemical_formula_sum   'Cd6 H12 C36 N8 O16'
_cell_volume   1205.2342662
_cell_formula_units_Z   2
loop_
 _symmetry_equiv_pos_site_id
 _symmetry_equiv_pos_as_xyz
  1  'x, y, z'
loop_
 _atom_site_label
 _atom_site_fract_x
 _atom_site_fract_y
 _atom_site_fract_z
 _atom_site_charge
 Cd 0.75199 0.66863 0.15939   1.055289
 Cd 0.33137 0.24801 0.34061   1.05529
 Cd 0.24801 0.33137 0.84061   1.055285
 Cd 0.66863 0.75199 0.65939   1.055286
 Cd 0.01399 0.98601 0.25   1.049458
 Cd 0.98601 0.01399 0.75   1.049458
 H 0.6336 0.7312 0.9726   0.111619
 H 0.3934 0.8466 0.2583   0.082886
 H 0.1151 0.0289 0.0231   0.117814
 H 0.2688 0.3664 0.5274   0.111618
 H 0.1534 0.6066 0.2417   0.082885
 H 0.9711 0.8849 0.4769   0.117814
 H 0.3664 0.2688 0.0274   0.111619
 H 0.6066 0.1534 0.7417   0.082886
 H 0.8849 0.9711 0.9769   0.117814
 H 0.7312 0.6336 0.4726   0.111619
 H 0.8466 0.3934 0.7583   0.082885
 H 0.0289 0.1151 0.5231   0.117814
 C 0.5278 0.8056 0.8256   0.645279
 C 0.4475 0.8441 0.9144   -0.085972
 C 0.5306 0.7904 0.9825   -0.12492
 C 0.4575 0.8265 0.0651   0.153706
 C 0.3888 0.8538 0.2   0.360366
 C 0.3028 0.9134 0.0808   0.195535
 C 0.2183 0.9701 0.0129   -0.20027
 C 0.2921 0.9363 0.9307   -0.098753
 C 0.1919 0.9907 0.8625   0.681026
 C 0.1944 0.4722 0.6744   0.645279
 C 0.1559 0.5525 0.5856   -0.085972
 C 0.2096 0.4694 0.5175   -0.12492
 C 0.1735 0.5425 0.4349   0.153706
 C 0.1462 0.6112 0.3   0.360367
 C 0.0866 0.6972 0.4192   0.195535
 C 0.0299 0.7817 0.4871   -0.20027
 C 0.0637 0.7079 0.5693   -0.098753
 C 0.0093 0.8081 0.6375   0.681026
 C 0.4722 0.1944 0.1744   0.645279
 C 0.5525 0.1559 0.0856   -0.085972
 C 0.4694 0.2096 0.0175   -0.12492
 C 0.5425 0.1735 0.9349   0.153706
 C 0.6112 0.1462 0.8   0.360366
 C 0.6972 0.0866 0.9192   0.195535
 C 0.7817 0.0299 0.9871   -0.20027
 C 0.7079 0.0637 0.0693   -0.098753
 C 0.8081 0.0093 0.1375   0.681026
 C 0.8056 0.5278 0.3256   0.645279
 C 0.8441 0.4475 0.4144   -0.085972
 C 0.7904 0.5306 0.4825   -0.12492
 C 0.8265 0.4575 0.5651   0.153706
 C 0.8538 0.3888 0.7   0.360367
 C 0.9134 0.3028 0.5808   0.195535
 C 0.9701 0.2183 0.5129   -0.20027
 C 0.9363 0.2921 0.4307   -0.098753
 C 0.9907 0.1919 0.3625   0.681026
 N 0.5107 0.7897 0.1425   -0.525243
 N 0.2595 0.9293 0.1681   -0.516308
 N 0.2103 0.4893 0.3575   -0.525243
 N 0.0707 0.7405 0.3319   -0.516309
 N 0.4893 0.2103 0.8575   -0.525243
 N 0.7405 0.0707 0.8319   -0.516308
 N 0.7897 0.5107 0.6425   -0.525243
 N 0.9293 0.2595 0.6681   -0.516308
 O 0.642 0.6868 0.8212   -0.600711
 O 0.4828 0.8946 0.7573   -0.576791
 O 0.1432 0.1348 0.8328   -0.626342
 O 0.1533 0.8883 0.8398   -0.572936
 O 0.3132 0.358 0.6788   -0.600711
 O 0.1054 0.5172 0.7427   -0.57679
 O 0.8652 0.8568 0.6672   -0.626343
 O 0.1117 0.8467 0.6602   -0.572935
 O 0.358 0.3132 0.1788   -0.600711
 O 0.5172 0.1054 0.2427   -0.576791
 O 0.8568 0.8652 0.1672   -0.626343
 O 0.8467 0.1117 0.1602   -0.572936
 O 0.6868 0.642 0.3212   -0.600711
 O 0.8946 0.4828 0.2573   -0.576791
 O 0.1348 0.1432 0.3328   -0.626343
 O 0.8883 0.1533 0.3398   -0.572935
