{'_ref': 'TBD', '_srcid': 'CAKYAQ_clean', 'submitters': [{'name': 'Dalar Nazarian Jeff Camp and David Sholl', 'email': 'dalar@gatech.edu jcamp6@gatech.edu'}], '_method': 'VASP DFT with PBE;DDEC'}
data_CdH4(C2N3)2
_symmetry_space_group_name_H-M   'P 1'
_cell_length_a   13.14889963
_cell_length_b   13.14889995
_cell_length_c   13.14890000
_cell_angle_alpha   59.99999987
_cell_angle_beta   59.99999906
_cell_angle_gamma   60.00000164
_symmetry_Int_Tables_number   1
_chemical_formula_structural   CdH4(C2N3)2
_chemical_formula_sum   'Cd6 H24 C24 N36'
_cell_volume   1607.50842406
_cell_formula_units_Z   6
loop_
 _symmetry_equiv_pos_site_id
 _symmetry_equiv_pos_as_xyz
  1  'x, y, z'
loop_
 _atom_site_label
 _atom_site_fract_x
 _atom_site_fract_y
 _atom_site_fract_z
 _atom_site_charge
 Cd 0.5 0.5 0.5   0.670956
 Cd 0.0 0.0 0.5   0.670956
 Cd 0.0 0.5 0.0   0.670957
 Cd 0.0 0.5 0.5   0.670958
 Cd 0.125 0.625 0.625   0.554308
 Cd 0.875 0.375 0.375   0.554308
 H 0.4954 0.3474 0.8098   0.116427
 H 0.8474 0.9954 0.3474   0.116427
 H 0.3098 0.3474 0.9954   0.116424
 H 0.8474 0.8098 0.3474   0.116425
 H 0.4954 0.8098 0.3474   0.116427
 H 0.8474 0.3474 0.8098   0.116427
 H 0.3098 0.9954 0.3474   0.116424
 H 0.8474 0.3474 0.9954   0.116425
 H 0.4954 0.3474 0.3474   0.116427
 H 0.8474 0.8098 0.9954   0.116427
 H 0.3098 0.3474 0.3474   0.116425
 H 0.8474 0.9954 0.8098   0.116425
 H 0.1526 0.0046 0.1902   0.116427
 H 0.5046 0.6526 0.6526   0.116427
 H 0.1526 0.1902 0.0046   0.116424
 H 0.6902 0.6526 0.6526   0.116425
 H 0.6902 0.0046 0.6526   0.116427
 H 0.1526 0.6526 0.1902   0.116427
 H 0.5046 0.1902 0.6526   0.116425
 H 0.1526 0.6526 0.0046   0.116425
 H 0.1526 0.0046 0.6526   0.116427
 H 0.6902 0.6526 0.0046   0.116427
 H 0.1526 0.1902 0.6526   0.116425
 H 0.5046 0.6526 0.1902   0.116425
 C 0.4133 0.3877 0.8113   -0.052676
 C 0.8877 0.9133 0.3877   -0.052676
 C 0.3113 0.3877 0.9133   -0.052647
 C 0.8877 0.8113 0.3877   -0.052646
 C 0.4133 0.8113 0.3877   -0.052677
 C 0.8877 0.3877 0.8113   -0.052676
 C 0.3113 0.9133 0.3877   -0.052647
 C 0.8877 0.3877 0.9133   -0.052647
 C 0.4133 0.3877 0.3877   -0.052677
 C 0.8877 0.8113 0.9133   -0.052676
 C 0.3113 0.3877 0.3877   -0.052646
 C 0.8877 0.9133 0.8113   -0.052647
 C 0.1123 0.0867 0.1887   -0.052676
 C 0.5867 0.6123 0.6123   -0.052676
 C 0.1123 0.1887 0.0867   -0.052648
 C 0.6887 0.6123 0.6123   -0.052647
 C 0.6887 0.0867 0.6123   -0.052677
 C 0.1123 0.6123 0.1887   -0.052676
 C 0.5867 0.1887 0.6123   -0.052647
 C 0.1123 0.6123 0.0867   -0.052648
 C 0.1123 0.0867 0.6123   -0.052677
 C 0.6887 0.6123 0.0867   -0.052677
 C 0.1123 0.1887 0.6123   -0.052646
 C 0.5867 0.6123 0.1887   -0.052647
 N 0.3748 0.4578 0.7096   -0.213879
 N 0.9578 0.8748 0.4578   -0.213879
 N 0.2096 0.4578 0.8748   -0.213884
 N 0.9578 0.7096 0.4578   -0.213884
 N 0.3748 0.7096 0.4578   -0.213879
 N 0.9578 0.4578 0.7096   -0.21388
 N 0.2096 0.8748 0.4578   -0.213883
 N 0.9578 0.4578 0.8748   -0.213883
 N 0.3748 0.4578 0.4578   -0.213879
 N 0.9578 0.7096 0.8748   -0.213879
 N 0.2096 0.4578 0.4578   -0.213884
 N 0.9578 0.8748 0.7096   -0.213883
 N 0.0422 0.1252 0.2904   -0.213879
 N 0.6252 0.5422 0.5422   -0.213879
 N 0.0422 0.2904 0.1252   -0.213884
 N 0.7904 0.5422 0.5422   -0.213884
 N 0.7904 0.1252 0.5422   -0.213879
 N 0.0422 0.5422 0.2904   -0.21388
 N 0.6252 0.2904 0.5422   -0.213883
 N 0.0422 0.5422 0.1252   -0.213883
 N 0.0422 0.1252 0.5422   -0.213879
 N 0.7904 0.5422 0.1252   -0.213879
 N 0.0422 0.2904 0.5422   -0.213884
 N 0.6252 0.5422 0.2904   -0.213883
 N 0.2521 0.4979 0.7521   -0.015802
 N 0.9979 0.7521 0.4979   -0.015802
 N 0.2521 0.7521 0.4979   -0.015802
 N 0.9979 0.4979 0.7521   -0.015802
 N 0.2521 0.4979 0.4979   -0.015802
 N 0.9979 0.7521 0.7521   -0.015802
 N 0.0021 0.2479 0.2479   -0.015802
 N 0.7479 0.5021 0.5021   -0.015802
 N 0.7479 0.2479 0.5021   -0.015802
 N 0.0021 0.5021 0.2479   -0.015802
 N 0.0021 0.2479 0.5021   -0.015802
 N 0.7479 0.5021 0.2479   -0.015802
