{'_ref': 'TBD', '_srcid': 'CAKYAQ_clean', 'submitters': [{'name': 'Dalar Nazarian Jeff Camp and David Sholl', 'email': 'dalar@gatech.edu jcamp6@gatech.edu'}], '_method': 'VASP DFT with PBE;DDEC'}
data_Cd2H32C41(NO3)4
_symmetry_space_group_name_H-M   'P 1'
_cell_length_a   14.57390044
_cell_length_b   20.64659999
_cell_length_c   20.64660000
_cell_angle_alpha   60.80350082
_cell_angle_beta   69.33290017
_cell_angle_gamma   69.33290160
_symmetry_Int_Tables_number   1
_chemical_formula_structural   Cd2H32C41(NO3)4
_chemical_formula_sum   'Cd8 H128 C164 N16 O48'
_cell_volume   4948.44698469
_cell_formula_units_Z   4
loop_
 _symmetry_equiv_pos_site_id
 _symmetry_equiv_pos_as_xyz
  1  'x, y, z'
loop_
 _atom_site_label
 _atom_site_fract_x
 _atom_site_fract_y
 _atom_site_fract_z
 _atom_site_charge
 Cd 0.20478 0.70986 0.08422   0.98606
 Cd 0.00114 0.58422 0.20986   0.986058
 Cd 0.70478 0.08422 0.70986   0.986059
 Cd 0.50114 0.20986 0.58422   0.986058
 Cd 0.29522 0.91578 0.29014   0.986059
 Cd 0.49886 0.79014 0.41578   0.986058
 Cd 0.79522 0.29014 0.91578   0.98606
 Cd 0.99886 0.41578 0.79014   0.986058
 H 0.4745 0.8528 0.9266   0.10067
 H 0.5405 0.9552 0.8286   0.106327
 H 0.2843 0.0424 0.7554   0.080078
 H 0.2204 0.9398 0.851   0.100769
 H 0.2158 0.6929 0.9361   0.077936
 H 0.2846 0.6151 0.8727   0.158701
 H 0.4236 0.4665 0.0419   0.157745
 H 0.3547 0.5507 0.0965   0.067704
 H 0.4072 0.4934 0.8202   0.077601
 H 0.2984 0.5119 0.8679   0.064443
 H 0.5005 0.3625 0.8471   0.064393
 H 0.4859 0.3418 0.9336   0.088336
 H 0.4265 0.1518 0.924   0.157438
 H 0.5175 0.0868 0.8492   0.078549
 H 0.6946 0.227 0.7352   0.068732
 H 0.6131 0.2929 0.8097   0.150361
 H 0.7461 0.4266 0.3528   0.101307
 H 0.6757 0.3286 0.4552   0.105856
 H 0.9179 0.2554 0.5424   0.079607
 H 0.9888 0.351 0.4398   0.100847
 H 0.1552 0.4361 0.1929   0.078662
 H 0.2276 0.3727 0.1151   0.159576
 H 0.068 0.5419 0.9665   0.157991
 H 0.9981 0.5965 0.0507   0.066987
 H 0.2792 0.3202 0.9934   0.076571
 H 0.3218 0.3679 0.0119   0.064863
 H 0.2899 0.3471 0.8625   0.064078
 H 0.2387 0.4336 0.8418   0.087224
 H 0.4977 0.424 0.6518   0.157892
 H 0.5465 0.3492 0.5868   0.077848
 H 0.3432 0.2352 0.727   0.069836
 H 0.2843 0.3097 0.7929   0.151161
 H 0.9745 0.9266 0.8528   0.10067
 H 0.0405 0.8286 0.9552   0.106327
 H 0.7843 0.7554 0.0424   0.080078
 H 0.7204 0.851 0.9398   0.100769
 H 0.7158 0.9361 0.6929   0.077936
 H 0.7846 0.8727 0.6151   0.158701
 H 0.9236 0.0419 0.4665   0.157745
 H 0.8547 0.0965 0.5507   0.067704
 H 0.9072 0.8202 0.4934   0.077601
 H 0.7984 0.8679 0.5119   0.064443
 H 0.000500000000002 0.8471 0.3625   0.064393
 H 0.9859 0.9336 0.3418   0.088336
 H 0.9265 0.924 0.1518   0.157438
 H 0.0175 0.8492 0.0868   0.078549
 H 0.1946 0.7352 0.227   0.068732
 H 0.1131 0.8097 0.2929   0.150361
 H 0.2461 0.3528 0.4266   0.101306
 H 0.1757 0.4552 0.3286   0.105855
 H 0.4179 0.5424 0.2554   0.079607
 H 0.4888 0.4398 0.351   0.100846
 H 0.6552 0.1929 0.4361   0.078662
 H 0.7276 0.1151 0.3727   0.159576
 H 0.568 0.9665 0.5419   0.157991
 H 0.4981 0.0507 0.5965   0.066987
 H 0.7792 0.9934 0.3202   0.076571
 H 0.8218 0.0119 0.3679   0.064863
 H 0.7899 0.8625 0.3471   0.064078
 H 0.7387 0.8418 0.4336   0.087224
 H 0.9977 0.6518 0.424   0.157892
 H 0.0465 0.5868 0.3492   0.077848
 H 0.8432 0.727 0.2352   0.069836
 H 0.7843 0.7929 0.3097   0.151161
 H 0.0255 0.0734 0.1472   0.10067
 H 0.9595 0.1714 0.0448   0.106327
 H 0.2157 0.2446 0.9576   0.080078
 H 0.2796 0.149 0.0602   0.100769
 H 0.2842 0.0639 0.3071   0.077936
 H 0.2154 0.1273 0.3849   0.158701
 H 0.0764 0.9581 0.5335   0.157745
 H 0.1453 0.9035 0.4493   0.067704
 H 0.0928 0.1798 0.5066   0.077601
 H 0.2016 0.1321 0.4881   0.064443
 H 0.9995 0.1529 0.6375   0.064393
 H 0.0141 0.0664 0.6582   0.088336
 H 0.0735 0.076 0.8482   0.157439
 H 0.9825 0.1508 0.9132   0.078549
 H 0.8054 0.2648 0.773   0.068732
 H 0.8869 0.1903 0.7071   0.150361
 H 0.7539 0.6472 0.5734   0.101306
 H 0.8243 0.5448 0.6714   0.105856
 H 0.5821 0.4576 0.7446   0.079607
 H 0.5112 0.5602 0.649   0.100846
 H 0.3448 0.8071 0.5639   0.078662
 H 0.2724 0.8849 0.6273   0.159576
 H 0.432 0.0335 0.4581   0.157991
 H 0.5019 0.9493 0.4035   0.066987
 H 0.2208 0.0066 0.6798   0.076571
 H 0.1782 0.9881 0.6321   0.064863
 H 0.2101 0.1375 0.6529   0.064078
 H 0.2613 0.1582 0.5664   0.087224
 H 0.0023 0.3482 0.576   0.157892
 H 0.9535 0.4132 0.6508   0.077848
 H 0.1568 0.273 0.7648   0.069836
 H 0.2157 0.2071 0.6903   0.15116
 H 0.5255 0.1472 0.0734   0.100669
 H 0.4595 0.0448 0.1714   0.106327
 H 0.7157 0.9576 0.2446   0.080078
 H 0.7796 0.0602 0.149   0.100769
 H 0.7842 0.3071 0.0639   0.077936
 H 0.7154 0.3849 0.1273   0.158701
 H 0.5764 0.5335 0.9581   0.157745
 H 0.6453 0.4493 0.9035   0.067704
 H 0.5928 0.5066 0.1798   0.077601
 H 0.7016 0.4881 0.1321   0.064443
 H 0.4995 0.6375 0.1529   0.064393
 H 0.5141 0.6582 0.0664   0.088336
 H 0.5735 0.8482 0.076   0.157439
 H 0.4825 0.9132 0.1508   0.078549
 H 0.3054 0.773 0.2648   0.068732
 H 0.3869 0.7071 0.1903   0.150361
 H 0.2539 0.5734 0.6472   0.101306
 H 0.3243 0.6714 0.5448   0.105855
 H 0.0821 0.7446 0.4576   0.079607
 H 0.0112 0.649 0.5602   0.100846
 H 0.8448 0.5639 0.8071   0.078662
 H 0.7724 0.6273 0.8849   0.159576
 H 0.932 0.4581 0.0335   0.157991
 H 0.0019 0.4035 0.9493   0.066987
 H 0.7208 0.6798 0.0066   0.076571
 H 0.6782 0.6321 0.9881   0.064863
 H 0.7101 0.6529 0.1375   0.064078
 H 0.7613 0.5664 0.1582   0.087224
 H 0.5023 0.576 0.3482   0.157892
 H 0.4535 0.6508 0.4132   0.077848
 H 0.6568 0.7648 0.273   0.069836
 H 0.7157 0.6903 0.2071   0.15116
 C 0.29573 0.82054 0.9641   0.642725
 C 0.34123 0.88578 0.89898   -0.098509
 C 0.43636 0.89087 0.89183   -0.0671
 C 0.47604 0.95239 0.83325   -0.061413
 C 0.41883 0.0093 0.782   -0.139445
 C 0.32302 0.00399 0.78961   -0.071336
 C 0.28443 0.943 0.8469   -0.084524
 C 0.45744 0.07765 0.71825   0.656216
 C 0.25879 0.64666 0.95776   0.225594
 C 0.29887 0.60009 0.91917   -0.346632
 C 0.3602 0.53115 0.95205   0.352459
 C 0.38136 0.51271 0.01877   -0.324453
 C 0.33906 0.56354 0.05114   0.21093
 C 0.36377 0.47713 0.87053   0.082543
 C 0.45662 0.34388 0.89688   0.084575
 C 0.50759 0.23106 0.87316   0.371608
 C 0.4813 0.16836 0.88544   -0.318872
 C 0.53667 0.1295 0.84016   0.208978
 C 0.64017 0.21102 0.77436   0.205409
 C 0.59066 0.25209 0.81779   -0.317304
 C 0.91963 0.4641 0.32054   0.642413
 C 0.87401 0.39898 0.38578   -0.097583
 C 0.78094 0.39183 0.39087   -0.069718
 C 0.73832 0.33325 0.45239   -0.059721
 C 0.78987 0.282 0.5093   -0.144272
 C 0.88338 0.28961 0.50399   -0.067094
 C 0.92567 0.3469 0.443   -0.084575
 C 0.74666 0.21825 0.57765   0.657149
 C 0.13679 0.45776 0.14666   0.224697
 C 0.18187 0.41917 0.10009   -0.347679
 C 0.1566 0.45205 0.03115   0.351566
 C 0.08716 0.51877 0.01271   -0.324802
 C 0.04626 0.55114 0.06354   0.211588
 C 0.28857 0.37053 0.97713   0.08503
 C 0.30262 0.39688 0.84388   0.086869
 C 0.38819 0.37316 0.73106   0.374193
 C 0.4649 0.38544 0.66836   -0.319271
 C 0.49367 0.34016 0.6295   0.20926
 C 0.37445 0.27436 0.71102   0.20505
 C 0.33946 0.31779 0.75209   -0.32052
 C 0.79573 0.9641 0.82054   0.642726
 C 0.84123 0.89898 0.88578   -0.098509
 C 0.93636 0.89183 0.89087   -0.0671
 C 0.97604 0.83325 0.95239   -0.061413
 C 0.91883 0.782 0.0093   -0.139445
 C 0.82302 0.78961 0.00399   -0.071336
 C 0.78443 0.8469 0.943   -0.084524
 C 0.95744 0.71825 0.07765   0.656216
 C 0.75879 0.95776 0.64666   0.225594
 C 0.79887 0.91917 0.60009   -0.346633
 C 0.8602 0.95205 0.53115   0.352459
 C 0.88136 0.01877 0.51271   -0.324453
 C 0.83906 0.05114 0.56354   0.21093
 C 0.86377 0.87053 0.47713   0.082543
 C 0.95662 0.89688 0.34388   0.084575
 C 0.00759 0.87316 0.23106   0.371608
 C 0.9813 0.88544 0.16836   -0.318872
 C 0.03667 0.84016 0.1295   0.208979
 C 0.14017 0.77436 0.21102   0.205409
 C 0.09066 0.81779 0.25209   -0.317304
 C 0.41963 0.32054 0.4641   0.642413
 C 0.37401 0.38578 0.39898   -0.097583
 C 0.28094 0.39087 0.39183   -0.069718
 C 0.23832 0.45239 0.33325   -0.059721
 C 0.28987 0.5093 0.282   -0.144272
 C 0.38338 0.50399 0.28961   -0.067094
 C 0.42567 0.443 0.3469   -0.084575
 C 0.24666 0.57765 0.21825   0.657149
 C 0.63679 0.14666 0.45776   0.224698
 C 0.68187 0.10009 0.41917   -0.347679
 C 0.6566 0.03115 0.45205   0.351566
 C 0.58716 0.01271 0.51877   -0.324802
 C 0.54626 0.06354 0.55114   0.211588
 C 0.78857 0.97713 0.37053   0.08503
 C 0.80262 0.84388 0.39688   0.086869
 C 0.88819 0.73106 0.37316   0.374193
 C 0.9649 0.66836 0.38544   -0.319271
 C 0.99367 0.6295 0.34016   0.20926
 C 0.87445 0.71102 0.27436   0.20505
 C 0.83946 0.75209 0.31779   -0.32052
 C 0.35314 0.39686 0.89686   -0.097884
 C 0.85314 0.89686 0.39686   -0.097884
 C 0.20427 0.0359 0.17946   0.642726
 C 0.15877 0.10102 0.11422   -0.098509
 C 0.06364 0.10817 0.10913   -0.067099
 C 0.02396 0.16675 0.04761   -0.061413
 C 0.08117 0.218 0.9907   -0.139445
 C 0.17698 0.21039 0.99601   -0.071336
 C 0.21557 0.1531 0.057   -0.084524
 C 0.04256 0.28175 0.92235   0.656216
 C 0.24121 0.04224 0.35334   0.225594
 C 0.20113 0.08083 0.39991   -0.346633
 C 0.1398 0.04795 0.46885   0.352459
 C 0.11864 0.98123 0.48729   -0.324453
 C 0.16094 0.94886 0.43646   0.21093
 C 0.13623 0.12947 0.52287   0.082543
 C 0.04338 0.10312 0.65612   0.084575
 C 0.99241 0.12684 0.76894   0.371608
 C 0.0187 0.11456 0.83164   -0.318872
 C 0.96333 0.15984 0.8705   0.208978
 C 0.85983 0.22564 0.78898   0.205409
 C 0.90934 0.18221 0.74791   -0.317304
 C 0.58037 0.67946 0.5359   0.642413
 C 0.62599 0.61422 0.60102   -0.097582
 C 0.71906 0.60913 0.60817   -0.069718
 C 0.76168 0.54761 0.66675   -0.059721
 C 0.71013 0.4907 0.718   -0.144272
 C 0.61662 0.49601 0.71039   -0.067094
 C 0.57433 0.557 0.6531   -0.084575
 C 0.75334 0.42235 0.78175   0.657149
 C 0.36321 0.85334 0.54224   0.224698
 C 0.31813 0.89991 0.58083   -0.347679
 C 0.3434 0.96885 0.54795   0.351566
 C 0.41284 0.98729 0.48123   -0.324802
 C 0.45374 0.93646 0.44886   0.211588
 C 0.21143 0.02287 0.62947   0.08503
 C 0.19738 0.15612 0.60312   0.086869
 C 0.11181 0.26894 0.62684   0.374193
 C 0.0351 0.33164 0.61456   -0.319271
 C 0.00633 0.3705 0.65984   0.20926
 C 0.12555 0.28898 0.72564   0.20505
 C 0.16054 0.24791 0.68221   -0.32052
 C 0.70427 0.17946 0.0359   0.642726
 C 0.65877 0.11422 0.10102   -0.098509
 C 0.56364 0.10913 0.10817   -0.067099
 C 0.52396 0.04761 0.16675   -0.061413
 C 0.58117 0.9907 0.218   -0.139445
 C 0.67698 0.99601 0.21039   -0.071337
 C 0.71557 0.057 0.1531   -0.084524
 C 0.54256 0.92235 0.28175   0.656216
 C 0.74121 0.35334 0.04224   0.225594
 C 0.70113 0.39991 0.08083   -0.346632
 C 0.6398 0.46885 0.04795   0.352459
 C 0.61864 0.48729 0.98123   -0.324453
 C 0.66094 0.43646 0.94886   0.21093
 C 0.63623 0.52287 0.12947   0.082543
 C 0.54338 0.65612 0.10312   0.084575
 C 0.49241 0.76894 0.12684   0.371608
 C 0.5187 0.83164 0.11456   -0.318872
 C 0.46333 0.8705 0.15984   0.208979
 C 0.35983 0.78898 0.22564   0.205409
 C 0.40934 0.74791 0.18221   -0.317304
 C 0.08037 0.5359 0.67946   0.642413
 C 0.12599 0.60102 0.61422   -0.097582
 C 0.21906 0.60817 0.60913   -0.069718
 C 0.26168 0.66675 0.54761   -0.059721
 C 0.21013 0.718 0.4907   -0.144272
 C 0.11662 0.71039 0.49601   -0.067094
 C 0.07433 0.6531 0.557   -0.084575
 C 0.25334 0.78175 0.42235   0.657149
 C 0.86321 0.54224 0.85334   0.224698
 C 0.81813 0.58083 0.89991   -0.347679
 C 0.8434 0.54795 0.96885   0.351566
 C 0.91284 0.48123 0.98729   -0.324802
 C 0.95374 0.44886 0.93646   0.211588
 C 0.71143 0.62947 0.02287   0.08503
 C 0.69738 0.60312 0.15612   0.086869
 C 0.61181 0.62684 0.26894   0.374193
 C 0.5351 0.61456 0.33164   -0.319271
 C 0.50633 0.65984 0.3705   0.20926
 C 0.62555 0.72564 0.28898   0.20505
 C 0.66054 0.68221 0.24791   -0.32052
 C 0.14686 0.10314 0.60314   -0.097884
 C 0.64686 0.60314 0.10314   -0.097884
 N 0.27692 0.63038 0.02216   -0.362031
 N 0.61516 0.14978 0.78484   -0.378732
 N 0.07054 0.52216 0.13038   -0.361077
 N 0.45022 0.28484 0.64978   -0.379043
 N 0.77692 0.02216 0.63038   -0.362031
 N 0.11516 0.78484 0.14978   -0.378733
 N 0.57054 0.13038 0.52216   -0.361077
 N 0.95022 0.64978 0.28484   -0.379043
 N 0.22308 0.97784 0.36962   -0.362031
 N 0.88484 0.21516 0.85022   -0.378733
 N 0.42946 0.86962 0.47784   -0.361077
 N 0.04978 0.35022 0.71516   -0.379043
 N 0.72308 0.36962 0.97784   -0.362031
 N 0.38484 0.85022 0.21516   -0.378732
 N 0.92946 0.47784 0.86962   -0.361077
 N 0.54978 0.71516 0.35022   -0.379043
 O 0.21125 0.8172 0.96596   -0.616811
 O 0.34402 0.77317 0.01375   -0.616593
 O 0.39959 0.129 0.67732   -0.584317
 O 0.54639 0.08059 0.70735   -0.648497
 O 0.40534 0.47832 0.92266   -0.269054
 O 0.44672 0.26881 0.91653   -0.272913
 O 0.00559 0.46596 0.3172   -0.616336
 O 0.86906 0.51375 0.27317   -0.616823
 O 0.79409 0.17732 0.629   -0.584822
 O 0.66567 0.20735 0.58059   -0.648183
 O 0.19368 0.42266 0.97832   -0.2699
 O 0.36794 0.41653 0.76881   -0.273221
 O 0.71125 0.96596 0.8172   -0.616811
 O 0.84402 0.01375 0.77317   -0.616593
 O 0.89959 0.67732 0.129   -0.584317
 O 0.04639 0.70735 0.08059   -0.648497
 O 0.90534 0.92266 0.47832   -0.269054
 O 0.94672 0.91653 0.26881   -0.272913
 O 0.50559 0.3172 0.46596   -0.616336
 O 0.36906 0.27317 0.51375   -0.616823
 O 0.29409 0.629 0.17732   -0.584822
 O 0.16567 0.58059 0.20735   -0.648183
 O 0.69368 0.97832 0.42266   -0.2699
 O 0.86794 0.76881 0.41653   -0.273221
 O 0.28875 0.03404 0.1828   -0.616811
 O 0.15598 0.98625 0.22683   -0.616593
 O 0.10041 0.32268 0.871   -0.584317
 O 0.95361 0.29265 0.91941   -0.648497
 O 0.09466 0.07734 0.52168   -0.269054
 O 0.05328 0.08347 0.73119   -0.272913
 O 0.49441 0.6828 0.53404   -0.616336
 O 0.63094 0.72683 0.48625   -0.616823
 O 0.70591 0.371 0.82268   -0.584822
 O 0.83433 0.41941 0.79265   -0.648183
 O 0.30632 0.02168 0.57734   -0.2699
 O 0.13206 0.23119 0.58347   -0.273221
 O 0.78875 0.1828 0.03404   -0.616811
 O 0.65598 0.22683 0.98625   -0.616593
 O 0.60041 0.871 0.32268   -0.584317
 O 0.45361 0.91941 0.29265   -0.648497
 O 0.59466 0.52168 0.07734   -0.269054
 O 0.55328 0.73119 0.08347   -0.272913
 O 0.99441 0.53404 0.6828   -0.616336
 O 0.13094 0.48625 0.72683   -0.616823
 O 0.20591 0.82268 0.371   -0.584822
 O 0.33433 0.79265 0.41941   -0.648183
 O 0.80632 0.57734 0.02168   -0.2699
 O 0.63206 0.58347 0.23119   -0.273221
