{'_ref': 'TBD', '_srcid': 'CAKYAQ_clean', 'submitters': [{'name': 'Dalar Nazarian Jeff Camp and David Sholl', 'email': 'dalar@gatech.edu jcamp6@gatech.edu'}], '_method': 'VASP DFT with PBE;DDEC'}
data_ZnH8C17N5O
_symmetry_space_group_name_H-M   'P 1'
_cell_length_a   7.83660000
_cell_length_b   14.76319971
_cell_length_c   17.41530000
_cell_angle_alpha   90.00000000
_cell_angle_beta   90.00000000
_cell_angle_gamma   95.43900041
_symmetry_Int_Tables_number   1
_chemical_formula_structural   ZnH8C17N5O
_chemical_formula_sum   'Zn4 H32 C68 N20 O4'
_cell_volume   2005.76193524
_cell_formula_units_Z   4
loop_
 _symmetry_equiv_pos_site_id
 _symmetry_equiv_pos_as_xyz
  1  'x, y, z'
loop_
 _atom_site_label
 _atom_site_fract_x
 _atom_site_fract_y
 _atom_site_fract_z
 _atom_site_charge
 Zn 0.78584 0.76267 0.75303   1.0516
 Zn 0.71416 0.73733 0.25303   1.0516
 Zn 0.21416 0.23733 0.24697   1.0516
 Zn 0.28584 0.26267 0.74697   1.0516
 H 0.4364 0.1293 0.5641   0.102727
 H 0.9191 0.5582 0.6164   0.101988
 H 0.3956 0.6372 0.0054   0.131732
 H 0.9395 0.5706 0.3859   0.100747
 H 0.5937 0.8785 0.5666   0.105877
 H 0.417 0.7209 0.8943   0.144142
 H 0.6158 0.5232 0.7854   0.139214
 H 0.6014 0.436 0.8944   0.130316
 H 0.0636 0.3707 0.0641   0.102727
 H 0.5809 0.9418 0.1164   0.101988
 H 0.1044 0.8628 0.5054   0.131732
 H 0.5605 0.9294 0.8859   0.100747
 H 0.9063 0.6215 0.0666   0.105877
 H 0.083 0.7791 0.3943   0.144142
 H 0.8842 0.9768 0.2854   0.139214
 H 0.8986 0.064 0.3944   0.130316
 H 0.5636 0.8707 0.4359   0.102727
 H 0.0809 0.4418 0.3836   0.101989
 H 0.6044 0.3628 0.9946   0.131734
 H 0.0605 0.4294 0.6141   0.100748
 H 0.4063 0.1215 0.4334   0.105877
 H 0.583 0.2791 0.1057   0.144142
 H 0.3842 0.4768 0.2146   0.139214
 H 0.3986 0.564 0.1056   0.130318
 H 0.9364 0.6293 0.9359   0.102727
 H 0.4191 0.0582 0.8836   0.101989
 H 0.8956 0.1372 0.4946   0.131734
 H 0.4395 0.0706 0.1141   0.100748
 H 0.0937 0.3785 0.9334   0.105877
 H 0.917 0.2209 0.6057   0.144142
 H 0.1158 0.0232 0.7146   0.139214
 H 0.1014 0.936 0.6056   0.130318
 C 0.9111 0.57932 0.50159   0.137225
 C 0.8187 0.66186 0.50266   -0.454549
 C 0.4792 0.08387 0.7041   0.46306
 C 0.5193 0.00519 0.5809   0.125729
 C 0.6065 0.94113 0.70556   0.471273
 C 0.4624 0.07708 0.53856   -0.155648
 C 0.7527 0.69253 0.43404   0.459701
 C 0.951 0.53501 0.56942   -0.140701
 C 0.5023 0.52693 0.96418   0.048717
 C 0.7953 0.70666 0.57215   0.464383
 C 0.5371 0.01046 0.66501   -0.465203
 C 0.4437 0.61356 0.96188   -0.124406
 C 0.9633 0.54235 0.43188   -0.150172
 C 0.5562 0.9276 0.54014   -0.145072
 C 0.4572 0.66365 0.8953   -0.027611
 C 0.5753 0.54672 0.83069   -0.025675
 C 0.5654 0.49423 0.89587   -0.124416
 C 0.5889 0.92068 0.00159   0.137225
 C 0.6813 0.83814 0.00266   -0.454549
 C 0.0208 0.41613 0.2041   0.46306
 C 0.9807 0.49481 0.0809   0.125729
 C 0.8935 0.55887 0.20556   0.471274
 C 0.0376 0.42292 0.03856   -0.155648
 C 0.7473 0.80747 0.93404   0.4597
 C 0.549 0.96499 0.06942   -0.140701
 C 0.9977 0.97307 0.46418   0.048717
 C 0.7047 0.79334 0.07215   0.464383
 C 0.9629 0.48954 0.16501   -0.465203
 C 0.0563 0.88644 0.46188   -0.124406
 C 0.5367 0.95765 0.93188   -0.150172
 C 0.9438 0.5724 0.04014   -0.145072
 C 0.0428 0.83635 0.3953   -0.027611
 C 0.9247 0.95328 0.33069   -0.025675
 C 0.9346 0.00577 0.39587   -0.124416
 C 0.0889 0.42068 0.49841   0.137228
 C 0.1813 0.33814 0.49734   -0.45455
 C 0.5208 0.91613 0.2959   0.46306
 C 0.4807 0.99481 0.4191   0.125728
 C 0.3935 0.05887 0.29444   0.471274
 C 0.5376 0.92292 0.46144   -0.155643
 C 0.2473 0.30747 0.56596   0.459699
 C 0.049 0.46499 0.43058   -0.140714
 C 0.4977 0.47307 0.03582   0.048718
 C 0.2047 0.29334 0.42785   0.464382
 C 0.4629 0.98954 0.33499   -0.465203
 C 0.5563 0.38644 0.03812   -0.124407
 C 0.0367 0.45765 0.56812   -0.150185
 C 0.4438 0.0724 0.45986   -0.145067
 C 0.5428 0.33635 0.1047   -0.02761
 C 0.4247 0.45328 0.16931   -0.025674
 C 0.4346 0.50577 0.10413   -0.124417
 C 0.4111 0.07932 0.99841   0.137227
 C 0.3187 0.16186 0.99734   -0.45455
 C 0.9792 0.58387 0.7959   0.46306
 C 0.0193 0.50519 0.9191   0.125728
 C 0.1065 0.44113 0.79444   0.471274
 C 0.9624 0.57708 0.96144   -0.155643
 C 0.2527 0.19253 0.06596   0.459699
 C 0.451 0.03501 0.93058   -0.140714
 C 0.0023 0.02693 0.53582   0.048718
 C 0.2953 0.20666 0.92785   0.464382
 C 0.0371 0.51046 0.83499   -0.465203
 C 0.9437 0.11356 0.53812   -0.124407
 C 0.4633 0.04235 0.06812   -0.150185
 C 0.0562 0.4276 0.95986   -0.145067
 C 0.9572 0.16365 0.6047   -0.02761
 C 0.0753 0.04672 0.66931   -0.025674
 C 0.0654 0.99423 0.60413   -0.124417
 N 0.6648 0.88068 0.73444   -0.533466
 N 0.782 0.73752 0.63275   -0.538232
 N 0.5272 0.63165 0.83146   0.345322
 N 0.702 0.71136 0.37397   -0.560077
 N 0.4252 0.14728 0.7308   -0.546714
 N 0.8352 0.61932 0.23444   -0.533467
 N 0.718 0.76248 0.13275   -0.538232
 N 0.9728 0.86835 0.33146   0.345322
 N 0.798 0.78864 0.87397   -0.560077
 N 0.0748 0.35272 0.2308   -0.546714
 N 0.3352 0.11932 0.26556   -0.533466
 N 0.218 0.26248 0.36725   -0.538232
 N 0.4728 0.36835 0.16854   0.345322
 N 0.298 0.28864 0.62603   -0.560076
 N 0.5748 0.85272 0.2692   -0.546714
 N 0.1648 0.38068 0.76556   -0.533467
 N 0.282 0.23752 0.86725   -0.538232
 N 0.0272 0.13165 0.66854   0.345322
 N 0.202 0.21136 0.12603   -0.560077
 N 0.9252 0.64728 0.7692   -0.546714
 O 0.5469 0.68391 0.7691   -0.531805
 O 0.9531 0.81609 0.2691   -0.531805
 O 0.4531 0.31609 0.2309   -0.531805
 O 0.0469 0.18391 0.7309   -0.531805
