{'_ref': 'TBD', '_srcid': 'CAKYAQ_clean', 'submitters': [{'name': 'Dalar Nazarian Jeff Camp and David Sholl', 'email': 'dalar@gatech.edu jcamp6@gatech.edu'}], '_method': 'VASP DFT with PBE;DDEC'}
data_ZnH12(C4N)6
_symmetry_space_group_name_H-M   'P 1'
_cell_length_a   7.39370000
_cell_length_b   10.96229987
_cell_length_c   12.63310000
_cell_angle_alpha   109.50999794
_cell_angle_beta   90.00000000
_cell_angle_gamma   90.00000000
_symmetry_Int_Tables_number   1
_chemical_formula_structural   ZnH12(C4N)6
_chemical_formula_sum   'Zn1 H12 C24 N6'
_cell_volume   965.146288097
_cell_formula_units_Z   1
loop_
 _symmetry_equiv_pos_site_id
 _symmetry_equiv_pos_as_xyz
  1  'x, y, z'
loop_
 _atom_site_label
 _atom_site_fract_x
 _atom_site_fract_y
 _atom_site_fract_z
 _atom_site_charge
 Zn 0.0 0.0 0.0   0.853672
 H 0.2297 0.6102 0.0195   0.102344
 H 0.2297 0.3898 0.9805   0.102344
 H 0.7703 0.3898 0.9805   0.102344
 H 0.7703 0.6102 0.0195   0.102344
 H 0.0 0.9626 0.75   0.078316
 H 0.0 0.8101 0.5759   0.135827
 H 0.0 0.538 0.722   0.128841
 H 0.0 0.7006 0.8962   0.079558
 H 0.0 0.0374 0.25   0.078316
 H 0.0 0.1899 0.4241   0.135828
 H 0.0 0.462 0.278   0.128841
 H 0.0 0.2994 0.1038   0.079558
 C 0.3405 0.84531 0.0543   0.425078
 C 0.3392 0.5664 0.0119   -0.146551
 C 0.3405 0.15469 0.9457   0.425078
 C 0.3392 0.4336 0.9881   -0.14655
 C 0.6595 0.15469 0.9457   0.42508
 C 0.6608 0.4336 0.9881   -0.146552
 C 0.6595 0.84531 0.0543   0.42508
 C 0.6608 0.5664 0.0119   -0.146551
 C 0.5 0.7772 0.0474   -0.411556
 C 0.5 0.6356 0.0247   0.138994
 C 0.5 0.2228 0.9526   -0.411556
 C 0.5 0.3644 0.9753   0.138994
 C 0.0 0.8758 0.7445   0.17384
 C 0.0 0.7845 0.6391   -0.215913
 C 0.0 0.6546 0.6269   0.172029
 C 0.0 0.562 0.5108   -0.115637
 C 0.0 0.6242 0.7259   -0.195951
 C 0.0 0.7225 0.8312   0.152598
 C 0.0 0.1242 0.2555   0.17384
 C 0.0 0.2155 0.3609   -0.215914
 C 0.0 0.3454 0.3731   0.172025
 C 0.0 0.438 0.4892   -0.115609
 C 0.0 0.3758 0.2741   -0.195952
 C 0.0 0.2775 0.1688   0.152598
 N 0.2058 0.90083 0.0602   -0.497479
 N 0.2058 0.09917 0.9398   -0.497479
 N 0.7942 0.09917 0.9398   -0.49748
 N 0.7942 0.90083 0.0602   -0.49748
 N 0.0 0.848 0.8393   -0.314577
 N 0.0 0.152 0.1607   -0.314577
