{'_ref': 'TBD', '_srcid': 'CAKYAQ_clean', 'submitters': [{'name': 'Dalar Nazarian Jeff Camp and David Sholl', 'email': 'dalar@gatech.edu jcamp6@gatech.edu'}], '_method': 'VASP DFT with PBE;DDEC'}
data_CdH14(C4N)6
_symmetry_space_group_name_H-M   'P 1'
_cell_length_a   12.34640001
_cell_length_b   12.48710000
_cell_length_c   14.00820000
_cell_angle_alpha   90.00000000
_cell_angle_beta   113.76300164
_cell_angle_gamma   90.00000000
_symmetry_Int_Tables_number   1
_chemical_formula_structural   CdH14(C4N)6
_chemical_formula_sum   'Cd2 H28 C48 N12'
_cell_volume   1976.55907526
_cell_formula_units_Z   2
loop_
 _symmetry_equiv_pos_site_id
 _symmetry_equiv_pos_as_xyz
  1  'x, y, z'
loop_
 _atom_site_label
 _atom_site_fract_x
 _atom_site_fract_y
 _atom_site_fract_z
 _atom_site_charge
 Cd 0.0 0.0 0.0   0.988386
 Cd 0.5 0.5 0.0   0.988386
 H 0.877 0.003 0.469   0.112776
 H 0.6594 0.0437 0.961   0.10094
 H 0.4712 0.8258 0.0383   0.104471
 H 0.7982 0.0237 0.5949   0.133649
 H 0.8202 0.0221 0.7663   0.078743
 H 0.155 0.9682 0.8623   0.070998
 H 0.1426 0.9679 0.6951   0.130864
 H 0.623 0.503 0.531   0.112776
 H 0.8406 0.5437 0.039   0.10094
 H 0.0288 0.3258 0.9617   0.104471
 H 0.7018 0.5237 0.4051   0.133649
 H 0.6798 0.5221 0.2337   0.078743
 H 0.345 0.4682 0.1377   0.070998
 H 0.3574 0.4679 0.3049   0.130864
 H 0.123 0.997 0.531   0.112769
 H 0.3406 0.9563 0.039   0.10094
 H 0.5288 0.1742 0.9617   0.104471
 H 0.2018 0.9763 0.4051   0.13365
 H 0.1798 0.9779 0.2337   0.078743
 H 0.845 0.0318 0.1377   0.070998
 H 0.8574 0.0321 0.3049   0.130862
 H 0.377 0.497 0.469   0.112769
 H 0.1594 0.4563 0.961   0.10094
 H 0.9712 0.6742 0.0383   0.104471
 H 0.2982 0.4763 0.5949   0.13365
 H 0.3202 0.4779 0.7663   0.078743
 H 0.655 0.5318 0.8623   0.070998
 H 0.6426 0.5321 0.6951   0.130862
 C 0.5952 0.0256 0.9765   -0.155915
 C 0.648 0.7295 0.0225   0.450143
 C 0.7595 0.8602 0.9736   0.430038
 C 0.4829 0.896 0.0225   -0.147232
 C 0.8724 0.0127 0.6482   -0.225233
 C 0.9712 0.9975 0.6255   0.131824
 C 0.8867 0.0114 0.752   0.182178
 C 0.0817 0.98 0.8079   0.182692
 C 0.6631 0.835 0.9978   -0.456084
 C 0.0747 0.9801 0.7069   -0.203712
 C 0.5788 0.9198 0.9984   0.136073
 C 0.9572 0.0023 0.5153   -0.114993
 C 0.9048 0.5256 0.0235   -0.155915
 C 0.852 0.2295 0.9775   0.450143
 C 0.7405 0.3602 0.0264   0.430038
 C 0.0171 0.396 0.9775   -0.147232
 C 0.6276 0.5127 0.3518   -0.225233
 C 0.5288 0.4975 0.3745   0.131824
 C 0.6133 0.5114 0.248   0.182178
 C 0.4183 0.48 0.1921   0.182692
 C 0.8369 0.335 0.0022   -0.456084
 C 0.4253 0.4801 0.2931   -0.203712
 C 0.9212 0.4198 0.0016   0.136073
 C 0.5428 0.5023 0.4847   -0.114993
 C 0.4048 0.9744 0.0235   -0.155911
 C 0.352 0.2705 0.9775   0.450143
 C 0.2405 0.1398 0.0264   0.430038
 C 0.5171 0.104 0.9775   -0.147228
 C 0.1276 0.9873 0.3518   -0.225233
 C 0.0288 0.0025 0.3745   0.131816
 C 0.1133 0.9886 0.248   0.182178
 C 0.9183 0.02 0.1921   0.182691
 C 0.3369 0.165 0.0022   -0.456085
 C 0.9253 0.0199 0.2931   -0.203709
 C 0.4212 0.0802 0.0016   0.136072
 C 0.0428 0.9977 0.4847   -0.114941
 C 0.0952 0.4744 0.9765   -0.155911
 C 0.148 0.7705 0.0225   0.450143
 C 0.2595 0.6398 0.9736   0.430038
 C 0.9829 0.604 0.0225   -0.147229
 C 0.3724 0.4873 0.6482   -0.225233
 C 0.4712 0.5025 0.6255   0.131816
 C 0.3867 0.4886 0.752   0.182178
 C 0.5817 0.52 0.8079   0.182691
 C 0.1631 0.665 0.9978   -0.456085
 C 0.5747 0.5199 0.7069   -0.203709
 C 0.0788 0.5802 0.9984   0.136072
 C 0.4572 0.4977 0.5153   -0.114941
 N 0.9887 0.9958 0.8307   -0.3401
 N 0.8378 0.8865 0.9519   -0.548205
 N 0.6322 0.6438 0.0451   -0.548131
 N 0.5113 0.4958 0.1693   -0.3401
 N 0.6622 0.3865 0.0481   -0.548205
 N 0.8678 0.1438 0.9549   -0.548131
 N 0.0113 0.0042 0.1693   -0.340099
 N 0.1622 0.1135 0.0481   -0.548205
 N 0.3678 0.3562 0.9549   -0.548131
 N 0.4887 0.5042 0.8307   -0.340099
 N 0.3378 0.6135 0.9519   -0.548205
 N 0.1322 0.8562 0.0451   -0.548131
