{'_ref': 'TBD', '_srcid': 'CAKYAQ_clean', 'submitters': [{'name': 'Dalar Nazarian Jeff Camp and David Sholl', 'email': 'dalar@gatech.edu jcamp6@gatech.edu'}], '_method': 'VASP DFT with PBE;DDEC'}
data_Li2Cd3H48(C3O)16
_symmetry_space_group_name_H-M   'P 1'
_cell_length_a   9.68920000
_cell_length_b   17.68099971
_cell_length_c   21.15800000
_cell_angle_alpha   90.00000000
_cell_angle_beta   90.00000000
_cell_angle_gamma   105.42600182
_symmetry_Int_Tables_number   1
_chemical_formula_structural   Li2Cd3H48(C3O)16
_chemical_formula_sum   'Li4 Cd6 H96 C96 O32'
_cell_volume   3494.09756147
_cell_formula_units_Z   2
loop_
 _symmetry_equiv_pos_site_id
 _symmetry_equiv_pos_as_xyz
  1  'x, y, z'
loop_
 _atom_site_label
 _atom_site_fract_x
 _atom_site_fract_y
 _atom_site_fract_z
 _atom_site_charge
 Li 0.9769 0.4921 0.2854   0.958893
 Li 0.5231 0.0079 0.7854   0.958893
 Li 0.0231 0.5079 0.7146   0.958893
 Li 0.4769 0.9921 0.2146   0.958893
 Cd 0.42438 0.92571 0.64738   1.094469
 Cd 0.07562 0.57429 0.14738   1.094469
 Cd 0.57562 0.07429 0.35262   1.094469
 Cd 0.92438 0.42571 0.85262   1.094469
 Cd 0.5 0.0 0.5   1.240913
 Cd 0.0 0.5 0.0   1.240913
 H 0.663 0.859 0.4634   0.092577
 H 0.092 0.875 0.4441   0.093517
 H 0.936 0.926 0.6073   0.091097
 H 0.6736 0.8632 0.3558   0.11753
 H 0.6428 0.7751 0.3761   0.112243
 H 0.6992 0.8007 0.3078   0.120301
 H 0.8424 0.7157 0.393   0.096762
 H 0.999 0.7679 0.3827   0.098692
 H 0.8978 0.7407 0.3245   0.116233
 H 0.9245 0.9382 0.3328   0.116834
 H 0.9457 0.8702 0.2894   0.10689
 H 0.047 0.898 0.3475   0.114057
 H 0.302 0.807 0.2651   0.082748
 H 0.379 0.819 0.456   0.10502
 H 0.161 0.613 0.372   0.058377
 H 0.1168 0.7252 0.5301   0.109952
 H 0.277 0.7738 0.5368   0.125332
 H 0.2169 0.6995 0.5791   0.111125
 H 0.4078 0.6465 0.5494   0.110967
 H 0.4706 0.7232 0.5101   0.124936
 H 0.4473 0.6408 0.478   0.100447
 H 0.0664 0.5923 0.4787   0.106213
 H 0.1612 0.5707 0.5322   0.103727
 H 0.1971 0.5598 0.4611   0.107157
 H 0.837 0.641 0.9634   0.092577
 H 0.408 0.625 0.9441   0.093517
 H 0.564 0.574 0.1073   0.091097
 H 0.8264 0.6368 0.8558   0.11753
 H 0.8572 0.7249 0.8761   0.112243
 H 0.8008 0.6993 0.8078   0.120301
 H 0.6576 0.7843 0.893   0.096762
 H 0.501 0.7321 0.8827   0.098692
 H 0.6022 0.7593 0.8245   0.116233
 H 0.5755 0.5618 0.8328   0.116834
 H 0.5543 0.6298 0.7894   0.10689
 H 0.453 0.602 0.8475   0.114057
 H 0.198 0.693 0.7651   0.082748
 H 0.121 0.681 0.956   0.10502
 H 0.339 0.887 0.872   0.058377
 H 0.3832 0.7748 0.0301   0.109952
 H 0.223 0.7262 0.0368   0.125332
 H 0.2831 0.8005 0.0791   0.111125
 H 0.0922 0.8535 0.0494   0.110967
 H 0.0294 0.7768 0.0101   0.124936
 H 0.0527 0.8592 0.978   0.100447
 H 0.4336 0.9077 0.9787   0.106213
 H 0.3388 0.9293 0.0322   0.103727
 H 0.3029 0.9402 0.9611   0.107157
 H 0.337 0.141 0.5366   0.092577
 H 0.908 0.125 0.5559   0.093517
 H 0.064 0.074 0.3927   0.091097
 H 0.3264 0.1368 0.6442   0.11753
 H 0.3572 0.2249 0.6239   0.112243
 H 0.3008 0.1993 0.6922   0.120301
 H 0.1576 0.2843 0.607   0.096762
 H 0.000999999999998 0.2321 0.6173   0.098692
 H 0.1022 0.2593 0.6755   0.116233
 H 0.0755 0.0618 0.6672   0.116834
 H 0.0543 0.1298 0.7106   0.10689
 H 0.953 0.102 0.6525   0.114057
 H 0.698 0.193 0.7349   0.082748
 H 0.621 0.181 0.544   0.10502
 H 0.839 0.387 0.628   0.058377
 H 0.8832 0.2748 0.4699   0.109952
 H 0.723 0.2262 0.4632   0.125332
 H 0.7831 0.3005 0.4209   0.111125
 H 0.5922 0.3535 0.4506   0.110966
 H 0.5294 0.2768 0.4899   0.124936
 H 0.5527 0.3592 0.522   0.100446
 H 0.9336 0.4077 0.5213   0.106213
 H 0.8388 0.4293 0.4678   0.103727
 H 0.8029 0.4402 0.5389   0.107156
 H 0.163 0.359 0.0366   0.092577
 H 0.592 0.375 0.0559   0.093517
 H 0.436 0.426 0.8927   0.091097
 H 0.1736 0.3632 0.1442   0.11753
 H 0.1428 0.2751 0.1239   0.112243
 H 0.1992 0.3007 0.1922   0.120301
 H 0.3424 0.2157 0.107   0.096762
 H 0.499 0.2679 0.1173   0.098692
 H 0.3978 0.2407 0.1755   0.116233
 H 0.4245 0.4382 0.1672   0.116834
 H 0.4457 0.3702 0.2106   0.10689
 H 0.547 0.398 0.1525   0.114057
 H 0.802 0.307 0.2349   0.082748
 H 0.879 0.319 0.044   0.10502
 H 0.661 0.113 0.128   0.058377
 H 0.6168 0.2252 0.9699   0.109952
 H 0.777 0.2738 0.9632   0.125332
 H 0.7169 0.1995 0.9209   0.111125
 H 0.9078 0.1465 0.9506   0.110966
 H 0.9706 0.2232 0.9899   0.124936
 H 0.9473 0.1408 0.022   0.100446
 H 0.5664 0.0923 0.0213   0.106213
 H 0.6612 0.0707 0.9678   0.103727
 H 0.6971 0.0598 0.0389   0.107156
 C 0.6561 0.89769 0.58318   0.681729
 C 0.7797 0.89097 0.54298   -0.149796
 C 0.7572 0.86647 0.48022   -0.085838
 C 0.8704 0.859 0.442   0.002319
 C 0.0068 0.8797 0.46837   -0.070048
 C 0.0309 0.90413 0.53088   -0.151118
 C 0.9164 0.90911 0.56853   0.010761
 C 0.1822 0.92501 0.5551   0.710028
 C 0.8495 0.83 0.37356   0.244638
 C 0.7042 0.8161 0.3515   -0.40586
 C 0.902 0.7569 0.3679   -0.388077
 C 0.951 0.8896 0.332   -0.383631
 C 0.1659 0.659 0.25232   0.752163
 C 0.2252 0.70519 0.31035   -0.155504
 C 0.2917 0.78447 0.30487   0.016935
 C 0.3481 0.82723 0.35828   -0.168952
 C 0.3353 0.79042 0.41726   -0.043913
 C 0.2673 0.71099 0.42379   -0.006893
 C 0.213 0.66906 0.36906   -0.063673
 C 0.4269 0.91339 0.35149   0.791955
 C 0.255 0.672 0.48906   0.228704
 C 0.2126 0.7221 0.5381   -0.381317
 C 0.4102 0.6705 0.5085   -0.376669
 C 0.1619 0.5918 0.4904   -0.384624
 C 0.8439 0.60231 0.08318   0.681729
 C 0.7203 0.60903 0.04298   -0.149796
 C 0.7428 0.63353 0.98022   -0.085838
 C 0.6296 0.641 0.942   0.002319
 C 0.4932 0.6203 0.96837   -0.070048
 C 0.4691 0.59587 0.03088   -0.151118
 C 0.5836 0.59089 0.06853   0.010761
 C 0.3178 0.57499 0.0551   0.710028
 C 0.6505 0.67 0.87356   0.244638
 C 0.7958 0.6839 0.8515   -0.40586
 C 0.598 0.7431 0.8679   -0.388077
 C 0.549 0.6104 0.832   -0.383631
 C 0.3341 0.841 0.75232   0.752163
 C 0.2748 0.79481 0.81035   -0.155504
 C 0.2083 0.71553 0.80487   0.016935
 C 0.1519 0.67277 0.85828   -0.168952
 C 0.1647 0.70958 0.91726   -0.043913
 C 0.2327 0.78901 0.92379   -0.006893
 C 0.287 0.83094 0.86906   -0.063673
 C 0.0731 0.58661 0.85149   0.791955
 C 0.245 0.828 0.98906   0.228704
 C 0.2874 0.7779 0.0381   -0.381317
 C 0.0898 0.8295 0.0085   -0.376669
 C 0.3381 0.9082 0.9904   -0.384624
 C 0.3439 0.10231 0.41682   0.681729
 C 0.2203 0.10903 0.45702   -0.149796
 C 0.2428 0.13353 0.51978   -0.085838
 C 0.1296 0.141 0.558   0.002319
 C 0.9932 0.1203 0.53163   -0.070048
 C 0.9691 0.09587 0.46912   -0.151118
 C 0.0836 0.09089 0.43147   0.010761
 C 0.8178 0.07499 0.4449   0.710028
 C 0.1505 0.17 0.62644   0.244638
 C 0.2958 0.1839 0.6485   -0.40586
 C 0.098 0.2431 0.6321   -0.388077
 C 0.049 0.1104 0.668   -0.383631
 C 0.8341 0.341 0.74768   0.752163
 C 0.7748 0.29481 0.68965   -0.155504
 C 0.7083 0.21553 0.69513   0.016935
 C 0.6519 0.17277 0.64172   -0.168952
 C 0.6647 0.20958 0.58274   -0.043913
 C 0.7327 0.28901 0.57621   -0.006893
 C 0.787 0.33094 0.63094   -0.063673
 C 0.5731 0.08661 0.64851   0.791955
 C 0.745 0.328 0.51094   0.228704
 C 0.7874 0.2779 0.4619   -0.381317
 C 0.5898 0.3295 0.4915   -0.376669
 C 0.8381 0.4082 0.5096   -0.384624
 C 0.1561 0.39769 0.91682   0.681729
 C 0.2797 0.39097 0.95702   -0.149796
 C 0.2572 0.36647 0.01978   -0.085838
 C 0.3704 0.359 0.058   0.002319
 C 0.5068 0.3797 0.03163   -0.070048
 C 0.5309 0.40413 0.96912   -0.151118
 C 0.4164 0.40911 0.93147   0.010761
 C 0.6822 0.42501 0.9449   0.710028
 C 0.3495 0.33 0.12644   0.244638
 C 0.2042 0.3161 0.1485   -0.40586
 C 0.402 0.2569 0.1321   -0.388077
 C 0.451 0.3896 0.168   -0.383631
 C 0.6659 0.159 0.24768   0.752163
 C 0.7252 0.20519 0.18965   -0.155504
 C 0.7917 0.28447 0.19513   0.016935
 C 0.8481 0.32723 0.14172   -0.168952
 C 0.8353 0.29042 0.08274   -0.043913
 C 0.7673 0.21099 0.07621   -0.006893
 C 0.713 0.16906 0.13094   -0.063673
 C 0.9269 0.41339 0.14851   0.791955
 C 0.755 0.172 0.01094   0.228704
 C 0.7126 0.2221 0.9619   -0.381317
 C 0.9102 0.1705 0.9915   -0.376669
 C 0.6619 0.0918 0.0096   -0.384624
 O 0.5361 0.89494 0.55569   -0.688947
 O 0.6689 0.90585 0.64125   -0.583951
 O 0.2035 0.92428 0.6129   -0.603332
 O 0.2766 0.94025 0.51274   -0.653536
 O 0.1714 0.69279 0.20026   -0.575704
 O 0.1138 0.5858 0.25711   -0.848364
 O 0.4341 0.94414 0.29904   -0.804181
 O 0.4887 0.94933 0.39899   -0.661853
 O 0.9639 0.60506 0.05569   -0.688947
 O 0.8311 0.59415 0.14125   -0.583951
 O 0.2965 0.57572 0.1129   -0.603332
 O 0.2234 0.55975 0.01274   -0.653536
 O 0.3286 0.80721 0.70026   -0.575704
 O 0.3862 0.9142 0.75711   -0.848364
 O 0.0659 0.55586 0.79904   -0.804181
 O 0.0113 0.55067 0.89899   -0.661853
 O 0.4639 0.10506 0.44431   -0.688947
 O 0.3311 0.09415 0.35875   -0.583951
 O 0.7965 0.07572 0.3871   -0.603332
 O 0.7234 0.05975 0.48726   -0.653536
 O 0.8286 0.30721 0.79974   -0.575704
 O 0.8862 0.4142 0.74289   -0.848364
 O 0.5659 0.05586 0.70096   -0.804181
 O 0.5113 0.05067 0.60101   -0.661853
 O 0.0361 0.39494 0.94431   -0.688947
 O 0.1689 0.40585 0.85875   -0.583951
 O 0.7035 0.42428 0.8871   -0.603332
 O 0.7766 0.44025 0.98726   -0.653536
 O 0.6714 0.19279 0.29974   -0.575704
 O 0.6138 0.0858 0.24289   -0.848364
 O 0.9341 0.44414 0.20096   -0.804181
 O 0.9887 0.44933 0.10101   -0.661853
