{'_ref': 'TBD', '_srcid': 'CAKYAQ_clean', 'submitters': [{'name': 'Dalar Nazarian Jeff Camp and David Sholl', 'email': 'dalar@gatech.edu jcamp6@gatech.edu'}], '_method': 'VASP DFT with PBE;DDEC'}
data_Co5H6(C10O9)2
_symmetry_space_group_name_H-M   'P 1'
_cell_length_a   7.45200000
_cell_length_b   14.58599962
_cell_length_c   16.47200000
_cell_angle_alpha   90.00000000
_cell_angle_beta   90.00000000
_cell_angle_gamma   95.46000118
_symmetry_Int_Tables_number   1
_chemical_formula_structural   Co5H6(C10O9)2
_chemical_formula_sum   'Co10 H12 C40 O36'
_cell_volume   1782.29850275
_cell_formula_units_Z   2
loop_
 _symmetry_equiv_pos_site_id
 _symmetry_equiv_pos_as_xyz
  1  'x, y, z'
loop_
 _atom_site_label
 _atom_site_fract_x
 _atom_site_fract_y
 _atom_site_fract_z
 _atom_site_charge
 Co 0.209 0.67611 0.48647   1.092902
 Co 0.18871 0.47251 0.37216   1.125621
 Co 0.291 0.82389 0.98647   1.092902
 Co 0.31129 0.02749 0.87216   1.125621
 Co 0.791 0.32389 0.51353   1.092905
 Co 0.81129 0.52749 0.62784   1.125623
 Co 0.709 0.17611 0.01353   1.092905
 Co 0.68871 0.97251 0.12784   1.125623
 Co 0.5 0.5 0.5   1.212026
 Co 0.0 0.0 0.0   1.212026
 H 0.837 0.4902 0.4759   0.444113
 H 0.4321 0.6696 0.2051   0.116881
 H 0.0505 0.7259 0.225   0.11869
 H 0.663 0.0098 0.9759   0.444113
 H 0.0679 0.8304 0.7051   0.116881
 H 0.4495 0.7741 0.725   0.11869
 H 0.163 0.5098 0.5241   0.444112
 H 0.5679 0.3304 0.7949   0.116881
 H 0.9495 0.2741 0.775   0.118689
 H 0.337 0.9902 0.0241   0.444112
 H 0.9321 0.1696 0.2949   0.116881
 H 0.5505 0.2259 0.275   0.118689
 C 0.8327 0.6632 0.2805   -0.030233
 C 0.6467 0.6458 0.2756   -0.11852
 C 0.5561 0.6833 0.2101   -0.016761
 C 0.6474 0.7402 0.1527   -0.121108
 C 0.8355 0.756 0.1587   -0.107774
 C 0.9255 0.7163 0.2221   -0.051123
 C 0.9437 0.6258 0.3466   0.7254
 C 0.5321 0.5916 0.3372   0.70131
 C 0.5305 0.7785 0.0887   0.693185
 C 0.9514 0.8168 0.1019   0.738057
 C 0.6673 0.8368 0.7805   -0.030233
 C 0.8533 0.8542 0.7756   -0.11852
 C 0.9439 0.8167 0.7101   -0.016761
 C 0.8526 0.7598 0.6527   -0.121108
 C 0.6645 0.744 0.6587   -0.107774
 C 0.5745 0.7837 0.7221   -0.051123
 C 0.5563 0.8742 0.8466   0.7254
 C 0.9679 0.9084 0.8372   0.70131
 C 0.9695 0.7215 0.5887   0.693185
 C 0.5486 0.6832 0.6019   0.738057
 C 0.1673 0.3368 0.7195   -0.030233
 C 0.3533 0.3542 0.7244   -0.11852
 C 0.4439 0.3167 0.7899   -0.016761
 C 0.3526 0.2598 0.8473   -0.121108
 C 0.1645 0.244 0.8413   -0.107774
 C 0.0745 0.2837 0.7779   -0.051122
 C 0.0563 0.3742 0.6534   0.7254
 C 0.4679 0.4084 0.6628   0.701311
 C 0.4695 0.2215 0.9113   0.693185
 C 0.0486 0.1832 0.8981   0.738058
 C 0.3327 0.1632 0.2195   -0.030233
 C 0.1467 0.1458 0.2244   -0.11852
 C 0.0561 0.1833 0.2899   -0.016761
 C 0.1474 0.2402 0.3473   -0.121108
 C 0.3355 0.256 0.3413   -0.107774
 C 0.4255 0.2163 0.2779   -0.051122
 C 0.4437 0.1258 0.1534   0.7254
 C 0.0321 0.0916 0.1628   0.701311
 C 0.0305 0.2785 0.4113   0.693185
 C 0.4514 0.3168 0.3981   0.738058
 O 0.9622 0.5394 0.3435   -0.648082
 O 0.0142 0.6798 0.3967   -0.601312
 O 0.3737 0.562 0.3176   -0.634649
 O 0.6029 0.5821 0.4056   -0.591202
 O 0.5203 0.8632 0.0827   -0.630321
 O 0.4329 0.7232 0.0469   -0.530127
 O 0.0939 0.7885 0.0758   -0.591181
 O 0.8997 0.8964 0.0843   -0.678451
 O 0.758 0.4593 0.5172   -1.011329
 O 0.5378 0.9606 0.8435   -0.648082
 O 0.4858 0.8202 0.8967   -0.601312
 O 0.1263 0.938 0.8176   -0.634649
 O 0.8971 0.9179 0.9056   -0.591203
 O 0.9797 0.6368 0.5827   -0.630321
 O 0.0671 0.7768 0.5469   -0.530127
 O 0.4061 0.7115 0.5758   -0.591181
 O 0.6003 0.6036 0.5843   -0.678452
 O 0.742 0.0407 0.0172   -1.011329
 O 0.0378 0.4606 0.6565   -0.648083
 O 0.9858 0.3202 0.6033   -0.601312
 O 0.6263 0.438 0.6824   -0.634649
 O 0.3971 0.4179 0.5944   -0.591202
 O 0.4797 0.1368 0.9173   -0.630321
 O 0.5671 0.2768 0.9531   -0.530128
 O 0.9061 0.2115 0.9242   -0.591181
 O 0.1003 0.1036 0.9157   -0.678451
 O 0.242 0.5407 0.4828   -1.011328
 O 0.4622 0.0394 0.1565   -0.648083
 O 0.5142 0.1798 0.1033   -0.601312
 O 0.8737 0.062 0.1824   -0.634649
 O 0.1029 0.0821 0.0944   -0.591203
 O 0.0203 0.3632 0.4173   -0.630321
 O 0.9329 0.2232 0.4531   -0.530128
 O 0.5939 0.2885 0.4242   -0.591181
 O 0.3997 0.3964 0.4157   -0.678452
 O 0.258 0.9593 0.9828   -1.011328
