{'_ref': 'TBD', '_srcid': 'CAKYAQ_clean', 'submitters': [{'name': 'Dalar Nazarian Jeff Camp and David Sholl', 'email': 'dalar@gatech.edu jcamp6@gatech.edu'}], '_method': 'VASP DFT with PBE;DDEC'}
data_LuPH7C7NO9
_symmetry_space_group_name_H-M   'P 1'
_cell_length_a   11.25060000
_cell_length_b   14.83540000
_cell_length_c   16.18430000
_cell_angle_alpha   90.00000000
_cell_angle_beta   90.00000000
_cell_angle_gamma   90.00000000
_symmetry_Int_Tables_number   1
_chemical_formula_structural   LuPH7C7NO9
_chemical_formula_sum   'Lu8 P8 H56 C56 N8 O72'
_cell_volume   2701.27540781
_cell_formula_units_Z   8
loop_
 _symmetry_equiv_pos_site_id
 _symmetry_equiv_pos_as_xyz
  1  'x, y, z'
loop_
 _atom_site_label
 _atom_site_fract_x
 _atom_site_fract_y
 _atom_site_fract_z
 _atom_site_charge
 Lu 0.27297 0.7473 0.43189   1.838339
 Lu 0.24309 0.80465 0.05502   1.766558
 Lu 0.22703 0.2527 0.93189   1.838339
 Lu 0.25691 0.19535 0.55502   1.766558
 Lu 0.72703 0.2473 0.06811   1.838339
 Lu 0.75691 0.30465 0.44498   1.766558
 Lu 0.77297 0.7527 0.56811   1.838339
 Lu 0.74309 0.69535 0.94498   1.766558
 P 0.2614 0.8185 0.83319   1.466158
 P 0.3122 0.9505 0.5452   1.505343
 P 0.2386 0.1815 0.33319   1.466158
 P 0.1878 0.0495 0.0452   1.505343
 P 0.7386 0.3185 0.66681   1.466158
 P 0.6878 0.4505 0.9548   1.505343
 P 0.7614 0.6815 0.16681   1.466158
 P 0.8122 0.5495 0.4548   1.505343
 H 0.404 0.7512 0.7941   0.449693
 H 0.466 0.0118 0.5287   0.436065
 H 0.2274 0.007 0.6958   0.213989
 H 0.8629 0.1521 0.7423   0.29656
 H 0.3278 0.9637 0.8051   0.20589
 H 0.1927 0.9646 0.827   0.173226
 H 0.3874 0.9086 0.6751   0.194734
 H 0.2905 0.8391 0.6473   0.178715
 H 0.0853 0.933 0.6273   0.130884
 H 0.0899 0.8569 0.6945   0.127883
 H 0.9828 0.8777 0.8263   0.121153
 H 0.8528 0.9595 0.9035   0.147286
 H 0.797 0.1019 0.8635   0.11757
 H 0.9996 0.0771 0.6626   0.121636
 H 0.096 0.2488 0.2941   0.449693
 H 0.034 0.9882 0.0287   0.436065
 H 0.2726 0.993 0.1958   0.213989
 H 0.6371 0.8479 0.2423   0.29656
 H 0.1722 0.0363 0.3051   0.20589
 H 0.3073 0.0354 0.327   0.173226
 H 0.1126 0.0914 0.1751   0.194734
 H 0.2095 0.1609 0.1473   0.178715
 H 0.4147 0.067 0.1273   0.130884
 H 0.4101 0.1431 0.1945   0.127883
 H 0.5172 0.1223 0.3263   0.121153
 H 0.6472 0.0405 0.4035   0.147286
 H 0.703 0.8981 0.3635   0.11757
 H 0.5004 0.9229 0.1626   0.121636
 H 0.596 0.2512 0.7059   0.449693
 H 0.534 0.5118 0.9713   0.436065
 H 0.7726 0.507 0.8042   0.213989
 H 0.1371 0.6521 0.7577   0.29656
 H 0.6722 0.4637 0.6949   0.20589
 H 0.8073 0.4646 0.673   0.173226
 H 0.6126 0.4086 0.8249   0.194734
 H 0.7095 0.3391 0.8527   0.178715
 H 0.9147 0.433 0.8727   0.130884
 H 0.9101 0.3569 0.8055   0.127883
 H 0.0172 0.3777 0.6737   0.121153
 H 0.1472 0.4595 0.5965   0.147286
 H 0.203 0.6019 0.6365   0.11757
 H 0.000399999999999 0.5771 0.8374   0.121636
 H 0.904 0.7488 0.2059   0.449693
 H 0.966 0.4882 0.4713   0.436065
 H 0.7274 0.493 0.3042   0.213989
 H 0.3629 0.3479 0.2577   0.29656
 H 0.8278 0.5363 0.1949   0.20589
 H 0.6927 0.5354 0.173   0.173226
 H 0.8874 0.5914 0.3249   0.194734
 H 0.7905 0.6609 0.3527   0.178715
 H 0.5853 0.567 0.3727   0.130884
 H 0.5899 0.6431 0.3055   0.127883
 H 0.4828 0.6223 0.1737   0.121153
 H 0.3528 0.5405 0.0965   0.147286
 H 0.297 0.3981 0.1365   0.11757
 H 0.4996 0.4229 0.3374   0.121636
 C 0.2527 0.9338 0.7945   -0.525518
 C 0.3089 0.9029 0.6508   -0.547595
 C 0.0997 0.9211 0.6854   -0.126222
 C 0.0073 0.9728 0.7375   -0.024733
 C 0.9606 0.9353 0.8096   0.028901
 C 0.8831 0.9838 0.8549   -0.119833
 C 0.848 0.0681 0.8306   0.149419
 C 0.9703 0.0527 0.7115   0.080298
 C 0.4985 0.7437 0.5439   0.519094
 C 0.5458 0.7662 0.4567   0.541356
 C 0.2631 0.8223 0.2501   0.515755
 C 0.2481 0.7233 0.2365   0.553307
 C 0.4694 0.7017 0.9862   0.546265
 C 0.5154 0.7958 0.006   0.506651
 C 0.2473 0.0662 0.2945   -0.525518
 C 0.1911 0.0971 0.1508   -0.547595
 C 0.4003 0.0789 0.1854   -0.126222
 C 0.4927 0.0272 0.2375   -0.024733
 C 0.5394 0.0647 0.3096   0.028901
 C 0.6169 0.0162 0.3549   -0.119833
 C 0.652 0.9319 0.3306   0.149419
 C 0.5297 0.9473 0.2115   0.080298
 C 0.0015 0.2563 0.0439   0.519094
 C 0.9542 0.2338 0.9567   0.541356
 C 0.2369 0.1777 0.7501   0.515755
 C 0.2519 0.2767 0.7365   0.553307
 C 0.0306 0.2983 0.4862   0.546265
 C 0.9846 0.2042 0.506   0.506651
 C 0.7473 0.4338 0.7055   -0.525518
 C 0.6911 0.4029 0.8492   -0.547595
 C 0.9003 0.4211 0.8146   -0.126222
 C 0.9927 0.4728 0.7625   -0.024733
 C 0.0394 0.4353 0.6904   0.028901
 C 0.1169 0.4838 0.6451   -0.119833
 C 0.152 0.5681 0.6694   0.149419
 C 0.0297 0.5527 0.7885   0.080298
 C 0.5015 0.2437 0.9561   0.519094
 C 0.4542 0.2662 0.0433   0.541356
 C 0.7369 0.3223 0.2499   0.515755
 C 0.7519 0.2233 0.2635   0.553307
 C 0.5306 0.2017 0.5138   0.546265
 C 0.4846 0.2958 0.494   0.506651
 C 0.7527 0.5662 0.2055   -0.525518
 C 0.8089 0.5971 0.3492   -0.547595
 C 0.5997 0.5789 0.3146   -0.126222
 C 0.5073 0.5272 0.2625   -0.024733
 C 0.4606 0.5647 0.1904   0.028901
 C 0.3831 0.5162 0.1451   -0.119833
 C 0.348 0.4319 0.1694   0.149419
 C 0.4703 0.4473 0.2885   0.080298
 C 0.9985 0.7563 0.4561   0.519094
 C 0.0458 0.7338 0.5433   0.541356
 C 0.7631 0.6777 0.7499   0.515755
 C 0.7481 0.7767 0.7635   0.553307
 C 0.9694 0.7983 0.0138   0.546265
 C 0.0154 0.7042 0.994   0.506651
 N 0.2217 0.9468 0.7057   0.256206
 N 0.8876 0.1007 0.7597   -0.104132
 N 0.2783 0.0532 0.2057   0.256206
 N 0.6124 0.8993 0.2597   -0.104132
 N 0.7783 0.4468 0.7943   0.256206
 N 0.1124 0.6007 0.7403   -0.104132
 N 0.7217 0.5532 0.2943   0.256206
 N 0.3876 0.3993 0.2403   -0.104132
 O 0.1792 0.761 0.7842   -0.816529
 O 0.2366 0.8278 0.9214   -0.833808
 O 0.396 0.7935 0.8261   -0.693742
 O 0.2542 0.0406 0.5481   -0.817359
 O 0.2593 0.8844 0.4863   -0.842859
 O 0.4458 0.9588 0.5256   -0.719927
 O 0.3887 0.7313 0.5512   -0.59063
 O 0.5739 0.738 0.6015   -0.58455
 O 0.6524 0.7792 0.4513   -0.56718
 O 0.471 0.7649 0.4   -0.612045
 O 0.2754 0.8499 0.3229   -0.553517
 O 0.2645 0.8695 0.1854   -0.57284
 O 0.2337 0.6979 0.1649   -0.543889
 O 0.2521 0.6743 0.3018   -0.65437
 O 0.5424 0.6521 0.9495   -0.629021
 O 0.3673 0.6846 0.0072   -0.560253
 O 0.443 0.8478 0.0447   -0.599792
 O 0.6208 0.8168 0.9882   -0.54859
 O 0.3208 0.239 0.2842   -0.816529
 O 0.2634 0.1722 0.4214   -0.833808
 O 0.104 0.2065 0.3261   -0.693742
 O 0.2458 0.9594 0.0481   -0.817359
 O 0.2407 0.1156 0.9863   -0.842859
 O 0.0542 0.0412 0.0256   -0.719927
 O 0.1113 0.2687 0.0512   -0.59063
 O 0.9261 0.262 0.1015   -0.58455
 O 0.8476 0.2208 0.9513   -0.56718
 O 0.029 0.2351 0.9   -0.612045
 O 0.2246 0.1501 0.8229   -0.553517
 O 0.2355 0.1305 0.6854   -0.57284
 O 0.2663 0.3021 0.6649   -0.543889
 O 0.2479 0.3257 0.8018   -0.65437
 O 0.9576 0.3479 0.4495   -0.629021
 O 0.1327 0.3154 0.5072   -0.560253
 O 0.057 0.1522 0.5447   -0.599792
 O 0.8792 0.1832 0.4882   -0.54859
 O 0.8208 0.261 0.7158   -0.816529
 O 0.7634 0.3278 0.5786   -0.833808
 O 0.604 0.2935 0.6739   -0.693742
 O 0.7458 0.5406 0.9519   -0.817359
 O 0.7407 0.3844 0.0137   -0.842859
 O 0.5542 0.4588 0.9744   -0.719927
 O 0.6113 0.2313 0.9488   -0.59063
 O 0.4261 0.238 0.8985   -0.58455
 O 0.3476 0.2792 0.0487   -0.56718
 O 0.529 0.2649 0.1   -0.612045
 O 0.7246 0.3499 0.1771   -0.553517
 O 0.7355 0.3695 0.3146   -0.57284
 O 0.7663 0.1979 0.3351   -0.543889
 O 0.7479 0.1743 0.1982   -0.65437
 O 0.4576 0.1521 0.5505   -0.629021
 O 0.6327 0.1846 0.4928   -0.560253
 O 0.557 0.3478 0.4553   -0.599792
 O 0.3792 0.3168 0.5118   -0.54859
 O 0.6792 0.739 0.2158   -0.816529
 O 0.7366 0.6722 0.0786   -0.833808
 O 0.896 0.7065 0.1739   -0.693742
 O 0.7542 0.4594 0.4519   -0.817359
 O 0.7593 0.6156 0.5137   -0.842859
 O 0.9458 0.5412 0.4744   -0.719927
 O 0.8887 0.7687 0.4488   -0.59063
 O 0.0739 0.762 0.3985   -0.58455
 O 0.1524 0.7208 0.5487   -0.56718
 O 0.971 0.7351 0.6   -0.612045
 O 0.7754 0.6501 0.6771   -0.553517
 O 0.7645 0.6305 0.8146   -0.57284
 O 0.7337 0.8021 0.8351   -0.543889
 O 0.7521 0.8257 0.6982   -0.65437
 O 0.0424 0.8479 0.0505   -0.629021
 O 0.8673 0.8154 0.9928   -0.560253
 O 0.943 0.6522 0.9553   -0.599792
 O 0.1208 0.6832 0.0118   -0.54859
