{'_ref': 'TBD', '_srcid': 'CAKYAQ_clean', 'submitters': [{'name': 'Dalar Nazarian Jeff Camp and David Sholl', 'email': 'dalar@gatech.edu jcamp6@gatech.edu'}], '_method': 'VASP DFT with PBE;DDEC'}
data_CdNiH18C11N6
_symmetry_space_group_name_H-M   'P 1'
_cell_length_a   7.61000000
_cell_length_b   13.59900000
_cell_length_c   27.93800000
_cell_angle_alpha   90.00000000
_cell_angle_beta   90.00000000
_cell_angle_gamma   90.00000000
_symmetry_Int_Tables_number   1
_chemical_formula_structural   CdNiH18C11N6
_chemical_formula_sum   'Cd4 Ni4 H72 C44 N24'
_cell_volume   2891.25863982
_cell_formula_units_Z   4
loop_
 _symmetry_equiv_pos_site_id
 _symmetry_equiv_pos_as_xyz
  1  'x, y, z'
loop_
 _atom_site_label
 _atom_site_fract_x
 _atom_site_fract_y
 _atom_site_fract_z
 _atom_site_charge
 Cd 0.0 0.77258 0.76331   0.947896
 Cd 0.0 0.22742 0.23669   0.947896
 Cd 0.0 0.72742 0.26331   0.947896
 Cd 0.0 0.27258 0.73669   0.947896
 Ni 0.5 0.51714 0.79155   -0.002905
 Ni 0.5 0.48286 0.20845   -0.002905
 Ni 0.5 0.98286 0.29155   -0.002905
 Ni 0.5 0.01714 0.70845   -0.002905
 H 0.89283 0.62519 0.69816   0.304868
 H 0.88211 0.76859 0.64681   0.08237
 H 0.88211 0.60353 0.60723   0.069928
 H 0.88211 0.75902 0.55787   0.08018
 H 0.88211 0.59243 0.51581   0.068272
 H 0.88211 0.74925 0.46744   0.077781
 H 0.88211 0.58646 0.42474   0.071485
 H 0.11789 0.75751 0.8779   0.081198
 H 0.10717 0.90883 0.83449   0.302221
 H 0.89283 0.37481 0.30184   0.304868
 H 0.88211 0.23141 0.35319   0.08237
 H 0.88211 0.39647 0.39277   0.069928
 H 0.88211 0.24098 0.44213   0.08018
 H 0.88211 0.40757 0.48419   0.068273
 H 0.88211 0.25075 0.53256   0.077781
 H 0.88211 0.41354 0.57526   0.071486
 H 0.11789 0.24249 0.1221   0.081198
 H 0.10717 0.09117 0.16551   0.302221
 H 0.10717 0.87481 0.19816   0.304867
 H 0.11789 0.73141 0.14681   0.08237
 H 0.11789 0.89647 0.10723   0.069928
 H 0.11789 0.74098 0.05787   0.08018
 H 0.11789 0.90757 0.01581   0.068272
 H 0.11789 0.75075 0.96744   0.07778
 H 0.11789 0.91354 0.92474   0.071485
 H 0.88211 0.74249 0.3779   0.081197
 H 0.89283 0.59117 0.33449   0.302221
 H 0.10717 0.12519 0.80184   0.304867
 H 0.11789 0.26859 0.85319   0.08237
 H 0.11789 0.10353 0.89277   0.069928
 H 0.11789 0.25902 0.94213   0.08018
 H 0.11789 0.09243 0.98419   0.068273
 H 0.11789 0.24925 0.03256   0.07778
 H 0.11789 0.08646 0.07526   0.071487
 H 0.88211 0.25751 0.6221   0.081197
 H 0.89283 0.40883 0.66551   0.302221
 H 0.10717 0.37481 0.30184   0.304867
 H 0.11789 0.23141 0.35319   0.08237
 H 0.11789 0.39647 0.39277   0.069929
 H 0.11789 0.24098 0.44213   0.080179
 H 0.11789 0.40757 0.48419   0.068273
 H 0.11789 0.25075 0.53256   0.07778
 H 0.11789 0.41354 0.57526   0.071486
 H 0.88211 0.24249 0.1221   0.081197
 H 0.89283 0.09117 0.16551   0.302221
 H 0.10717 0.62519 0.69816   0.304867
 H 0.11789 0.76859 0.64681   0.08237
 H 0.11789 0.60353 0.60723   0.06993
 H 0.11789 0.75902 0.55787   0.080179
 H 0.11789 0.59243 0.51581   0.068274
 H 0.11789 0.74925 0.46744   0.077779
 H 0.11789 0.58646 0.42474   0.071487
 H 0.88211 0.75751 0.8779   0.081197
 H 0.89283 0.90883 0.83449   0.302221
 H 0.89283 0.12519 0.80184   0.304867
 H 0.88211 0.26859 0.85319   0.08237
 H 0.88211 0.10353 0.89277   0.069929
 H 0.88211 0.25902 0.94213   0.080179
 H 0.88211 0.09243 0.98419   0.068273
 H 0.88211 0.24925 0.03256   0.077779
 H 0.88211 0.08646 0.07526   0.071487
 H 0.11789 0.25751 0.6221   0.081196
 H 0.10717 0.40883 0.66551   0.302221
 H 0.89283 0.87481 0.19816   0.304867
 H 0.88211 0.73141 0.14681   0.08237
 H 0.88211 0.89647 0.10723   0.06993
 H 0.88211 0.74098 0.05787   0.080179
 H 0.88211 0.90757 0.01581   0.068274
 H 0.88211 0.75075 0.96744   0.077779
 H 0.88211 0.91354 0.92474   0.071488
 H 0.11789 0.74249 0.3779   0.081196
 H 0.10717 0.59117 0.33449   0.302221
 C 0.6719 0.6134 0.7958   0.114521
 C 0.3249 0.9234 0.7183   0.110675
 C 0.6719 0.3866 0.2042   0.114521
 C 0.3249 0.0766 0.2817   0.110675
 C 0.3281 0.8866 0.2958   0.114521
 C 0.6751 0.5766 0.2183   0.110675
 C 0.3281 0.1134 0.7042   0.114521
 C 0.6751 0.4234 0.7817   0.110675
 C 0.3281 0.3866 0.2042   0.114521
 C 0.6751 0.0766 0.2817   0.110675
 C 0.3281 0.6134 0.7958   0.114521
 C 0.6751 0.9234 0.7183   0.110675
 C 0.6719 0.1134 0.7042   0.114521
 C 0.3249 0.4234 0.7817   0.110675
 C 0.6719 0.8866 0.2958   0.114521
 C 0.3249 0.5766 0.2183   0.110675
 C 0.0 0.7221 0.6488   0.050706
 C 0.0 0.6502 0.606   -0.195632
 C 0.0 0.7124 0.5591   -0.132627
 C 0.0 0.6391 0.5148   -0.13157
 C 0.0 0.7026 0.4682   -0.12867
 C 0.0 0.6331 0.424   -0.195222
 C 0.0 0.8042 0.8781   0.057678
 C 0.0 0.2779 0.3512   0.050706
 C 0.0 0.3498 0.394   -0.195632
 C 0.0 0.2876 0.4409   -0.132627
 C 0.0 0.3609 0.4852   -0.13157
 C 0.0 0.2974 0.5318   -0.12867
 C 0.0 0.3669 0.576   -0.195222
 C 0.0 0.1958 0.1219   0.057678
 C 0.0 0.7779 0.1488   0.050706
 C 0.0 0.8498 0.106   -0.195632
 C 0.0 0.7876 0.0591   -0.132627
 C 0.0 0.8609 0.0148   -0.131571
 C 0.0 0.7974 0.9682   -0.128669
 C 0.0 0.8669 0.924   -0.195222
 C 0.0 0.6958 0.3781   0.057678
 C 0.0 0.2221 0.8512   0.050706
 C 0.0 0.1502 0.894   -0.195632
 C 0.0 0.2124 0.9409   -0.132627
 C 0.0 0.1391 0.9852   -0.131571
 C 0.0 0.2026 0.0318   -0.128669
 C 0.0 0.1331 0.076   -0.195222
 C 0.0 0.3042 0.6219   0.057678
 N 0.7794 0.6723 0.7947   -0.432342
 N 0.2175 0.8691 0.7286   -0.426755
 N 0.7794 0.3277 0.2053   -0.432342
 N 0.2175 0.1309 0.2714   -0.426755
 N 0.2206 0.8277 0.2947   -0.432342
 N 0.7825 0.6309 0.2286   -0.426755
 N 0.2206 0.1723 0.7053   -0.432342
 N 0.7825 0.3691 0.7714   -0.426755
 N 0.2206 0.3277 0.2053   -0.432342
 N 0.7825 0.1309 0.2714   -0.426755
 N 0.2206 0.6723 0.7947   -0.432342
 N 0.7825 0.8691 0.7286   -0.426755
 N 0.7794 0.1723 0.7053   -0.432342
 N 0.2175 0.3691 0.7714   -0.426755
 N 0.7794 0.8277 0.2947   -0.432342
 N 0.2175 0.6309 0.2286   -0.426755
 N 0.0 0.6675 0.6966   -0.637596
 N 0.0 0.8664 0.8342   -0.640862
 N 0.0 0.3325 0.3034   -0.637596
 N 0.0 0.1336 0.1658   -0.640862
 N 0.0 0.8325 0.1966   -0.637596
 N 0.0 0.6336 0.3342   -0.640862
 N 0.0 0.1675 0.8034   -0.637596
 N 0.0 0.3664 0.6658   -0.640862
