{'_ref': 'TBD', '_srcid': 'CAKYAQ_clean', 'submitters': [{'name': 'Dalar Nazarian Jeff Camp and David Sholl', 'email': 'dalar@gatech.edu jcamp6@gatech.edu'}], '_method': 'VASP DFT with PBE;DDEC'}
data_ZnH4C12NO3F4
_symmetry_space_group_name_H-M   'P 1'
_cell_length_a   6.39640000
_cell_length_b   8.98420000
_cell_length_c   26.37600000
_cell_angle_alpha   90.00000000
_cell_angle_beta   90.00000000
_cell_angle_gamma   90.00000000
_symmetry_Int_Tables_number   1
_chemical_formula_structural   ZnH4C12NO3F4
_chemical_formula_sum   'Zn4 H16 C48 N4 O12 F16'
_cell_volume   1515.73737675
_cell_formula_units_Z   4
loop_
 _symmetry_equiv_pos_site_id
 _symmetry_equiv_pos_as_xyz
  1  'x, y, z'
loop_
 _atom_site_label
 _atom_site_fract_x
 _atom_site_fract_y
 _atom_site_fract_z
 _atom_site_charge
 Zn 0.0 0.0 0.71344   1.019316
 Zn 0.5 0.0 0.78656   1.019316
 Zn 0.0 0.0 0.28656   1.019316
 Zn 0.5 0.0 0.21344   1.019316
 H 0.7501 0.8784 0.6256   0.088425
 H 0.7452 0.8739 0.5394   0.130134
 H 0.2501 0.1216 0.8744   0.088425
 H 0.2452 0.1261 0.9606   0.130134
 H 0.7499 0.8784 0.8744   0.088425
 H 0.7548 0.8739 0.9606   0.130134
 H 0.2499 0.1216 0.6256   0.088425
 H 0.2548 0.1261 0.5394   0.130134
 H 0.2499 0.1216 0.3744   0.088425
 H 0.2548 0.1261 0.4606   0.130134
 H 0.7499 0.8784 0.1256   0.088425
 H 0.7548 0.8739 0.0394   0.130134
 H 0.2501 0.1216 0.1256   0.088425
 H 0.2452 0.1261 0.0394   0.130134
 H 0.7501 0.8784 0.3744   0.088425
 H 0.7452 0.8739 0.4606   0.130134
 C 0.7546 0.4923 0.79427   0.229754
 C 0.7584 0.3385 0.79435   0.055741
 C 0.8545 0.9289 0.60809   0.198829
 C 0.8501 0.9261 0.55611   -0.197976
 C 0.2546 0.5077 0.70573   0.229754
 C 0.2584 0.6615 0.70565   0.055741
 C 0.3545 0.0711 0.89191   0.198829
 C 0.3501 0.0739 0.94389   -0.197976
 C 0.7454 0.4923 0.70573   0.229753
 C 0.7416 0.3385 0.70565   0.055741
 C 0.6455 0.9289 0.89191   0.19883
 C 0.6499 0.9261 0.94389   -0.197976
 C 0.2454 0.5077 0.79427   0.229753
 C 0.2416 0.6615 0.79435   0.055741
 C 0.1455 0.0711 0.60809   0.19883
 C 0.1499 0.0739 0.55611   -0.197976
 C 0.2454 0.5077 0.20573   0.229754
 C 0.2416 0.6615 0.20565   0.055741
 C 0.1455 0.0711 0.39191   0.19883
 C 0.1499 0.0739 0.44389   -0.197977
 C 0.7454 0.4923 0.29427   0.229754
 C 0.7416 0.3385 0.29435   0.055741
 C 0.6455 0.9289 0.10809   0.19883
 C 0.6499 0.9261 0.05611   -0.197977
 C 0.2546 0.5077 0.29427   0.229753
 C 0.2584 0.6615 0.29435   0.055741
 C 0.3545 0.0711 0.10809   0.19883
 C 0.3501 0.0739 0.05611   -0.197977
 C 0.7546 0.4923 0.20573   0.229753
 C 0.7584 0.3385 0.20565   0.055741
 C 0.8545 0.9289 0.39191   0.19883
 C 0.8501 0.9261 0.44389   -0.197977
 C 0.0 0.0 0.5286   0.09656
 C 0.5 0.0 0.9714   0.09656
 C 0.0 0.0 0.4714   0.096562
 C 0.5 0.0 0.0286   0.096562
 C 0.75 0.7433 0.75   0.738476
 C 0.75 0.5754 0.75   -0.353749
 C 0.75 0.2554 0.75   0.206416
 C 0.25 0.2567 0.75   0.738475
 C 0.25 0.4246 0.75   -0.353749
 C 0.25 0.7446 0.75   0.206415
 C 0.25 0.2567 0.25   0.738476
 C 0.25 0.4246 0.25   -0.353749
 C 0.25 0.7446 0.25   0.206416
 C 0.75 0.7433 0.25   0.738475
 C 0.75 0.5754 0.25   -0.353749
 C 0.75 0.2554 0.25   0.206415
 N 0.0 0.0 0.63475   -0.35265
 N 0.5 0.0 0.86525   -0.35265
 N 0.0 0.0 0.36525   -0.35265
 N 0.5 0.0 0.13475   -0.35265
 O 0.8362 0.8061 0.71311   -0.604274
 O 0.3362 0.1939 0.78689   -0.604274
 O 0.6638 0.8061 0.78689   -0.604274
 O 0.1638 0.1939 0.71311   -0.604274
 O 0.1638 0.1939 0.28689   -0.604274
 O 0.6638 0.8061 0.21311   -0.604274
 O 0.3362 0.1939 0.21311   -0.604274
 O 0.8362 0.8061 0.28689   -0.604274
 O 0.75 0.1061 0.75   -0.630234
 O 0.25 0.8939 0.75   -0.630234
 O 0.25 0.8939 0.25   -0.630234
 O 0.75 0.1061 0.25   -0.630234
 F 0.7638 0.5605 0.83999   -0.138414
 F 0.7706 0.2663 0.83917   -0.124286
 F 0.2638 0.4395 0.66001   -0.138414
 F 0.2706 0.7337 0.66083   -0.124286
 F 0.7362 0.5605 0.66001   -0.138414
 F 0.7294 0.2663 0.66083   -0.124286
 F 0.2362 0.4395 0.83999   -0.138414
 F 0.2294 0.7337 0.83917   -0.124286
 F 0.2362 0.4395 0.16001   -0.138414
 F 0.2294 0.7337 0.16083   -0.124286
 F 0.7362 0.5605 0.33999   -0.138414
 F 0.7294 0.2663 0.33917   -0.124286
 F 0.2638 0.4395 0.33999   -0.138414
 F 0.2706 0.7337 0.33917   -0.124286
 F 0.7638 0.5605 0.16001   -0.138414
 F 0.7706 0.2663 0.16083   -0.124286
