{'_ref': 'TBD', '_srcid': 'CAKYAQ_clean', 'submitters': [{'name': 'Dalar Nazarian Jeff Camp and David Sholl', 'email': 'dalar@gatech.edu jcamp6@gatech.edu'}], '_method': 'VASP DFT with PBE;DDEC'}
data_Ca3H18(C16O7)2
_symmetry_space_group_name_H-M   'P 1'
_cell_length_a   9.82399959
_cell_length_b   9.96299985
_cell_length_c   10.15000000
_cell_angle_alpha   74.04399689
_cell_angle_beta   86.36099815
_cell_angle_gamma   78.32800163
_symmetry_Int_Tables_number   1
_chemical_formula_structural   Ca3H18(C16O7)2
_chemical_formula_sum   'Ca3 H18 C32 O14'
_cell_volume   935.38830398
_cell_formula_units_Z   1
loop_
 _symmetry_equiv_pos_site_id
 _symmetry_equiv_pos_as_xyz
  1  'x, y, z'
loop_
 _atom_site_label
 _atom_site_fract_x
 _atom_site_fract_y
 _atom_site_fract_z
 _atom_site_charge
 Ca 0.50784 0.87968 0.88347   1.56343
 Ca 0.49216 0.12032 0.11653   1.563435
 Ca 0.5 0.0 0.5   1.730798
 H 0.3086 0.7212 0.527   0.127838
 H 0.3276 0.314 0.5304   0.095634
 H 0.4885 0.4073 0.8421   0.099968
 H 0.274 0.4163 0.3036   0.055964
 H 0.1354 0.4173 0.3904   0.078425
 H 0.2638 0.5355 0.0624   0.10668
 H 0.1319 0.6569 0.8699   0.081439
 H 0.8026 0.7404 0.1077   0.06166
 H 0.9312 0.615 0.2988   0.090321
 H 0.6914 0.2788 0.473   0.127838
 H 0.6724 0.686 0.4696   0.095634
 H 0.5115 0.5927 0.1579   0.099969
 H 0.726 0.5837 0.6964   0.055964
 H 0.8646 0.5827 0.6096   0.078426
 H 0.7362 0.4645 0.9376   0.10668
 H 0.8681 0.3431 0.1301   0.081439
 H 0.1974 0.2596 0.8923   0.06166
 H 0.0688 0.385 0.7012   0.090321
 C 0.4488 0.687 0.75308   0.751014
 C 0.4061 0.5804 0.69218   -0.129842
 C 0.3347 0.6247 0.56995   -0.105441
 C 0.3018 0.5244 0.51115   0.259243
 C 0.3455 0.381 0.57186   -0.17375
 C 0.4166 0.3372 0.69593   -0.153196
 C 0.4445 0.4367 0.75764   -0.008098
 C 0.4653 0.1823 0.75924   0.838355
 C 0.1913 0.4769 0.3275   0.092238
 C 0.11 0.5606 0.2012   0.042613
 C 0.1706 0.575 0.0717   -0.150857
 C 0.0914 0.6487 0.9564   -0.016788
 C 0.9529 0.7103 0.9679   -0.158951
 C 0.866 0.7857 0.843   0.759891
 C 0.8947 0.6979 0.098   -0.027232
 C 0.9721 0.6234 0.2125   -0.12952
 C 0.5512 0.313 0.24692   0.751014
 C 0.5939 0.4196 0.30782   -0.129841
 C 0.6653 0.3753 0.43005   -0.105441
 C 0.6982 0.4756 0.48885   0.259243
 C 0.6545 0.619 0.42814   -0.17375
 C 0.5834 0.6628 0.30407   -0.153196
 C 0.5555 0.5633 0.24236   -0.008098
 C 0.5347 0.8177 0.24076   0.838355
 C 0.8087 0.5231 0.6725   0.092238
 C 0.89 0.4394 0.7988   0.042613
 C 0.8294 0.425 0.9283   -0.150857
 C 0.9086 0.3513 0.0436   -0.016787
 C 0.0471 0.2897 0.0321   -0.158951
 C 0.134 0.2143 0.157   0.759891
 C 0.1053 0.3021 0.902   -0.027232
 C 0.0279 0.3766 0.7875   -0.12952
 O 0.92337 0.8 0.72795   -0.647493
 O 0.73903 0.8319 0.85916   -0.838335
 O 0.22925 0.57804 0.39044   -0.288785
 O 0.45413 0.81078 0.67615   -0.889392
 O 0.47986 0.65121 0.87626   -0.620126
 O 0.47942 0.09606 0.68608   -0.849908
 O 0.49201 0.13759 0.88544   -0.782401
 O 0.07663 0.2 0.27205   -0.647493
 O 0.26097 0.1681 0.14084   -0.838335
 O 0.77075 0.42196 0.60956   -0.288785
 O 0.54587 0.18922 0.32385   -0.889393
 O 0.52014 0.34879 0.12374   -0.620126
 O 0.52058 0.90394 0.31392   -0.849908
 O 0.50799 0.86241 0.11456   -0.782401
