{'_ref': 'TBD', '_srcid': 'CAKYAQ_clean', 'submitters': [{'name': 'Dalar Nazarian Jeff Camp and David Sholl', 'email': 'dalar@gatech.edu jcamp6@gatech.edu'}], '_method': 'VASP DFT with PBE;DDEC'}
data_Zn4H10C20N2O13
_symmetry_space_group_name_H-M   'P 1'
_cell_length_a   10.33699992
_cell_length_b   14.43700000
_cell_length_c   19.42000000
_cell_angle_alpha   90.00000000
_cell_angle_beta   90.26899794
_cell_angle_gamma   90.00000000
_symmetry_Int_Tables_number   1
_chemical_formula_structural   Zn4H10C20N2O13
_chemical_formula_sum   'Zn8 H20 C40 N4 O26'
_cell_volume   2898.11696219
_cell_formula_units_Z   2
loop_
 _symmetry_equiv_pos_site_id
 _symmetry_equiv_pos_as_xyz
  1  'x, y, z'
loop_
 _atom_site_label
 _atom_site_fract_x
 _atom_site_fract_y
 _atom_site_fract_z
 _atom_site_charge
 Zn 0.65443 0.91599 0.24855   1.035727
 Zn 0.96915 0.98504 0.24971   1.020405
 Zn 0.15505 0.7801 0.25139   1.021553
 Zn 0.46994 0.71062 0.25029   1.01629
 Zn 0.34557 0.41599 0.75145   1.035727
 Zn 0.03085 0.48504 0.75029   1.020405
 Zn 0.84495 0.2801 0.74861   1.021553
 Zn 0.53006 0.21062 0.74971   1.01629
 H 0.9553 0.0867 0.0503   0.121081
 H 0.9236 0.1755 0.9456   0.116483
 H 0.5589 0.0565 0.9418   0.122426
 H 0.5738 0.053 0.0654   0.120719
 H 0.575 0.0511 0.4369   0.097044
 H 0.5499 0.0802 0.5507   0.114579
 H 0.9328 0.1749 0.5495   0.123867
 H 0.947 0.0938 0.4435   0.105311
 H 0.286 0.0793 0.2799   0.149005
 H 0.2716 0.0608 0.2016   0.171303
 H 0.0447 0.5867 0.9497   0.121081
 H 0.0764 0.6755 0.0544   0.116484
 H 0.4411 0.5565 0.0582   0.122426
 H 0.4262 0.553 0.9346   0.120719
 H 0.425 0.5511 0.5631   0.097044
 H 0.4501 0.5802 0.4493   0.114579
 H 0.0672 0.6749 0.4505   0.123867
 H 0.053 0.5938 0.5565   0.105311
 H 0.714 0.5793 0.7201   0.149005
 H 0.7284 0.5608 0.7984   0.171303
 C 0.7918 0.0267 0.1306   0.699686
 C 0.7692 0.0663 0.062   -0.118702
 C 0.8736 0.0956 0.0312   -0.058355
 C 0.8557 0.143 0.9655   -0.05777
 C 0.7343 0.1387 0.9328   -0.15533
 C 0.7215 0.1691 0.8557   0.696485
 C 0.6287 0.08 0.9666   -0.065418
 C 0.644 0.0643 0.0369   -0.051436
 C 0.7923 0.0248 0.3567   0.689285
 C 0.7564 0.0649 0.4341   -0.106991
 C 0.6471 0.0675 0.463   -0.036958
 C 0.6279 0.0925 0.5288   -0.034262
 C 0.7311 0.1387 0.5643   -0.178824
 C 0.724 0.1725 0.6383   0.715549
 C 0.8623 0.1446 0.5298   -0.074605
 C 0.8678 0.1 0.4655   -0.084052
 C 0.231 0.0493 0.2459   -0.047159
 C 0.3649 0.9189 0.2547   0.661843
 C 0.866 0.7918 0.2471   0.606543
 C 0.243 0.969 0.2558   0.232828
 C 0.2082 0.5267 0.8694   0.699686
 C 0.2308 0.5663 0.938   -0.118702
 C 0.1264 0.5956 0.9688   -0.058355
 C 0.1443 0.643 0.0345   -0.05777
 C 0.2657 0.6387 0.0672   -0.15533
 C 0.2785 0.6691 0.1443   0.696485
 C 0.3713 0.58 0.0334   -0.065418
 C 0.356 0.5643 0.9631   -0.051436
 C 0.2077 0.5248 0.6433   0.689285
 C 0.2436 0.5649 0.5659   -0.106991
 C 0.3529 0.5675 0.537   -0.036958
 C 0.3721 0.5925 0.4712   -0.034262
 C 0.2689 0.6387 0.4357   -0.178824
 C 0.276 0.6725 0.3617   0.715549
 C 0.1377 0.6446 0.4702   -0.074605
 C 0.1322 0.6 0.5345   -0.084052
 C 0.769 0.5493 0.7541   -0.04716
 C 0.6351 0.4189 0.7453   0.661843
 C 0.134 0.2918 0.7529   0.606543
 C 0.757 0.469 0.7442   0.232828
 N 0.1317 0.9144 0.2458   -0.753586
 N 0.6264 0.7825 0.2533   -0.638453
 N 0.8683 0.4144 0.7542   -0.753586
 N 0.3736 0.2825 0.7467   -0.638453
 O 0.8965 0.0316 0.1621   -0.573788
 O 0.6898 0.9879 0.1648   -0.682651
 O 0.6059 0.1633 0.8357   -0.587333
 O 0.8169 0.2107 0.837   -0.53558
 O 0.8951 0.036 0.3343   -0.523035
 O 0.6914 0.9873 0.3328   -0.616944
 O 0.6049 0.1686 0.6633   -0.656411
 O 0.8148 0.212 0.6619   -0.542802
 O 0.1117 0.1022 0.2449   -0.42061
 O 0.3569 0.8334 0.2499   -0.611329
 O 0.4637 0.9615 0.2532   -0.519336
 O 0.971 0.7398 0.2494   -0.478669
 O 0.853 0.871 0.2504   -0.427625
 O 0.1035 0.5316 0.8379   -0.573788
 O 0.3102 0.4879 0.8352   -0.682651
 O 0.3941 0.6633 0.1643   -0.587333
 O 0.1831 0.7107 0.163   -0.53558
 O 0.1049 0.536 0.6657   -0.523035
 O 0.3086 0.4873 0.6672   -0.616944
 O 0.3951 0.6686 0.3367   -0.656411
 O 0.1852 0.712 0.3381   -0.542802
 O 0.8883 0.6022 0.7551   -0.42061
 O 0.6431 0.3334 0.7501   -0.611329
 O 0.5363 0.4615 0.7468   -0.519336
 O 0.029 0.2398 0.7506   -0.478669
 O 0.147 0.371 0.7496   -0.427625
