{'_ref': 'TBD', '_srcid': 'CAKYAQ_clean', 'submitters': [{'name': 'Dalar Nazarian Jeff Camp and David Sholl', 'email': 'dalar@gatech.edu jcamp6@gatech.edu'}], '_method': 'VASP DFT with PBE;DDEC'}
data_FeH2(CO2)2
_symmetry_space_group_name_H-M   'P 1'
_cell_length_a   9.95980000
_cell_length_b   11.47019986
_cell_length_c   14.59090000
_cell_angle_alpha   91.17669873
_cell_angle_beta   90.00000000
_cell_angle_gamma   90.00000000
_symmetry_Int_Tables_number   1
_chemical_formula_structural   FeH2(CO2)2
_chemical_formula_sum   'Fe12 H24 C24 O48'
_cell_volume   1666.52598305
_cell_formula_units_Z   12
loop_
 _symmetry_equiv_pos_site_id
 _symmetry_equiv_pos_as_xyz
  1  'x, y, z'
loop_
 _atom_site_label
 _atom_site_fract_x
 _atom_site_fract_y
 _atom_site_fract_z
 _atom_site_charge
 Fe 0.92271 0.75492 0.13308   1.037508
 Fe 0.8882 0.26025 0.68797   1.053107
 Fe 0.42271 0.74508 0.36692   1.037508
 Fe 0.3882 0.23975 0.81203   1.053107
 Fe 0.07729 0.24508 0.86692   1.037507
 Fe 0.1118 0.73975 0.31203   1.053107
 Fe 0.57729 0.25492 0.63308   1.037507
 Fe 0.6118 0.76025 0.18797   1.053107
 Fe 0.0 0.5 0.0   1.078787
 Fe 0.5 0.0 0.5   1.078787
 Fe 0.0 0.0 0.0   1.094811
 Fe 0.5 0.5 0.5   1.094811
 H 0.755 0.8549 0.3689   0.006811
 H 0.041 0.4748 0.2648   0.014405
 H 0.615 0.5645 0.0415   0.011568
 H 0.197 0.9783 0.2363   0.010045
 H 0.153 0.6988 0.9248   0.011836
 H 0.708 0.9931 0.0071   0.019453
 H 0.255 0.6451 0.1311   0.006811
 H 0.541 0.0252 0.2352   0.014405
 H 0.115 0.9355 0.4585   0.011568
 H 0.697 0.5217 0.2637   0.010045
 H 0.653 0.8012 0.5752   0.011836
 H 0.208 0.5069 0.4929   0.019453
 H 0.245 0.1451 0.6311   0.006811
 H 0.959 0.5252 0.7352   0.014405
 H 0.385 0.4355 0.9585   0.011569
 H 0.803 0.0217 0.7637   0.010045
 H 0.847 0.3012 0.0752   0.011836
 H 0.292 0.0069 0.9929   0.019453
 H 0.745 0.3549 0.8689   0.006811
 H 0.459 0.9748 0.7648   0.014405
 H 0.885 0.0645 0.5415   0.011569
 H 0.303 0.4783 0.7363   0.010045
 H 0.347 0.1988 0.4248   0.011836
 H 0.792 0.4931 0.5071   0.019453
 C 0.8291 0.8278 0.3317   0.663281
 C 0.0167 0.51753 0.21143   0.658985
 C 0.7125 0.57614 0.04624   0.650633
 C 0.1316 0.95239 0.18689   0.642872
 C 0.1023 0.74361 0.96731   0.677221
 C 0.7229 0.92931 0.05091   0.652281
 C 0.3291 0.6722 0.1683   0.663281
 C 0.5167 0.98247 0.28857   0.658985
 C 0.2125 0.92386 0.45376   0.650633
 C 0.6316 0.54761 0.31311   0.642871
 C 0.6023 0.75639 0.53269   0.677221
 C 0.2229 0.57069 0.44909   0.652281
 C 0.1709 0.1722 0.6683   0.663281
 C 0.9833 0.48247 0.78857   0.658985
 C 0.2875 0.42386 0.95376   0.650633
 C 0.8684 0.04761 0.81311   0.642872
 C 0.8977 0.25639 0.03269   0.677221
 C 0.2771 0.07069 0.94909   0.652281
 C 0.6709 0.3278 0.8317   0.663281
 C 0.4833 0.01753 0.71143   0.658985
 C 0.7875 0.07614 0.54624   0.650633
 C 0.3684 0.45239 0.68689   0.642871
 C 0.3977 0.24361 0.46731   0.67722
 C 0.7771 0.42931 0.55091   0.652281
 O 0.80217 0.80551 0.24723   -0.628467
 O 0.93932 0.81417 0.36937   -0.55992
 O 0.00822 0.62712 0.21897   -0.631753
 O 0.99888 0.45837 0.14104   -0.577059
 O 0.74426 0.65252 0.10697   -0.639962
 O 0.79115 0.51793 0.99802   -0.5663
 O 0.08511 0.85008 0.19664   -0.637574
 O 0.10538 0.01899 0.12422   -0.56355
 O 0.0275 0.68601 0.02242   -0.637558
 O 0.10986 0.85014 0.96332   -0.574093
 O 0.84453 0.89739 0.06127   -0.617186
 O 0.62348 0.88918 0.09117   -0.563382
 O 0.30217 0.69449 0.25277   -0.628467
 O 0.43932 0.68583 0.13063   -0.55992
 O 0.50822 0.87288 0.28103   -0.631753
 O 0.49888 0.04163 0.35896   -0.577059
 O 0.24426 0.84748 0.39303   -0.639962
 O 0.29115 0.98207 0.50198   -0.5663
 O 0.58511 0.64992 0.30336   -0.637574
 O 0.60538 0.48101 0.37578   -0.56355
 O 0.5275 0.81399 0.47758   -0.637558
 O 0.60986 0.64986 0.53668   -0.574093
 O 0.34453 0.60261 0.43873   -0.617186
 O 0.12348 0.61082 0.40883   -0.563382
 O 0.19783 0.19449 0.75277   -0.628467
 O 0.06068 0.18583 0.63063   -0.55992
 O 0.99178 0.37288 0.78103   -0.631753
 O 0.00112 0.54163 0.85896   -0.577059
 O 0.25574 0.34748 0.89303   -0.639962
 O 0.20885 0.48207 0.00198   -0.5663
 O 0.91489 0.14992 0.80336   -0.637574
 O 0.89462 0.98101 0.87578   -0.56355
 O 0.9725 0.31399 0.97758   -0.637558
 O 0.89014 0.14986 0.03668   -0.574093
 O 0.15547 0.10261 0.93873   -0.617186
 O 0.37652 0.11082 0.90883   -0.563382
 O 0.69783 0.30551 0.74723   -0.628467
 O 0.56068 0.31417 0.86937   -0.55992
 O 0.49178 0.12712 0.71897   -0.631753
 O 0.50112 0.95837 0.64104   -0.577059
 O 0.75574 0.15252 0.60697   -0.639962
 O 0.70885 0.01793 0.49802   -0.5663
 O 0.41489 0.35008 0.69664   -0.637574
 O 0.39462 0.51899 0.62422   -0.56355
 O 0.4725 0.18601 0.52242   -0.637558
 O 0.39014 0.35014 0.46332   -0.574093
 O 0.65547 0.39739 0.56127   -0.617186
 O 0.87652 0.38918 0.59117   -0.563382
