{'_ref': 'TBD', '_srcid': 'CAKYAQ_clean', 'submitters': [{'name': 'Dalar Nazarian Jeff Camp and David Sholl', 'email': 'dalar@gatech.edu jcamp6@gatech.edu'}], '_method': 'VASP DFT with PBE;DDEC'}
data_MgH7C11O3
_symmetry_space_group_name_H-M   'P 1'
_cell_length_a   6.47390023
_cell_length_b   26.55330009
_cell_length_c   26.55330000
_cell_angle_alpha   119.34670056
_cell_angle_beta   94.66149921
_cell_angle_gamma   94.66150006
_symmetry_Int_Tables_number   1
_chemical_formula_structural   MgH7C11O3
_chemical_formula_sum   'Mg6 H42 C66 O18'
_cell_volume   3926.95361486
_cell_formula_units_Z   6
loop_
 _symmetry_equiv_pos_site_id
 _symmetry_equiv_pos_as_xyz
  1  'x, y, z'
loop_
 _atom_site_label
 _atom_site_fract_x
 _atom_site_fract_y
 _atom_site_fract_z
 _atom_site_charge
 Mg 0.9145 0.69876 0.37627   1.643198
 Mg 0.53823 0.62373 0.32249   1.64392
 Mg 0.21574 0.67751 0.30124   1.643255
 Mg 0.0855 0.30124 0.62373   1.643198
 Mg 0.46177 0.37627 0.67751   1.64392
 Mg 0.78426 0.32249 0.69876   1.643255
 H 0.94096 0.84085 0.39705   0.153024
 H 0.69633 0.85963 0.46713   0.098759
 H 0.51428 0.94473 0.50533   0.115046
 H 0.08277 0.95247 0.39931   0.113858
 H 0.03577 0.9071 0.55382   0.121159
 H 0.05231 0.97721 0.61706   0.113555
 H 0.28397 0.95493 0.58285   0.118325
 H 0.54391 0.60295 0.4438   0.152861
 H 0.2292 0.53287 0.3925   0.099257
 H 0.00895 0.49467 0.4394   0.114837
 H 0.68346 0.60069 0.55316   0.114155
 H 0.48195 0.44618 0.35328   0.12085
 H 0.43525 0.38294 0.36015   0.113227
 H 0.70112 0.41715 0.37208   0.118267
 H 0.10011 0.5562 0.15915   0.152806
 H 0.8367 0.6075 0.14037   0.099088
 H 0.56955 0.5606 0.05527   0.114835
 H 0.1303 0.44684 0.04753   0.114263
 H 0.12867 0.64672 0.0929   0.121188
 H 0.0751 0.63985 0.02279   0.113153
 H 0.32904 0.62792 0.04507   0.118402
 H 0.05904 0.15915 0.60295   0.153024
 H 0.30367 0.14037 0.53287   0.098759
 H 0.48572 0.05527 0.49467   0.115046
 H 0.91723 0.04753 0.60069   0.113859
 H 0.96423 0.0929 0.44618   0.121159
 H 0.94769 0.02279 0.38294   0.113556
 H 0.71603 0.04507 0.41715   0.118325
 H 0.45609 0.39705 0.5562   0.152861
 H 0.7708 0.46713 0.6075   0.099257
 H 0.99105 0.50533 0.5606   0.114837
 H 0.31654 0.39931 0.44684   0.114156
 H 0.51805 0.55382 0.64672   0.12085
 H 0.56475 0.61706 0.63985   0.113228
 H 0.29888 0.58285 0.62792   0.118267
 H 0.89989 0.4438 0.84085   0.152806
 H 0.1633 0.3925 0.85963   0.099088
 H 0.43045 0.4394 0.94473   0.114835
 H 0.8697 0.55316 0.95247   0.114264
 H 0.87133 0.35328 0.9071   0.121188
 H 0.9249 0.36015 0.97721   0.113154
 H 0.67096 0.37208 0.95493   0.118402
 C 0.54437 0.74894 0.38687   0.844405
 C 0.42344 0.7992 0.40882   -0.393254
 C 0.2053 0.79475 0.39059   0.443654
 C 0.10527 0.84455 0.41282   -0.309919
 C 0.21355 0.89853 0.45472   0.154965
 C 0.42725 0.90308 0.47345   -0.235893
 C 0.53079 0.85425 0.45103   0.037503
 C 0.10351 0.95036 0.47858   -0.007862
 C 0.05682 0.97722 0.53596   0.117865
 C 0.04551 0.97325 0.44321   -0.205677
 C 0.11022 0.95279 0.57467   -0.370815
 C 0.1575 0.61313 0.36207   0.84584
 C 0.01462 0.59118 0.39038   -0.39309
 C 0.81471 0.60941 0.40416   0.442362
 C 0.69245 0.58718 0.43173   -0.309396
 C 0.75883 0.54528 0.44381   0.155294
 C 0.9538 0.52655 0.42963   -0.235977
 C 0.07976 0.54897 0.40322   0.037386
 C 0.62493 0.52142 0.47178   -0.008856
 C 0.52086 0.46404 0.44126   0.119093
 C 0.6023 0.55679 0.53004   -0.20635
 C 0.53555 0.42533 0.37812   -0.370194
 C 0.79543 0.63793 0.25106   0.846176
 C 0.62424 0.60962 0.2008   -0.393053
 C 0.41055 0.59584 0.20525   0.44254
 C 0.26072 0.56827 0.15545   -0.308735
 C 0.31502 0.55619 0.10147   0.154146
 C 0.52417 0.57037 0.09692   -0.235268
 C 0.67654 0.59678 0.14575   0.036667
 C 0.15315 0.52822 0.04964   -0.00807
 C 0.0796 0.55874 0.02278   0.118591
 C 0.07226 0.46996 0.02675   -0.206347
 C 0.15743 0.62188 0.04721   -0.370541
 C 0.45563 0.25106 0.61313   0.844405
 C 0.57656 0.2008 0.59118   -0.393254
 C 0.7947 0.20525 0.60941   0.443654
 C 0.89473 0.15545 0.58718   -0.309919
 C 0.78645 0.10147 0.54528   0.154965
 C 0.57275 0.09692 0.52655   -0.235893
 C 0.46921 0.14575 0.54897   0.037503
 C 0.89649 0.04964 0.52142   -0.007862
 C 0.94318 0.02278 0.46404   0.117865
 C 0.95449 0.02675 0.55679   -0.205678
 C 0.88978 0.04721 0.42533   -0.370816
 C 0.8425 0.38687 0.63793   0.84584
 C 0.98538 0.40882 0.60962   -0.39309
 C 0.18529 0.39059 0.59584   0.442362
 C 0.30755 0.41282 0.56827   -0.309396
 C 0.24117 0.45472 0.55619   0.155294
 C 0.0462 0.47345 0.57037   -0.235977
 C 0.92024 0.45103 0.59678   0.037386
 C 0.37507 0.47858 0.52822   -0.008856
 C 0.47914 0.53596 0.55874   0.119093
 C 0.3977 0.44321 0.46996   -0.206351
 C 0.46445 0.57467 0.62188   -0.370194
 C 0.20457 0.36207 0.74894   0.846176
 C 0.37576 0.39038 0.7992   -0.393053
 C 0.58945 0.40416 0.79475   0.44254
 C 0.73928 0.43173 0.84455   -0.308735
 C 0.68498 0.44381 0.89853   0.154145
 C 0.47583 0.42963 0.90308   -0.235268
 C 0.32346 0.40322 0.85425   0.036667
 C 0.84685 0.47178 0.95036   -0.00807
 C 0.9204 0.44126 0.97722   0.118591
 C 0.92774 0.53004 0.97325   -0.206348
 C 0.84257 0.37812 0.95279   -0.370541
 O 0.73893 0.75764 0.40601   -0.736922
 O 0.45949 0.69864 0.34981   -0.913155
 O 0.08168 0.74336 0.34958   -0.901952
 O 0.33292 0.59399 0.35163   -0.737534
 O 0.10968 0.65019 0.34883   -0.913674
 O 0.7321 0.65042 0.39378   -0.90184
 O 0.98129 0.64837 0.24236   -0.737497
 O 0.76085 0.65117 0.30136   -0.914217
 O 0.33832 0.60622 0.25664   -0.901686
 O 0.26107 0.24236 0.59399   -0.736922
 O 0.54051 0.30136 0.65019   -0.913155
 O 0.91832 0.25664 0.65042   -0.901952
 O 0.66708 0.40601 0.64837   -0.737534
 O 0.89032 0.34981 0.65117   -0.913674
 O 0.2679 0.34958 0.60622   -0.90184
 O 0.01871 0.35163 0.75764   -0.737497
 O 0.23915 0.34883 0.69864   -0.914217
 O 0.66168 0.39378 0.74336   -0.901686
