{'_ref': 'TBD', '_srcid': 'CAKYAQ_clean', 'submitters': [{'name': 'Dalar Nazarian Jeff Camp and David Sholl', 'email': 'dalar@gatech.edu jcamp6@gatech.edu'}], '_method': 'VASP DFT with PBE;DDEC'}
data_ZnH17C18N5O4
_symmetry_space_group_name_H-M   'P 1'
_cell_length_a   9.26700019
_cell_length_b   13.25700000
_cell_length_c   16.32400000
_cell_angle_alpha   90.00000000
_cell_angle_beta   94.97499936
_cell_angle_gamma   90.00000000
_symmetry_Int_Tables_number   1
_chemical_formula_structural   ZnH17C18N5O4
_chemical_formula_sum   'Zn4 H68 C72 N20 O16'
_cell_volume   1997.89094202
_cell_formula_units_Z   4
loop_
 _symmetry_equiv_pos_site_id
 _symmetry_equiv_pos_as_xyz
  1  'x, y, z'
loop_
 _atom_site_label
 _atom_site_fract_x
 _atom_site_fract_y
 _atom_site_fract_z
 _atom_site_charge
 Zn 0.7309 0.15523 0.81676   0.895258
 Zn 0.7691 0.65523 0.68324   0.895258
 Zn 0.2691 0.84477 0.18324   0.895258
 Zn 0.2309 0.34477 0.31676   0.895258
 H 0.9984 0.1974 0.0441   0.090455
 H 0.254 0.0255 0.9185   0.098192
 H 0.4008 0.1346 0.1398   0.10193
 H 0.2842 0.324 0.9041   0.13135
 H 0.6813 0.2472 0.9875   0.113321
 H 0.3878 0.2227 0.8074   0.102233
 H 0.3598 0.3761 0.048   0.089381
 H 0.5044 0.3331 0.0915   0.111114
 H 0.6363 0.4608 0.0269   0.071259
 H 0.5287 0.5077 0.0854   0.091062
 H 0.778 0.8912 0.6075   0.105656
 H 0.493 0.8299 0.586   0.093802
 H 0.3874 0.919 0.6018   0.074918
 H 0.4777 0.0241 0.7252   0.110519
 H 0.8888 0.9899 0.719   0.095156
 H 0.4311 0.916 0.4637   0.085041
 H 0.5981 0.9235 0.4871   0.078337
 H 0.5016 0.6974 0.4559   0.090456
 H 0.246 0.5255 0.5815   0.098191
 H 0.0992 0.6346 0.3602   0.10193
 H 0.2158 0.824 0.5959   0.131349
 H 0.8187 0.7472 0.5125   0.113321
 H 0.1122 0.7227 0.6926   0.102233
 H 0.1402 0.8761 0.452   0.089381
 H 0.9956 0.8331 0.4085   0.111114
 H 0.8637 0.9608 0.4731   0.071259
 H 0.9713 0.0077 0.4146   0.091062
 H 0.722 0.3912 0.8925   0.105655
 H 0.007 0.3299 0.914   0.093802
 H 0.1126 0.419 0.8982   0.074918
 H 0.0223 0.5241 0.7748   0.110519
 H 0.6112 0.4899 0.781   0.095156
 H 0.0689 0.416 0.0363   0.085041
 H 0.9019 0.4235 0.0129   0.078338
 H 0.0016 0.8026 0.9559   0.090456
 H 0.746 0.9745 0.0815   0.098194
 H 0.5992 0.8654 0.8602   0.101928
 H 0.7158 0.676 0.0959   0.131349
 H 0.3187 0.7528 0.0125   0.113321
 H 0.6122 0.7773 0.1926   0.102231
 H 0.6402 0.6239 0.952   0.089381
 H 0.4956 0.6669 0.9085   0.111113
 H 0.3637 0.5392 0.9731   0.071259
 H 0.4713 0.4923 0.9146   0.091062
 H 0.222 0.1088 0.3925   0.105656
 H 0.507 0.1701 0.414   0.093802
 H 0.6126 0.081 0.3982   0.074919
 H 0.5223 0.9759 0.2748   0.11052
 H 0.1112 0.0101 0.281   0.095157
 H 0.5689 0.084 0.5363   0.085041
 H 0.4019 0.0765 0.5129   0.078337
 H 0.4984 0.3026 0.5441   0.090456
 H 0.754 0.4745 0.4185   0.098193
 H 0.9008 0.3654 0.6398   0.101928
 H 0.7842 0.176 0.4041   0.131349
 H 0.1813 0.2528 0.4875   0.113321
 H 0.8878 0.2773 0.3074   0.102231
 H 0.8598 0.1239 0.548   0.089381
 H 0.0044 0.1669 0.5915   0.111113
 H 0.1363 0.0392 0.5269   0.071259
 H 0.0287 0.9923 0.5854   0.091062
 H 0.278 0.6088 0.1075   0.105655
 H 0.993 0.6701 0.086   0.093802
 H 0.8874 0.581 0.1018   0.074918
 H 0.9777 0.4759 0.2252   0.110519
 H 0.3888 0.5101 0.219   0.095157
 H 0.9311 0.584 0.9637   0.085041
 H 0.0981 0.5765 0.9871   0.078338
 C 0.0875 0.1664 0.0399   0.008561
 C 0.1106 0.1112 0.9703   -0.149589
 C 0.1739 0.2373 0.1773   0.656991
 C 0.9976 0.1071 0.899   0.677635
 C 0.196 0.1758 0.1035   -0.136139
 C 0.2392 0.0636 0.9649   -0.067043
 C 0.3273 0.1284 0.0976   -0.103635
 C 0.3492 0.0715 0.0286   0.136624
 C 0.3765 0.2959 0.9086   -0.155343
 C 0.5958 0.2527 0.9535   0.131834
 C 0.4356 0.241 0.8576   0.082725
 C 0.4623 0.3668 0.0424   -0.051508
 C 0.5347 0.4704 0.0347   -0.163544
 C 0.7314 0.9299 0.6448   -0.159406
 C 0.4839 0.9027 0.5871   -0.02904
 C 0.5681 0.0034 0.7108   0.137872
 C 0.7893 0.984 0.7067   0.073587
 C 0.5043 0.9448 0.5029   -0.1645
 C 0.4125 0.6664 0.4601   0.008561
 C 0.3894 0.6112 0.5297   -0.149589
 C 0.3261 0.7373 0.3227   0.656991
 C 0.5024 0.6071 0.601   0.677635
 C 0.304 0.6758 0.3965   -0.136139
 C 0.2608 0.5636 0.5351   -0.067043
 C 0.1727 0.6284 0.4024   -0.103635
 C 0.1508 0.5715 0.4714   0.136624
 C 0.1235 0.7959 0.5914   -0.155342
 C 0.9042 0.7527 0.5465   0.131833
 C 0.0644 0.741 0.6424   0.082725
 C 0.0377 0.8668 0.4576   -0.051508
 C 0.9653 0.9704 0.4653   -0.163544
 C 0.7686 0.4299 0.8552   -0.159406
 C 0.0161 0.4027 0.9129   -0.02904
 C 0.9319 0.5034 0.7892   0.137872
 C 0.7107 0.484 0.7933   0.073587
 C 0.9957 0.4448 0.9971   -0.164501
 C 0.9125 0.8336 0.9601   0.008561
 C 0.8894 0.8888 0.0297   -0.14959
 C 0.8261 0.7627 0.8227   0.656991
 C 0.0024 0.8929 0.101   0.677634
 C 0.804 0.8242 0.8965   -0.136138
 C 0.7608 0.9364 0.0351   -0.06704
 C 0.6727 0.8716 0.9024   -0.103636
 C 0.6508 0.9285 0.9714   0.136615
 C 0.6235 0.7041 0.0914   -0.155343
 C 0.4042 0.7473 0.0465   0.131832
 C 0.5644 0.759 0.1424   0.082725
 C 0.5377 0.6332 0.9576   -0.051508
 C 0.4653 0.5296 0.9653   -0.163544
 C 0.2686 0.0701 0.3552   -0.159406
 C 0.5161 0.0973 0.4129   -0.02904
 C 0.4319 0.9966 0.2892   0.137872
 C 0.2107 0.016 0.2933   0.073587
 C 0.4957 0.0552 0.4971   -0.164498
 C 0.5875 0.3336 0.5399   0.008561
 C 0.6106 0.3888 0.4703   -0.14959
 C 0.6739 0.2627 0.6773   0.656991
 C 0.4976 0.3929 0.399   0.677634
 C 0.696 0.3242 0.6035   -0.136138
 C 0.7392 0.4364 0.4649   -0.06704
 C 0.8273 0.3716 0.5976   -0.103636
 C 0.8492 0.4285 0.5286   0.136615
 C 0.8765 0.2041 0.4086   -0.155343
 C 0.0958 0.2473 0.4535   0.131832
 C 0.9356 0.259 0.3576   0.082725
 C 0.9623 0.1332 0.5424   -0.051508
 C 0.0347 0.0296 0.5347   -0.163544
 C 0.2314 0.5701 0.1448   -0.159406
 C 0.9839 0.5973 0.0871   -0.02904
 C 0.0681 0.4966 0.2108   0.137872
 C 0.2893 0.516 0.2067   0.073587
 C 0.0043 0.5552 0.0029   -0.164498
 N 0.4805 0.3034 0.9709   0.053506
 N 0.5714 0.2108 0.8803   -0.379587
 N 0.4884 0.0255 0.0305   -0.164329
 N 0.6937 0.0294 0.7499   -0.374363
 N 0.5905 0.9439 0.6484   0.070644
 N 0.0195 0.8034 0.5291   0.053506
 N 0.9286 0.7108 0.6197   -0.379587
 N 0.0116 0.5255 0.4695   -0.164329
 N 0.8063 0.5294 0.7501   -0.374363
 N 0.9095 0.4439 0.8516   0.070644
 N 0.5195 0.6966 0.0291   0.053506
 N 0.4286 0.7892 0.1197   -0.379586
 N 0.5116 0.9745 0.9695   -0.164242
 N 0.3063 0.9706 0.2501   -0.374362
 N 0.4095 0.0561 0.3516   0.070644
 N 0.9805 0.1966 0.4709   0.053506
 N 0.0714 0.2892 0.3803   -0.379586
 N 0.9884 0.4745 0.5305   -0.164242
 N 0.1937 0.4706 0.2499   -0.374362
 N 0.0905 0.5561 0.1484   0.070644
 O 0.8786 0.1525 0.9089   -0.642225
 O 0.2825 0.2523 0.2284   -0.620132
 O 0.0519 0.2728 0.1863   -0.627666
 O 0.022 0.0647 0.8362   -0.580954
 O 0.6214 0.6525 0.5911   -0.642225
 O 0.2175 0.7523 0.2716   -0.620132
 O 0.4481 0.7728 0.3137   -0.627666
 O 0.478 0.5647 0.6638   -0.580954
 O 0.1214 0.8475 0.0911   -0.642225
 O 0.7175 0.7477 0.7716   -0.620131
 O 0.9481 0.7272 0.8137   -0.627665
 O 0.978 0.9353 0.1638   -0.580955
 O 0.3786 0.3475 0.4089   -0.642225
 O 0.7825 0.2477 0.7284   -0.620131
 O 0.5519 0.2272 0.6863   -0.627665
 O 0.522 0.4353 0.3362   -0.580955
