{'_ref': 'TBD', '_srcid': 'CAKYAQ_clean', 'submitters': [{'name': 'Dalar Nazarian Jeff Camp and David Sholl', 'email': 'dalar@gatech.edu jcamp6@gatech.edu'}], '_method': 'VASP DFT with PBE;DDEC'}
data_CoH14C18(NO2)2
_symmetry_space_group_name_H-M   'P 1'
_cell_length_a   10.01959954
_cell_length_b   13.56340048
_cell_length_c   17.58110000
_cell_angle_alpha   71.96800030
_cell_angle_beta   83.62500188
_cell_angle_gamma   78.83299894
_symmetry_Int_Tables_number   1
_chemical_formula_structural   CoH14C18(NO2)2
_chemical_formula_sum   'Co3 H42 C54 N6 O12'
_cell_volume   2225.55786962
_cell_formula_units_Z   3
loop_
 _symmetry_equiv_pos_site_id
 _symmetry_equiv_pos_as_xyz
  1  'x, y, z'
loop_
 _atom_site_label
 _atom_site_fract_x
 _atom_site_fract_y
 _atom_site_fract_z
 _atom_site_charge
 Co 0.80028 0.5082 0.57022   0.953579
 Co 0.19972 0.4918 0.42978   0.953579
 Co 0.0 0.5 0.0   0.86554
 H 0.3481 0.4876 0.5745   0.08489
 H 0.0682 0.4924 0.7551   0.103551
 H 0.455 0.5144 0.7792   0.110282
 H 0.6076 0.3591 0.5597   0.076743
 H 0.6109 0.1954 0.5488   0.117424
 H 0.0149 0.1454 0.5526   0.110688
 H 0.000999999999998 0.3106 0.563   0.062531
 H 0.8549 0.0395 0.4905   0.096933
 H 0.8927 0.9928 0.5801   0.092867
 H 0.6267 0.0337 0.5265   0.087288
 H 0.6556 0.9992 0.6178   0.097914
 H 0.8593 0.6479 0.6688   0.09378
 H 0.81 0.819 0.672   0.138165
 H 0.6406 0.899 0.4624   0.126173
 H 0.6891 0.7259 0.4657   0.082541
 H 0.1705 0.6774 0.9363   0.087377
 H 0.1599 0.8518 0.9219   0.133407
 H 0.7905 0.8601 0.0297   0.134553
 H 0.8077 0.6861 0.042   0.081323
 H 0.8735 0.024 0.9748   0.088345
 H 0.0078 0.0264 0.9201   0.088606
 H 0.6519 0.5124 0.4255   0.084891
 H 0.9318 0.5076 0.2449   0.103551
 H 0.545 0.4856 0.2208   0.110282
 H 0.3924 0.6409 0.4403   0.076744
 H 0.3891 0.8046 0.4512   0.117425
 H 0.9851 0.8546 0.4474   0.110687
 H 0.999 0.6894 0.437   0.062531
 H 0.1451 0.9605 0.5095   0.096931
 H 0.1073 0.0072 0.4199   0.092865
 H 0.3733 0.9663 0.4735   0.087288
 H 0.3444 0.000799999999998 0.3822   0.097918
 H 0.1407 0.3521 0.3312   0.09378
 H 0.19 0.181 0.328   0.138165
 H 0.3594 0.101 0.5376   0.126176
 H 0.3109 0.2741 0.5343   0.082543
 H 0.8295 0.3226 0.0637   0.087377
 H 0.8401 0.1482 0.0781   0.13342
 H 0.2095 0.1399 0.9703   0.134574
 H 0.1923 0.3139 0.958   0.081323
 H 0.1265 0.976 0.0252   0.088352
 H 0.9922 0.9736 0.0799   0.088607
 C 0.4231 0.5041 0.67091   -0.156709
 C 0.325 0.49163 0.62628   0.00073
 C 0.1932 0.48515 0.65806   -0.192052
 C 0.1576 0.49389 0.73444   -0.001269
 C 0.2559 0.5049 0.78058   -0.1565
 C 0.3888 0.5087 0.74843   0.012077
 C 0.5647 0.50973 0.63488   0.619214
 C 0.2186 0.5116 0.86421   0.652993
 C 0.6912 0.3153 0.55878   0.205581
 C 0.6925 0.2164 0.5523   -0.239872
 C 0.8138 0.1484 0.55091   0.150636
 C 0.9299 0.1871 0.5544   -0.251288
 C 0.9208 0.287 0.56073   0.204127
 C 0.8238 0.0391 0.5448   -0.15746
 C 0.693 0.9937 0.5657   -0.164342
 C 0.8131 0.6988 0.62717   0.190916
 C 0.7849 0.8019 0.6289   -0.242995
 C 0.7193 0.8795 0.567   0.14389
 C 0.6843 0.8493 0.5056   -0.25664
 C 0.7141 0.7447 0.50804   0.191929
 C 0.0927 0.7137 0.9559   0.204852
 C 0.0876 0.8186 0.948   -0.249018
 C 0.8702 0.8244 0.0114   -0.244086
 C 0.8808 0.7197 0.0176   0.196591
 C 0.9753 0.8753 0.9788   0.155841
 C 0.9684 0.9917 0.9721   -0.152525
 C 0.0896 0.46901 0.60888   0.684376
 C 0.5769 0.4959 0.32909   -0.156709
 C 0.675 0.50837 0.37372   0.000731
 C 0.8068 0.51485 0.34194   -0.192051
 C 0.8424 0.50611 0.26556   -0.001269
 C 0.7441 0.4951 0.21942   -0.1565
 C 0.6112 0.4913 0.25157   0.012077
 C 0.4353 0.49027 0.36512   0.619215
 C 0.7814 0.4884 0.13579   0.652994
 C 0.3088 0.6847 0.44122   0.205582
 C 0.3075 0.7836 0.4477   -0.239872
 C 0.1862 0.8516 0.44909   0.150635
 C 0.0701 0.8129 0.4456   -0.251288
 C 0.0792 0.713 0.43927   0.204127
 C 0.1762 0.9609 0.4552   -0.157458
 C 0.307 0.0063 0.4343   -0.164344
 C 0.1869 0.3012 0.37283   0.190916
 C 0.2151 0.1981 0.3711   -0.242995
 C 0.2807 0.1205 0.433   0.14389
 C 0.3157 0.1507 0.4944   -0.256641
 C 0.2859 0.2553 0.49196   0.191929
 C 0.9073 0.2863 0.0441   0.204854
 C 0.9124 0.1814 0.052   -0.249022
 C 0.1298 0.1756 0.9886   -0.244094
 C 0.1192 0.2803 0.9824   0.196594
 C 0.0247 0.1247 0.0212   0.155841
 C 0.0316 0.0083 0.0279   -0.152486
 C 0.9104 0.53099 0.39112   0.684376
 N 0.80356 0.35154 0.56379   -0.3655
 N 0.77649 0.66954 0.56771   -0.345646
 N 0.9909 0.66226 0.99031   -0.37114
 N 0.19644 0.64846 0.43621   -0.3655
 N 0.22351 0.33046 0.43229   -0.345646
 N 0.0091 0.33774 0.00969   -0.371141
 O 0.66403 0.48087 0.67975   -0.560671
 O 0.58339 0.54037 0.56035   -0.563303
 O 0.09486 0.52133 0.88627   -0.628916
 O 0.31501 0.5025 0.90808   -0.617123
 O 0.96761 0.47614 0.63542   -0.561896
 O 0.13217 0.44611 0.54578   -0.616572
 O 0.33597 0.51913 0.32025   -0.560671
 O 0.41661 0.45963 0.43965   -0.563303
 O 0.90514 0.47867 0.11373   -0.628916
 O 0.68499 0.4975 0.09192   -0.617127
 O 0.03239 0.52386 0.36458   -0.561896
 O 0.86783 0.55389 0.45422   -0.616572
