{'_ref': 'TBD', '_srcid': 'CAKYAQ_clean', 'submitters': [{'name': 'Dalar Nazarian Jeff Camp and David Sholl', 'email': 'dalar@gatech.edu jcamp6@gatech.edu'}], '_method': 'VASP DFT with PBE;DDEC'}
data_CuH2(CO)4
_symmetry_space_group_name_H-M   'P 1'
_cell_length_a   4.76110029
_cell_length_b   17.66650000
_cell_length_c   17.66649959
_cell_angle_alpha   88.95959946
_cell_angle_beta   82.25579907
_cell_angle_gamma   82.25590008
_symmetry_Int_Tables_number   1
_chemical_formula_structural   CuH2(CO)4
_chemical_formula_sum   'Cu8 H16 C32 O32'
_cell_volume   1458.9828337
_cell_formula_units_Z   8
loop_
 _symmetry_equiv_pos_site_id
 _symmetry_equiv_pos_as_xyz
  1  'x, y, z'
loop_
 _atom_site_label
 _atom_site_fract_x
 _atom_site_fract_y
 _atom_site_fract_z
 _atom_site_charge
 Cu 0.97273 0.73265 0.96421   0.863361
 Cu 0.16959 0.76735 0.53579   0.863009
 Cu 0.70539 0.46421 0.26734   0.863809
 Cu 0.93693 0.03579 0.23266   0.86324
 Cu 0.02727 0.26735 0.03579   0.863363
 Cu 0.83041 0.23265 0.46421   0.863012
 Cu 0.29461 0.53579 0.73266   0.863811
 Cu 0.06307 0.96421 0.76734   0.863242
 H 0.353 0.9286 0.063   0.143459
 H 0.8016 0.0266 0.047   0.116612
 H 0.8446 0.5714 0.437   0.143341
 H 0.3752 0.4734 0.453   0.116476
 H 0.2816 0.563 0.0714   0.142978
 H 0.8282 0.547 0.9734   0.11619
 H 0.416 0.937 0.4286   0.142861
 H 0.8486 0.953 0.5266   0.11585
 H 0.647 0.0714 0.937   0.143459
 H 0.1984 0.9734 0.953   0.116612
 H 0.1554 0.4286 0.563   0.143341
 H 0.6248 0.5266 0.547   0.116476
 H 0.7184 0.437 0.9286   0.142978
 H 0.1718 0.453 0.0266   0.11619
 H 0.584 0.063 0.5714   0.142861
 H 0.1514 0.047 0.4734   0.115849
 C 0.74303 0.87506 0.01888   0.645298
 C 0.5171 0.94356 0.02544   -0.133981
 C 0.5995 0.02183 0.04817   -0.144722
 C 0.43975 0.05317 0.12333   0.673725
 C 0.13697 0.62494 0.48112   0.647583
 C 0.9861 0.55644 0.47456   -0.133876
 C 0.1695 0.47817 0.45183   -0.144334
 C 0.11625 0.44683 0.37667   0.673333
 C 0.61809 0.51888 0.12494   0.647944
 C 0.46066 0.52544 0.05644   -0.134316
 C 0.62133 0.54817 0.97817   -0.143191
 C 0.49292 0.62333 0.94683   0.673991
 C 0.76191 0.98112 0.37506   0.645059
 C 0.54254 0.97456 0.44356   -0.133083
 C 0.64767 0.95183 0.52183   -0.144138
 C 0.56308 0.87667 0.55317   0.675384
 C 0.25697 0.12494 0.98112   0.645298
 C 0.4829 0.05644 0.97456   -0.133982
 C 0.4005 0.97817 0.95183   -0.144722
 C 0.56025 0.94683 0.87667   0.673725
 C 0.86303 0.37506 0.51888   0.647583
 C 0.0139 0.44356 0.52544   -0.133876
 C 0.8305 0.52183 0.54817   -0.144334
 C 0.88375 0.55317 0.62333   0.673333
 C 0.38191 0.48112 0.87506   0.647944
 C 0.53934 0.47456 0.94356   -0.134317
 C 0.37867 0.45183 0.02183   -0.143191
 C 0.50708 0.37667 0.05317   0.673991
 C 0.23809 0.01888 0.62494   0.645059
 C 0.45746 0.02544 0.55644   -0.133083
 C 0.35233 0.04817 0.47817   -0.144138
 C 0.43692 0.12333 0.44683   0.675384
 O 0.9308 0.86784 0.06256   -0.511543
 O 0.7148 0.82557 0.96983   -0.558759
 O 0.55597 0.09274 0.16572   -0.519919
 O 0.18874 0.03533 0.13859   -0.573637
 O 0.3612 0.63216 0.43744   -0.512131
 O 0.0102 0.67443 0.53017   -0.560036
 O 0.31443 0.40726 0.33428   -0.520277
 O 0.86266 0.46467 0.36141   -0.573328
 O 0.79864 0.56256 0.13216   -0.512956
 O 0.54037 0.46983 0.17443   -0.55991
 O 0.64871 0.66572 0.90726   -0.520964
 O 0.22407 0.63859 0.96467   -0.57354
 O 0.99336 0.93744 0.36784   -0.511266
 O 0.68463 0.03017 0.32557   -0.558678
 O 0.72169 0.83428 0.59274   -0.52082
 O 0.32733 0.86141 0.53533   -0.574101
 O 0.0692 0.13216 0.93744   -0.511543
 O 0.2852 0.17443 0.03017   -0.558759
 O 0.44403 0.90726 0.83428   -0.519919
 O 0.81126 0.96467 0.86141   -0.573637
 O 0.6388 0.36784 0.56256   -0.512131
 O 0.9898 0.32557 0.46983   -0.560036
 O 0.68557 0.59274 0.66572   -0.520276
 O 0.13734 0.53533 0.63859   -0.573329
 O 0.20136 0.43744 0.86784   -0.512956
 O 0.45963 0.53017 0.82557   -0.559911
 O 0.35129 0.33428 0.09274   -0.520963
 O 0.77593 0.36141 0.03533   -0.57354
 O 0.00664 0.06256 0.63216   -0.511266
 O 0.31537 0.96983 0.67443   -0.558678
 O 0.27831 0.16572 0.40726   -0.52082
 O 0.67267 0.13859 0.46467   -0.574102
