{'_ref': 'TBD', '_srcid': 'CAKYAQ_clean', 'submitters': [{'name': 'Dalar Nazarian Jeff Camp and David Sholl', 'email': 'dalar@gatech.edu jcamp6@gatech.edu'}], '_method': 'VASP DFT with PBE;DDEC'}
data_CuH9C10N2Cl
_symmetry_space_group_name_H-M   'P 1'
_cell_length_a   12.45220000
_cell_length_b   15.93270000
_cell_length_c   15.93270000
_cell_angle_alpha   90.00000000
_cell_angle_beta   90.00000000
_cell_angle_gamma   90.00000000
_symmetry_Int_Tables_number   1
_chemical_formula_structural   CuH9C10N2Cl
_chemical_formula_sum   'Cu8 H72 C80 N16 Cl8'
_cell_volume   3161.0025417
_cell_formula_units_Z   8
loop_
 _symmetry_equiv_pos_site_id
 _symmetry_equiv_pos_as_xyz
  1  'x, y, z'
loop_
 _atom_site_label
 _atom_site_fract_x
 _atom_site_fract_y
 _atom_site_fract_z
 _atom_site_charge
 Cu 0.62376 0.51565 0.00211   0.354968
 Cu 0.12376 0.48435 0.99789   0.354968
 Cu 0.87376 0.49789 0.01565   0.354969
 Cu 0.37376 0.50211 0.98435   0.354969
 Cu 0.62624 0.98435 0.50211   0.354969
 Cu 0.12624 0.01565 0.49789   0.354969
 Cu 0.37624 0.00211 0.51565   0.354969
 Cu 0.87624 0.99789 0.48435   0.354969
 H 0.2474 0.6029 0.8288   0.10998
 H 0.2458 0.6299 0.9226   0.101964
 H 0.7595 0.719 0.723   0.069704
 H 0.7506 0.6495 0.9401   0.105359
 H 0.7598 0.6095 0.8515   0.113381
 H 0.1432 0.7215 0.8387   0.089823
 H 0.2379 0.7658 0.8835   0.063817
 H 0.8544 0.7288 0.8437   0.087475
 H 0.7602 0.7781 0.8836   0.058132
 H 0.7474 0.3971 0.1712   0.10998
 H 0.7458 0.3701 0.0774   0.101964
 H 0.2595 0.281 0.277   0.069704
 H 0.2506 0.3505 0.0599   0.105359
 H 0.2598 0.3905 0.1485   0.113381
 H 0.6432 0.2785 0.1613   0.089823
 H 0.7379 0.2342 0.1165   0.063817
 H 0.3544 0.2712 0.1563   0.087475
 H 0.2602 0.2219 0.1164   0.058132
 H 0.4974 0.6712 0.1029   0.109981
 H 0.4958 0.5774 0.1299   0.101964
 H 0.0095 0.777 0.219   0.069704
 H 0.000599999999999 0.5599 0.1495   0.105359
 H 0.0098 0.6485 0.1095   0.113384
 H 0.3932 0.6613 0.2215   0.089824
 H 0.4879 0.6165 0.2658   0.063819
 H 0.1044 0.6563 0.2288   0.087475
 H 0.0102 0.6164 0.2781   0.058133
 H 0.9974 0.3288 0.8971   0.109981
 H 0.9958 0.4226 0.8701   0.101964
 H 0.5095 0.223 0.781   0.069704
 H 0.5006 0.4401 0.8505   0.105359
 H 0.5098 0.3515 0.8905   0.113384
 H 0.8932 0.3387 0.7785   0.089824
 H 0.9879 0.3835 0.7342   0.063819
 H 0.6044 0.3437 0.7712   0.087475
 H 0.5102 0.3836 0.7219   0.058133
 H 0.0026 0.8971 0.3288   0.109982
 H 0.0042 0.8701 0.4226   0.101964
 H 0.4905 0.781 0.223   0.069707
 H 0.4994 0.8505 0.4401   0.105359
 H 0.4902 0.8905 0.3515   0.113381
 H 0.1068 0.7785 0.3387   0.089828
 H 0.0121 0.7342 0.3835   0.063817
 H 0.3956 0.7712 0.3437   0.087478
 H 0.4898 0.7219 0.3836   0.058133
 H 0.5026 0.1029 0.6712   0.109982
 H 0.5042 0.1299 0.5774   0.101964
 H 0.9905 0.219 0.777   0.069707
 H 0.9994 0.1495 0.5599   0.105359
 H 0.9902 0.1095 0.6485   0.113381
 H 0.6068 0.2215 0.6613   0.089828
 H 0.5121 0.2658 0.6165   0.063817
 H 0.8956 0.2288 0.6563   0.087478
 H 0.9898 0.2781 0.6164   0.058133
 H 0.7526 0.8288 0.6029   0.109982
 H 0.7542 0.9226 0.6299   0.101964
 H 0.2405 0.723 0.719   0.069707
 H 0.2494 0.9401 0.6495   0.105359
 H 0.2402 0.8515 0.6095   0.113384
 H 0.8568 0.8387 0.7215   0.089828
 H 0.7621 0.8835 0.7658   0.063819
 H 0.1456 0.8437 0.7288   0.087478
 H 0.2398 0.8836 0.7781   0.058134
 H 0.2526 0.1712 0.3971   0.109982
 H 0.2542 0.0774 0.3701   0.101964
 H 0.7405 0.277 0.281   0.069707
 H 0.7494 0.0599 0.3505   0.105359
 H 0.7402 0.1485 0.3905   0.113384
 H 0.3568 0.1613 0.2785   0.089828
 H 0.2621 0.1165 0.2342   0.063819
 H 0.6456 0.1563 0.2712   0.087478
 H 0.7398 0.1164 0.2219   0.058134
 C 0.6076 0.6552 0.8746   0.222823
 C 0.5559 0.7104 0.8176   -0.063553
 C 0.6149 0.7636 0.7624   0.027103
 C 0.4436 0.7101 0.8149   -0.06582
 C 0.3894 0.649 0.8679   0.237957
 C 0.2709 0.645 0.8677   -0.221014
 C 0.7371 0.7616 0.7618   -0.013034
 C 0.7304 0.6559 0.8823   -0.21844
 C 0.22 0.7257 0.8408   -0.10838
 C 0.7776 0.7337 0.8451   -0.107469
 C 0.1076 0.3448 0.1254   0.222823
 C 0.0559 0.2896 0.1824   -0.063553
 C 0.1149 0.2364 0.2376   0.027103
 C 0.9436 0.2899 0.1851   -0.06582
 C 0.8894 0.351 0.1321   0.237957
 C 0.7709 0.355 0.1323   -0.221014
 C 0.2371 0.2384 0.2382   -0.013034
 C 0.2304 0.3441 0.1177   -0.21844
 C 0.72 0.2743 0.1592   -0.10838
 C 0.2776 0.2663 0.1549   -0.107469
 C 0.8576 0.6254 0.1552   0.222823
 C 0.8059 0.6824 0.2104   -0.063553
 C 0.8649 0.7376 0.2636   0.027103
 C 0.6936 0.6851 0.2101   -0.06582
 C 0.6394 0.6321 0.149   0.237957
 C 0.5209 0.6323 0.145   -0.221014
 C 0.9871 0.7382 0.2616   -0.013034
 C 0.9804 0.6177 0.1559   -0.218441
 C 0.47 0.6592 0.2257   -0.10838
 C 0.0276 0.6549 0.2337   -0.107469
 C 0.3576 0.3746 0.8448   0.222823
 C 0.3059 0.3176 0.7896   -0.063553
 C 0.3649 0.2624 0.7364   0.027103
 C 0.1936 0.3149 0.7899   -0.06582
 C 0.1394 0.3679 0.851   0.237957
 C 0.0209 0.3677 0.855   -0.221014
 C 0.4871 0.2618 0.7384   -0.013034
 C 0.4804 0.3823 0.8441   -0.218441
 C 0.97 0.3408 0.7743   -0.10838
 C 0.5276 0.3451 0.7663   -0.107469
 C 0.6424 0.8448 0.3746   0.222824
 C 0.6941 0.7896 0.3176   -0.063557
 C 0.6351 0.7364 0.2624   0.027115
 C 0.8064 0.7899 0.3149   -0.065806
 C 0.8606 0.851 0.3679   0.237954
 C 0.9791 0.855 0.3677   -0.221013
 C 0.5129 0.7384 0.2618   -0.013037
 C 0.5196 0.8441 0.3823   -0.21844
 C 0.03 0.7743 0.3408   -0.108382
 C 0.4724 0.7663 0.3451   -0.107469
 C 0.1424 0.1552 0.6254   0.222824
 C 0.1941 0.2104 0.6824   -0.063557
 C 0.1351 0.2636 0.7376   0.027115
 C 0.3064 0.2101 0.6851   -0.065806
 C 0.3606 0.149 0.6321   0.237954
 C 0.4791 0.145 0.6323   -0.221013
 C 0.0129 0.2616 0.7382   -0.013037
 C 0.0196 0.1559 0.6177   -0.21844
 C 0.53 0.2257 0.6592   -0.108382
 C 0.9724 0.2337 0.6549   -0.107469
 C 0.3924 0.8746 0.6552   0.222824
 C 0.4441 0.8176 0.7104   -0.063557
 C 0.3851 0.7624 0.7636   0.027115
 C 0.5564 0.8149 0.7101   -0.065806
 C 0.6106 0.8679 0.649   0.237954
 C 0.7291 0.8677 0.645   -0.221014
 C 0.2629 0.7618 0.7616   -0.013037
 C 0.2696 0.8823 0.6559   -0.218441
 C 0.78 0.8408 0.7257   -0.108383
 C 0.2224 0.8451 0.7337   -0.107469
 C 0.8924 0.1254 0.3448   0.222824
 C 0.9441 0.1824 0.2896   -0.063557
 C 0.8851 0.2376 0.2364   0.027115
 C 0.0564 0.1851 0.2899   -0.065806
 C 0.1106 0.1321 0.351   0.237954
 C 0.2291 0.1323 0.355   -0.221014
 C 0.7629 0.2382 0.2384   -0.013037
 C 0.7696 0.1177 0.3441   -0.218441
 C 0.28 0.1592 0.2743   -0.108383
 C 0.7224 0.1549 0.2663   -0.107469
 N 0.5539 0.6002 0.9209   -0.183693
 N 0.4425 0.5977 0.9174   -0.177165
 N 0.0539 0.3998 0.0791   -0.183693
 N 0.9425 0.4023 0.0826   -0.177165
 N 0.8039 0.5791 0.1002   -0.183693
 N 0.6925 0.5826 0.0977   -0.177165
 N 0.3039 0.4209 0.8998   -0.183693
 N 0.1925 0.4174 0.9023   -0.177165
 N 0.6961 0.8998 0.4209   -0.183693
 N 0.8075 0.9023 0.4174   -0.177165
 N 0.1961 0.1002 0.5791   -0.183693
 N 0.3075 0.0977 0.5826   -0.177165
 N 0.4461 0.9209 0.6002   -0.183693
 N 0.5575 0.9174 0.5977   -0.177165
 N 0.9461 0.0791 0.3998   -0.183693
 N 0.0575 0.0826 0.4023   -0.177165
 Cl 0.7482 0.43734 0.92223   -0.483936
 Cl 0.2482 0.56266 0.07777   -0.483936
 Cl 0.9982 0.57777 0.93734   -0.483936
 Cl 0.4982 0.42223 0.06266   -0.483936
 Cl 0.5018 0.06266 0.42223   -0.483936
 Cl 0.0018 0.93734 0.57777   -0.483936
 Cl 0.2518 0.92223 0.43734   -0.483936
 Cl 0.7518 0.07777 0.56266   -0.483936
