{'_ref': 'TBD', '_srcid': 'CAKYAQ_clean', 'submitters': [{'name': 'Dalar Nazarian Jeff Camp and David Sholl', 'email': 'dalar@gatech.edu jcamp6@gatech.edu'}], '_method': 'VASP DFT with PBE;DDEC'}
data_Zn3H8C12N2(OF)4
_symmetry_space_group_name_H-M   'P 1'
_cell_length_a   8.14710001
_cell_length_b   11.69770010
_cell_length_c   11.69770000
_cell_angle_alpha   70.44699928
_cell_angle_beta   75.26600238
_cell_angle_gamma   75.26579864
_symmetry_Int_Tables_number   1
_chemical_formula_structural   Zn3H8C12N2(OF)4
_chemical_formula_sum   'Zn6 H16 C24 N4 O8 F8'
_cell_volume   998.317459833
_cell_formula_units_Z   2
loop_
 _symmetry_equiv_pos_site_id
 _symmetry_equiv_pos_as_xyz
  1  'x, y, z'
loop_
 _atom_site_label
 _atom_site_fract_x
 _atom_site_fract_y
 _atom_site_fract_z
 _atom_site_charge
 Zn 0.43687 0.07863 0.09977   1.022605
 Zn 0.06313 0.90023 0.92137   1.022605
 Zn 0.56313 0.92137 0.90023   1.022606
 Zn 0.93687 0.09977 0.07863   1.022606
 Zn 0.75 0.13198 0.86802   1.059039
 Zn 0.25 0.86802 0.13198   1.059039
 H 0.766 0.6891 0.0351   0.097665
 H 0.5209 0.7428 0.7704   0.082773
 H 0.5965 0.5375 0.7799   0.135856
 H 0.8418 0.4821 0.0549   0.120817
 H 0.734 0.9649 0.3109   0.097668
 H 0.9791 0.2296 0.2572   0.082767
 H 0.9035 0.2201 0.4625   0.13585
 H 0.6582 0.9451 0.5179   0.120821
 H 0.234 0.3109 0.9649   0.097665
 H 0.4791 0.2572 0.2296   0.082773
 H 0.4035 0.4625 0.2201   0.135856
 H 0.1582 0.5179 0.9451   0.120817
 H 0.266 0.0351 0.6891   0.097669
 H 0.0209 0.7704 0.7428   0.082767
 H 0.0965 0.7799 0.5375   0.13585
 H 0.3418 0.0549 0.4821   0.120821
 C 0.7307 0.65815 0.98355   0.17147
 C 0.5876 0.68965 0.82765   0.159979
 C 0.632 0.56623 0.83303   -0.154489
 C 0.7778 0.53372 0.99532   -0.144277
 C 0.7297 0.48592 0.91832   -0.027446
 C 0.7805 0.34883 0.93023   0.664829
 C 0.7693 0.01645 0.34185   0.171491
 C 0.9124 0.17235 0.31035   0.159991
 C 0.868 0.16697 0.43377   -0.154483
 C 0.7222 0.00468 0.46628   -0.144306
 C 0.7703 0.08168 0.51408   -0.027432
 C 0.7195 0.06977 0.65117   0.66483
 C 0.2693 0.34185 0.01645   0.17147
 C 0.4124 0.31035 0.17235   0.159979
 C 0.368 0.43377 0.16697   -0.15449
 C 0.2222 0.46628 0.00468   -0.144277
 C 0.2703 0.51408 0.08168   -0.027446
 C 0.2195 0.65117 0.06977   0.664829
 C 0.2307 0.98355 0.65815   0.171491
 C 0.0876 0.82765 0.68965   0.159991
 C 0.132 0.83303 0.56623   -0.154483
 C 0.2778 0.99532 0.53372   -0.144307
 C 0.2297 0.91832 0.48592   -0.027432
 C 0.2805 0.93023 0.34883   0.66483
 N 0.6365 0.73632 0.90126   -0.345467
 N 0.8635 0.09874 0.26368   -0.345482
 N 0.3635 0.26368 0.09874   -0.345467
 N 0.1365 0.90126 0.73632   -0.345482
 O 0.722 0.31105 0.86267   -0.582867
 O 0.8753 0.28689 0.00787   -0.596484
 O 0.778 0.13733 0.68895   -0.582864
 O 0.6247 0.99213 0.71311   -0.596489
 O 0.278 0.68895 0.13733   -0.582867
 O 0.1247 0.71311 0.99213   -0.596484
 O 0.222 0.86267 0.31105   -0.582864
 O 0.3753 0.00787 0.28689   -0.596489
 F 0.505 0.10884 0.90948   -0.548431
 F 0.6914 0.0853 0.07444   -0.586055
 F 0.995 0.09052 0.89116   -0.548422
 F 0.8086 0.92556 0.9147   -0.586061
 F 0.495 0.89116 0.09052   -0.548431
 F 0.3086 0.9147 0.92556   -0.586055
 F 0.005 0.90948 0.10884   -0.548422
 F 0.1914 0.07444 0.0853   -0.586062
