{'_ref': 'TBD', '_srcid': 'CAKYAQ_clean', 'submitters': [{'name': 'Dalar Nazarian Jeff Camp and David Sholl', 'email': 'dalar@gatech.edu jcamp6@gatech.edu'}], '_method': 'VASP DFT with PBE;DDEC'}
data_Zn3H5C15O11
_symmetry_space_group_name_H-M   'P 1'
_cell_length_a   17.96430000
_cell_length_b   18.59240024
_cell_length_c   18.59240000
_cell_angle_alpha   119.99999956
_cell_angle_beta   90.00000000
_cell_angle_gamma   90.00000000
_symmetry_Int_Tables_number   1
_chemical_formula_structural   Zn3H5C15O11
_chemical_formula_sum   'Zn18 H30 C90 O66'
_cell_volume   5377.88915943
_cell_formula_units_Z   6
loop_
 _symmetry_equiv_pos_site_id
 _symmetry_equiv_pos_as_xyz
  1  'x, y, z'
loop_
 _atom_site_label
 _atom_site_fract_x
 _atom_site_fract_y
 _atom_site_fract_z
 _atom_site_charge
 Zn 0.61933 0.09926 0.34221   1.065184
 Zn 0.61933 0.24295 0.90074   1.065184
 Zn 0.61933 0.65779 0.75705   1.065184
 Zn 0.11933 0.90074 0.65779   1.065184
 Zn 0.11933 0.75705 0.09926   1.065184
 Zn 0.11933 0.34221 0.24295   1.065184
 Zn 0.11933 0.24295 0.34221   1.065184
 Zn 0.11933 0.65779 0.90074   1.065184
 Zn 0.11933 0.09926 0.75705   1.065184
 Zn 0.61933 0.75705 0.65779   1.065184
 Zn 0.61933 0.34221 0.09926   1.065184
 Zn 0.61933 0.90074 0.24295   1.065184
 Zn 0.27654 0.34415 0.34415   1.118269
 Zn 0.27654 0.0 0.65585   1.118269
 Zn 0.27654 0.65585 0.0   1.118269
 Zn 0.77654 0.65585 0.65585   1.118269
 Zn 0.77654 0.0 0.34415   1.118269
 Zn 0.77654 0.34415 0.0   1.118269
 H 0.5828 0.2012 0.6466   0.108177
 H 0.3971 0.1236 0.2929   0.105688
 H 0.5828 0.4454 0.7988   0.108178
 H 0.3971 0.1693 0.8764   0.105688
 H 0.5828 0.3534 0.5546   0.108176
 H 0.3971 0.7071 0.8307   0.105688
 H 0.0828 0.7988 0.3534   0.108177
 H 0.8971 0.8764 0.7071   0.105688
 H 0.0828 0.5546 0.2012   0.108178
 H 0.8971 0.8307 0.1236   0.105688
 H 0.0828 0.6466 0.4454   0.108176
 H 0.8971 0.2929 0.1693   0.105688
 H 0.0828 0.4454 0.6466   0.108177
 H 0.8971 0.1693 0.2929   0.105688
 H 0.0828 0.3534 0.7988   0.108178
 H 0.8971 0.7071 0.8764   0.105689
 H 0.0828 0.2012 0.5546   0.108177
 H 0.8971 0.1236 0.8307   0.105689
 H 0.5828 0.5546 0.3534   0.108177
 H 0.3971 0.8307 0.7071   0.105688
 H 0.5828 0.6466 0.2012   0.108178
 H 0.3971 0.2929 0.1236   0.105689
 H 0.5828 0.7988 0.4454   0.108177
 H 0.3971 0.8764 0.1693   0.105689
 H 0.2061 0.0 0.1957   0.112267
 H 0.2061 0.1957 0.0   0.112268
 H 0.2061 0.8043 0.8043   0.112268
 H 0.7061 0.0 0.8043   0.112267
 H 0.7061 0.8043 0.0   0.112268
 H 0.7061 0.1957 0.1957   0.112268
 C 0.5883 0.1919 0.4988   0.646235
 C 0.5871 0.2669 0.587   -0.141277
 C 0.5853 0.2549 0.6551   0.0053
 C 0.2542 0.1554 0.2774   0.751308
 C 0.2952 0.074 0.2426   -0.191641
 C 0.3721 0.0739 0.2596   0.037502
 C 0.5883 0.3069 0.8081   0.646233
 C 0.5871 0.3201 0.7331   -0.141259
 C 0.5853 0.4002 0.7451   0.005298
 C 0.2542 0.122 0.8446   0.751309
 C 0.2952 0.1686 0.926   -0.191644
 C 0.3721 0.1857 0.9261   0.037504
 C 0.5883 0.5012 0.6931   0.646233
 C 0.5871 0.413 0.6799   -0.141261
 C 0.5853 0.3449 0.5998   0.005314
 C 0.2542 0.7226 0.878   0.751308
 C 0.2952 0.7574 0.8314   -0.191641
 C 0.3721 0.7404 0.8143   0.037503
 C 0.0883 0.8081 0.5012   0.646235
 C 0.0871 0.7331 0.413   -0.141277
 C 0.0853 0.7451 0.3449   0.0053
 C 0.7542 0.8446 0.7226   0.751308
 C 0.7952 0.926 0.7574   -0.191641
 C 0.8721 0.9261 0.7404   0.037502
 C 0.0883 0.6931 0.1919   0.646233
 C 0.0871 0.6799 0.2669   -0.141259
 C 0.0853 0.5998 0.2549   0.005298
 C 0.7542 0.878 0.1554   0.751309
 C 0.7952 0.8314 0.074   -0.191644
 C 0.8721 0.8143 0.0739   0.037504
 C 0.0883 0.4988 0.3069   0.646233
 C 0.0871 0.587 0.3201   -0.141261
 C 0.0853 0.6551 0.4002   0.005314
 C 0.7542 0.2774 0.122   0.751308
 C 0.7952 0.2426 0.1686   -0.191641
 C 0.8721 0.2596 0.1857   0.037503
 C 0.0883 0.3069 0.4988   0.646235
 C 0.0871 0.3201 0.587   -0.141277
 C 0.0853 0.4002 0.6551   0.0053
 C 0.7542 0.122 0.2774   0.751309
 C 0.7952 0.1686 0.2426   -0.191644
 C 0.8721 0.1857 0.2596   0.037504
 C 0.0883 0.5012 0.8081   0.646233
 C 0.0871 0.413 0.7331   -0.141259
 C 0.0853 0.3449 0.7451   0.005298
 C 0.7542 0.7226 0.8446   0.751307
 C 0.7952 0.7574 0.926   -0.19164
 C 0.8721 0.7404 0.9261   0.037503
 C 0.0883 0.1919 0.6931   0.646233
 C 0.0871 0.2669 0.6799   -0.141261
 C 0.0853 0.2549 0.5998   0.005314
 C 0.7542 0.1554 0.878   0.751308
 C 0.7952 0.074 0.8314   -0.191641
 C 0.8721 0.0739 0.8143   0.037503
 C 0.5883 0.6931 0.5012   0.646235
 C 0.5871 0.6799 0.413   -0.141277
 C 0.5853 0.5998 0.3449   0.0053
 C 0.2542 0.878 0.7226   0.751309
 C 0.2952 0.8314 0.7574   -0.191644
 C 0.3721 0.8143 0.7404   0.037504
 C 0.5883 0.4988 0.1919   0.646233
 C 0.5871 0.587 0.2669   -0.141259
 C 0.5853 0.6551 0.2549   0.005298
 C 0.2542 0.2774 0.1554   0.751307
 C 0.2952 0.2426 0.074   -0.19164
 C 0.3721 0.2596 0.0739   0.037503
 C 0.5883 0.8081 0.3069   0.646233
 C 0.5871 0.7331 0.3201   -0.141261
 C 0.5853 0.7451 0.4002   0.005314
 C 0.2542 0.8446 0.122   0.751308
 C 0.2952 0.926 0.1686   -0.191641
 C 0.3721 0.9261 0.1857   0.037503
 C 0.4089 0.0 0.2267   -0.172473
 C 0.4918 0.0 0.2472   0.732037
 C 0.2575 0.0 0.2014   0.045633
 C 0.4089 0.2267 0.0   -0.172473
 C 0.4918 0.2472 0.0   0.732037
 C 0.2575 0.2014 0.0   0.045634
 C 0.4089 0.7733 0.7733   -0.172473
 C 0.4918 0.7528 0.7528   0.732037
 C 0.2575 0.7986 0.7986   0.045634
 C 0.9089 0.0 0.7733   -0.172473
 C 0.9918 0.0 0.7528   0.732037
 C 0.7575 0.0 0.7986   0.045633
 C 0.9089 0.7733 0.0   -0.172473
 C 0.9918 0.7528 0.0   0.732037
 C 0.7575 0.7986 0.0   0.045634
 C 0.9089 0.2267 0.2267   -0.172473
 C 0.9918 0.2472 0.2472   0.732037
 C 0.7575 0.2014 0.2014   0.045634
 O 0.6091 0.2074 0.4436   -0.586267
 O 0.5751 0.1241 0.4861   -0.449396
 O 0.2896 0.2204 0.3104   -0.643789
 O 0.1845 0.1512 0.2737   -0.5826
 O 0.5211 0.0683 0.2865   -0.59351
 O 0.6091 0.2362 0.7926   -0.586267
 O 0.5751 0.362 0.8759   -0.449395
 O 0.2896 0.09 0.7796   -0.643789
 O 0.1845 0.1225 0.8488   -0.582601
 O 0.5211 0.2182 0.9317   -0.59351
 O 0.6091 0.5564 0.7638   -0.586267
 O 0.5751 0.5139 0.638   -0.449395
 O 0.2896 0.6896 0.91   -0.643789
 O 0.1845 0.7263 0.8775   -0.5826
 O 0.5211 0.7135 0.7818   -0.59351
 O 0.1091 0.7926 0.5564   -0.586267
 O 0.0751 0.8759 0.5139   -0.449396
 O 0.7896 0.7796 0.6896   -0.643789
 O 0.6845 0.8488 0.7263   -0.5826
 O 0.0211 0.9317 0.7135   -0.59351
 O 0.1091 0.7638 0.2074   -0.586267
 O 0.0751 0.638 0.1241   -0.449395
 O 0.7896 0.91 0.2204   -0.643789
 O 0.6845 0.8775 0.1512   -0.582601
 O 0.0211 0.7818 0.0683   -0.59351
 O 0.1091 0.4436 0.2362   -0.586267
 O 0.0751 0.4861 0.362   -0.449395
 O 0.7896 0.3104 0.09   -0.643789
 O 0.6845 0.2737 0.1225   -0.5826
 O 0.0211 0.2865 0.2182   -0.59351
 O 0.1091 0.2362 0.4436   -0.586267
 O 0.0751 0.362 0.4861   -0.449396
 O 0.7896 0.09 0.3104   -0.643789
 O 0.6845 0.1225 0.2737   -0.582601
 O 0.0211 0.2182 0.2865   -0.59351
 O 0.1091 0.5564 0.7926   -0.586267
 O 0.0751 0.5139 0.8759   -0.449396
 O 0.7896 0.6896 0.7796   -0.643789
 O 0.6845 0.7263 0.8488   -0.5826
 O 0.0211 0.7135 0.9317   -0.59351
 O 0.1091 0.2074 0.7638   -0.586267
 O 0.0751 0.1241 0.638   -0.449396
 O 0.7896 0.2204 0.91   -0.643789
 O 0.6845 0.1512 0.8775   -0.5826
 O 0.0211 0.0683 0.7818   -0.59351
 O 0.6091 0.7638 0.5564   -0.586267
 O 0.5751 0.638 0.5139   -0.449396
 O 0.2896 0.91 0.6896   -0.643789
 O 0.1845 0.8775 0.7263   -0.582601
 O 0.5211 0.7818 0.7135   -0.59351
 O 0.6091 0.4436 0.2074   -0.586267
 O 0.5751 0.4861 0.1241   -0.449396
 O 0.2896 0.3104 0.2204   -0.643789
 O 0.1845 0.2737 0.1512   -0.5826
 O 0.5211 0.2865 0.0683   -0.59351
 O 0.6091 0.7926 0.2362   -0.586267
 O 0.5751 0.8759 0.362   -0.449396
 O 0.2896 0.7796 0.09   -0.643789
 O 0.1845 0.8488 0.1225   -0.5826
 O 0.5211 0.9317 0.2182   -0.59351
 O 0.662 0.0 0.3396   -0.897592
 O 0.662 0.3396 0.0   -0.897592
 O 0.662 0.6604 0.6604   -0.897592
 O 0.162 0.0 0.6604   -0.897592
 O 0.162 0.6604 0.0   -0.897592
 O 0.162 0.3396 0.3396   -0.897592
