{'_ref': 'TBD', '_srcid': 'CAKYAQ_clean', 'submitters': [{'name': 'Dalar Nazarian Jeff Camp and David Sholl', 'email': 'dalar@gatech.edu jcamp6@gatech.edu'}], '_method': 'VASP DFT with PBE;DDEC'}
data_CdH28C37(N2O3)2
_symmetry_space_group_name_H-M   'P 1'
_cell_length_a   9.07170046
_cell_length_b   9.59529972
_cell_length_c   24.52970000
_cell_angle_alpha   79.48599847
_cell_angle_beta   85.16699875
_cell_angle_gamma   88.97300021
_symmetry_Int_Tables_number   1
_chemical_formula_structural   CdH28C37(N2O3)2
_chemical_formula_sum   'Cd2 H56 C74 N8 O12'
_cell_volume   2091.88384088
_cell_formula_units_Z   2
loop_
 _symmetry_equiv_pos_site_id
 _symmetry_equiv_pos_as_xyz
  1  'x, y, z'
loop_
 _atom_site_label
 _atom_site_fract_x
 _atom_site_fract_y
 _atom_site_fract_z
 _atom_site_charge
 Cd 0.80842 0.91566 0.84077   0.935831
 Cd 0.19158 0.08434 0.15923   0.935831
 H 0.1738 0.677 0.6087   0.074314
 H 0.1316 0.9052 0.7778   0.07709
 H 0.0177 0.7303 0.9308   0.067289
 H 0.5967 0.4582 0.9147   0.097833
 H 0.5619 0.7035 0.03   0.10906
 H 0.1438 0.2009 0.4358   0.091333
 H 0.128 0.2245 0.342   0.080789
 H 0.3073 0.8414 0.3444   0.098937
 H 0.4244 0.6696 0.8644   0.094653
 H 0.903 0.2407 0.7886   0.07382
 H 0.0905 0.1274 0.526   0.100135
 H 0.1223 0.1122 0.6189   0.094017
 H 0.3312 0.8208 0.4379   0.106184
 H 0.9247 0.2691 0.9702   0.126281
 H 0.4514 0.8347 0.6062   0.092955
 H 0.2461 0.6274 0.9392   0.111323
 H 0.8889 0.0572 0.9434   0.084355
 H 0.4614 0.9161 0.7678   0.086455
 H 0.4878 0.7541 0.7688   0.093075
 H 0.4228 0.8524 0.5131   0.103722
 H 0.0283 0.5633 0.7992   0.091878
 H 0.8556 0.574 0.8021   0.099589
 H 0.9459 0.4738 0.9038   0.092778
 H 0.1472 0.6685 0.5172   0.090889
 H 0.9074 0.345 0.6562   0.093476
 H 0.8905 0.3297 0.5645   0.079206
 H 0.8665 0.4538 0.7275   0.308127
 H 0.3564 0.7692 0.6954   0.304339
 H 0.8262 0.323 0.3913   0.074314
 H 0.8684 0.0948 0.2222   0.07709
 H 0.9823 0.2697 0.0692   0.06729
 H 0.4033 0.5418 0.0853   0.097833
 H 0.4381 0.2965 0.97   0.10906
 H 0.8562 0.7991 0.5642   0.091333
 H 0.872 0.7755 0.658   0.080789
 H 0.6927 0.1586 0.6556   0.098936
 H 0.5756 0.3304 0.1356   0.094653
 H 0.097 0.7593 0.2114   0.07382
 H 0.9095 0.8726 0.474   0.100135
 H 0.8777 0.8878 0.3811   0.094017
 H 0.6688 0.1792 0.5621   0.106183
 H 0.0753 0.7309 0.0298   0.126281
 H 0.5486 0.1653 0.3938   0.092955
 H 0.7539 0.3726 0.0608   0.111323
 H 0.1111 0.9428 0.0566   0.084356
 H 0.5386 0.0839 0.2322   0.086455
 H 0.5122 0.2459 0.2312   0.093075
 H 0.5772 0.1476 0.4869   0.103722
 H 0.9717 0.4367 0.2008   0.091878
 H 0.1444 0.426 0.1979   0.099589
 H 0.0541 0.5262 0.0962   0.092778
 H 0.8528 0.3315 0.4828   0.090888
 H 0.0926 0.655 0.3438   0.093476
 H 0.1095 0.6703 0.4355   0.079205
 H 0.1335 0.5462 0.2725   0.308127
 H 0.6436 0.2308 0.3046   0.304339
 C 0.1132 0.6083 0.6   -0.021088
 C 0.5967 0.5964 0.96666   -0.109478
 C 0.0604 0.5287 0.7012   0.544691
 C 0.156 0.8491 0.81095   0.145447
 C 0.088 0.7461 0.9005   0.142902
 C 0.5581 0.4754 0.94916   -0.072038
 C 0.1975 0.0486 0.27203   0.664756
 C 0.239 0.0078 0.44787   0.043616
 C 0.928 0.3795 0.83808   -0.045659
 C 0.6953 0.7069 0.9293   0.63116
 C 0.5374 0.6212 0.01782   -0.069753
 C 0.178 0.1281 0.41766   -0.128751
 C 0.2131 0.035 0.33282   -0.139645
 C 0.1672 0.1416 0.36136   -0.03086
 C 0.3169 0.9678 0.68243   0.532958
 C 0.2747 0.9147 0.36258   -0.020661
 C 0.3308 0.7098 0.8614   -0.025114
 C 0.9071 0.2475 0.82581   0.138428
 C 0.1643 0.069 0.54185   -0.123922
 C 0.1827 0.0592 0.59778   -0.03604
 C 0.2902 0.9714 0.62272   -0.111153
 C 0.2882 0.9021 0.4189   -0.143248
 C 0.9197 0.2654 0.9328   -0.172581
 C 0.3789 0.8945 0.59007   -0.065932
 C 0.2248 0.6849 0.90594   -0.176839
 C 0.8989 0.1389 0.91639   0.156714
 C 0.4135 0.8284 0.76506   0.051364
 C 0.3616 0.905 0.53414   -0.114342
 C 0.9391 0.5135 0.79501   0.046622
 C 0.2543 0.9927 0.50874   0.030367
 C 0.2967 0.7941 0.81291   -0.036624
 C 0.01 0.5022 0.5297   0.035314
 C 0.9332 0.3868 0.89323   -0.012911
 C 0.0411 0.5142 0.6422   -0.109385
 C 0.0974 0.6026 0.5449   -0.121097
 C 0.9567 0.4106 0.6283   -0.072419
 C 0.9444 0.4033 0.5729   -0.097376
 C 0.8868 0.3917 0.4   -0.021088
 C 0.4033 0.4036 0.03334   -0.109479
 C 0.9396 0.4713 0.2988   0.544691
 C 0.844 0.1509 0.18905   0.145447
 C 0.912 0.2539 0.0995   0.142902
 C 0.4419 0.5246 0.05084   -0.072035
 C 0.8025 0.9514 0.72797   0.664756
 C 0.761 0.9922 0.55213   0.043616
 C 0.072 0.6205 0.16192   -0.045659
 C 0.3047 0.2931 0.0707   0.631161
 C 0.4626 0.3788 0.98218   -0.06975
 C 0.822 0.8719 0.58234   -0.128751
 C 0.7869 0.965 0.66718   -0.139645
 C 0.8328 0.8584 0.63864   -0.03086
 C 0.6831 0.0322 0.31757   0.532958
 C 0.7253 0.0853 0.63742   -0.020661
 C 0.6692 0.2902 0.1386   -0.025114
 C 0.0929 0.7525 0.17419   0.138428
 C 0.8357 0.931 0.45815   -0.123922
 C 0.8173 0.9408 0.40222   -0.036041
 C 0.7098 0.0286 0.37728   -0.111153
 C 0.7118 0.0979 0.5811   -0.143248
 C 0.0803 0.7346 0.0672   -0.172581
 C 0.6211 0.1055 0.40993   -0.065932
 C 0.7752 0.3151 0.09406   -0.176839
 C 0.1011 0.8611 0.08361   0.156714
 C 0.5865 0.1716 0.23494   0.051364
 C 0.6384 0.095 0.46586   -0.114342
 C 0.0609 0.4865 0.20499   0.046622
 C 0.7457 0.0073 0.49126   0.030367
 C 0.7033 0.2059 0.18709   -0.036624
 C 0.99 0.4978 0.4703   0.035313
 C 0.0668 0.6132 0.10677   -0.012911
 C 0.9589 0.4858 0.3578   -0.109385
 C 0.9026 0.3974 0.4551   -0.121097
 C 0.0433 0.5894 0.3717   -0.072419
 C 0.0556 0.5967 0.4271   -0.097376
 N 0.0518 0.8273 0.85336   -0.351809
 N 0.8922 0.1281 0.86371   -0.348992
 N 0.9419 0.4915 0.73813   -0.431426
 N 0.3603 0.8432 0.71046   -0.433105
 N 0.9482 0.1727 0.14664   -0.351809
 N 0.1078 0.8719 0.13629   -0.348992
 N 0.0581 0.5085 0.26187   -0.431426
 N 0.6397 0.1568 0.28954   -0.433105
 O 0.1757 0.5732 0.71452   -0.5356
 O 0.756 0.7979 0.95009   -0.617896
 O 0.7053 0.7023 0.87833   -0.589833
 O 0.1735 0.1666 0.24412   -0.598433
 O 0.2095 0.9415 0.2504   -0.621644
 O 0.3022 0.0734 0.7038   -0.538416
 O 0.8243 0.4268 0.28548   -0.5356
 O 0.244 0.2021 0.04991   -0.617896
 O 0.2947 0.2977 0.12167   -0.589833
 O 0.8265 0.8334 0.75588   -0.598433
 O 0.7905 0.0585 0.7496   -0.621644
 O 0.6978 0.9266 0.2962   -0.538416
