{'_ref': 'TBD', '_srcid': 'CAKYAQ_clean', 'submitters': [{'name': 'Dalar Nazarian Jeff Camp and David Sholl', 'email': 'dalar@gatech.edu jcamp6@gatech.edu'}], '_method': 'VASP DFT with PBE;DDEC'}
data_Co3H26C46S3(N2O)8
_symmetry_space_group_name_H-M   'P 1'
_cell_length_a   11.79139969
_cell_length_b   17.05040023
_cell_length_c   20.79500000
_cell_angle_alpha   104.72599986
_cell_angle_beta   106.35999934
_cell_angle_gamma   103.48100145
_symmetry_Int_Tables_number   1
_chemical_formula_structural   Co3H26C46S3(N2O)8
_chemical_formula_sum   'Co6 H52 C92 S6 N32 O16'
_cell_volume   3664.61762896
_cell_formula_units_Z   2
loop_
 _symmetry_equiv_pos_site_id
 _symmetry_equiv_pos_as_xyz
  1  'x, y, z'
loop_
 _atom_site_label
 _atom_site_fract_x
 _atom_site_fract_y
 _atom_site_fract_z
 _atom_site_charge
 Co 7.00000000009e-05 0.25188 0.24835   0.550443
 Co 0.99993 0.74812 0.75165   0.550442
 Co 0.5 0.5 0.5   0.575108
 Co 0.0 0.5 0.5   0.865482
 Co 0.0 0.0 0.0   0.940712
 Co 0.5 0.0 0.0   0.55142
 H 0.3218 0.3234 0.345   0.090854
 H 0.6828 0.1875 0.1465   0.086894
 H 0.5251 0.4966 0.6533   0.085913
 H 0.5263 0.4018 0.717   0.124277
 H 0.4217 0.2088 0.5331   0.137463
 H 0.4273 0.3089 0.4763   0.076609
 H 0.5103 0.2281 0.8813   0.130238
 H 0.5268 0.1715 0.9732   0.095842
 H 0.5069 0.951 0.8477   0.095563
 H 0.4933 0.0011 0.7534   0.141321
 H 0.1459 0.1818 0.3581   0.070935
 H 0.1252 0.0678 0.3985   0.128458
 H 0.7572 0.0082 0.3109   0.115909
 H 0.7885 0.1237 0.2732   0.077624
 H 0.1037 0.8155 0.5156   0.124098
 H 0.1263 0.6994 0.5498   0.099895
 H 0.8012 0.5506 0.4047   0.09743
 H 0.7678 0.665 0.3701   0.110892
 H 0.1997 0.9548 0.0995   0.085744
 H 0.2366 0.8432 0.1352   0.113346
 H 0.91 0.6863 0.9825   0.114136
 H 0.8787 0.8029 0.952   0.097254
 H 0.2532 0.4915 0.1851   0.119558
 H 0.2156 0.3759 0.2241   0.082693
 H 0.857 0.328 0.1416   0.077746
 H 0.8863 0.4407 0.1012   0.120592
 H 0.6782 0.6766 0.655   0.090826
 H 0.3172 0.8125 0.8535   0.086861
 H 0.4749 0.5034 0.3467   0.085866
 H 0.4737 0.5982 0.283   0.124338
 H 0.5783 0.7912 0.4669   0.137474
 H 0.5727 0.6911 0.5237   0.076614
 H 0.4897 0.7719 0.1187   0.130264
 H 0.4732 0.8285 0.0268   0.095864
 H 0.4931 0.049 0.1523   0.09549
 H 0.5067 0.9989 0.2466   0.14131
 H 0.8541 0.8182 0.6419   0.070938
 H 0.8748 0.9322 0.6015   0.128465
 H 0.2428 0.9918 0.6891   0.115895
 H 0.2115 0.8763 0.7268   0.077586
 H 0.8963 0.1845 0.4844   0.124099
 H 0.8737 0.3006 0.4502   0.099877
 H 0.1988 0.4494 0.5953   0.097419
 H 0.2322 0.335 0.6299   0.110903
 H 0.8003 0.0452 0.9005   0.08572
 H 0.7634 0.1568 0.8648   0.113348
 H 0.09 0.3137 0.0175   0.114208
 H 0.1213 0.1971 0.048   0.09726
 H 0.7468 0.5085 0.8149   0.11964
 H 0.7844 0.6241 0.7759   0.08267
 H 0.143 0.672 0.8584   0.077752
 H 0.1137 0.5593 0.8988   0.120609
 C 0.2758 0.3549 0.3648   0.189893
 C 0.2319 0.4496 0.4339   -0.046673
 C 0.1229 0.3949 0.3792   -0.052707
 C 0.2651 0.5255 0.4991   0.632551
 C 0.989 0.39 0.3581   0.633746
 C 0.7277 0.1532 0.1287   0.203002
 C 0.8779 0.1073 0.1175   -0.05708
 C 0.7693 0.053 0.0636   -0.039587
 C 0.0118 0.1124 0.141   0.637915
 C 0.7337 0.9714 0.0042   0.638271
 C 0.5063 0.4373 0.6285   0.146217
 C 0.5064 0.381 0.6669   -0.209469
 C 0.4772 0.2945 0.6307   0.094648
 C 0.4459 0.268 0.5599   -0.173379
 C 0.4494 0.3287 0.5266   0.152572
 C 0.4808 0.2327 0.6697   0.134885
 C 0.4914 0.1543 0.7488   0.121826
 C 0.5001 0.12 0.8078   0.088193
 C 0.5093 0.1705 0.8731   -0.197916
 C 0.5171 0.1358 0.9273   0.137064
 C 0.5059 0.008 0.8545   0.133134
 C 0.4989 0.0374 0.798   -0.174949
 C 0.064 0.1439 0.3459   0.165785
 C 0.0528 0.0763 0.371   -0.207602
 C 0.9377 0.022 0.3559   0.08335
 C 0.8401 0.0422 0.3202   -0.176736
 C 0.8594 0.1109 0.2972   0.149207
 C 0.9147 0.9423 0.3742   0.128573
 C 0.9142 0.8217 0.4103   0.147635
 C 0.9337 0.7517 0.4377   0.073266
 C 0.0397 0.7612 0.4918   -0.211945
 C 0.0531 0.6913 0.5114   0.174395
 C 0.8643 0.6053 0.4278   0.155148
 C 0.8441 0.6733 0.4064   -0.172332
 C 0.139 0.8991 0.0754   0.167311
 C 0.162 0.833 0.0968   -0.175373
 C 0.0773 0.7523 0.0627   0.06786
 C 0.971 0.7416 0.0079   -0.211963
 C 0.9532 0.8113 0.9897   0.18048
 C 0.101 0.6822 0.089   0.159378
 C 0.0978 0.5615 0.1245   0.144063
 C 0.0735 0.483 0.144   0.079213
 C 0.1698 0.46 0.1775   -0.181932
 C 0.1466 0.3907 0.2004   0.144013
 C 0.9402 0.3633 0.1529   0.162206
 C 0.9569 0.4305 0.1288   -0.204471
 C 0.7242 0.6451 0.6352   0.189898
 C 0.7681 0.5504 0.5661   -0.04672
 C 0.8771 0.6051 0.6208   -0.052708
 C 0.7349 0.4745 0.5009   0.632518
 C 0.011 0.61 0.6419   0.633742
 C 0.2723 0.8468 0.8713   0.203001
 C 0.1221 0.8927 0.8825   -0.057089
 C 0.2307 0.947 0.9364   -0.039617
 C 0.9882 0.8876 0.859   0.637916
 C 0.2663 0.0286 0.9958   0.638252
 C 0.4937 0.5627 0.3715   0.146189
 C 0.4936 0.619 0.3331   -0.209521
 C 0.5228 0.7055 0.3693   0.094656
 C 0.5541 0.732 0.4401   -0.173408
 C 0.5506 0.6713 0.4734   0.152524
 C 0.5192 0.7673 0.3303   0.134884
 C 0.5086 0.8457 0.2512   0.121825
 C 0.4999 0.88 0.1922   0.08819
 C 0.4907 0.8295 0.1269   -0.197937
 C 0.4829 0.8642 0.0727   0.137006
 C 0.4941 0.992 0.1455   0.133139
 C 0.5011 0.9626 0.202   -0.174953
 C 0.936 0.8561 0.6541   0.165761
 C 0.9472 0.9237 0.629   -0.207627
 C 0.0623 0.978 0.6441   0.083355
 C 0.1599 0.9578 0.6798   -0.176758
 C 0.1406 0.8891 0.7028   0.14921
 C 0.0853 0.0577 0.6258   0.128573
 C 0.0858 0.1783 0.5897   0.147626
 C 0.0663 0.2483 0.5623   0.073248
 C 0.9603 0.2388 0.5082   -0.211966
 C 0.9469 0.3087 0.4886   0.174379
 C 0.1357 0.3947 0.5722   0.155127
 C 0.1559 0.3267 0.5936   -0.172363
 C 0.861 0.1009 0.9246   0.167305
 C 0.838 0.167 0.9032   -0.175399
 C 0.9227 0.2477 0.9373   0.067853
 C 0.029 0.2584 0.9921   -0.211993
 C 0.0468 0.1887 0.0103   0.18047
 C 0.899 0.3178 0.911   0.159372
 C 0.9022 0.4385 0.8755   0.144059
 C 0.9265 0.517 0.856   0.07923
 C 0.8302 0.54 0.8225   -0.182004
 C 0.8534 0.6093 0.7996   0.144024
 C 0.0598 0.6367 0.8471   0.162189
 C 0.0431 0.5695 0.8712   -0.204486
 S 0.4953 0.25684 0.75621   0.082614
 S 0.0259 0.91509 0.42763   0.034652
 S 0.9838 0.59022 0.07338   0.00502
 S 0.5047 0.74316 0.24379   0.08264
 S 0.9741 0.08491 0.57237   0.034656
 S 0.0162 0.40978 0.92662   0.005058
 N 0.3283 0.4232 0.4236   -0.311169
 N 0.1526 0.3346 0.3361   -0.297342
 N 0.8498 0.1713 0.1595   -0.304034
 N 0.673 0.0829 0.0707   -0.319878
 N 0.4812 0.4115 0.5595   -0.256989
 N 0.4726 0.1534 0.6394   -0.217291
 N 0.4789 0.1081 0.6849   -0.218159
 N 0.5113 0.0543 0.9173   -0.233331
 N 0.9704 0.1598 0.3066   -0.248245
 N 0.8085 0.884 0.3474   -0.183567
 N 0.8075 0.8159 0.3695   -0.207049
 N 0.9686 0.6137 0.4793   -0.312243
 N 0.0331 0.3443 0.1911   -0.251795
 N 0.2063 0.6158 0.147   -0.231501
 N 0.2086 0.6858 0.126   -0.20625
 N 0.0357 0.8896 0.0226   -0.329447
 N 0.6717 0.5768 0.5764   -0.311164
 N 0.8474 0.6654 0.6639   -0.297344
 N 0.1502 0.8287 0.8405   -0.304034
 N 0.327 0.9171 0.9293   -0.319874
 N 0.5188 0.5885 0.4405   -0.256984
 N 0.5274 0.8466 0.3606   -0.217299
 N 0.5211 0.8919 0.3151   -0.218157
 N 0.4887 0.9457 0.0827   -0.233327
 N 0.0296 0.8402 0.6934   -0.248245
 N 0.1915 0.116 0.6526   -0.183573
 N 0.1925 0.1841 0.6305   -0.207051
 N 0.0314 0.3863 0.5207   -0.312242
 N 0.9669 0.6557 0.8089   -0.251797
 N 0.7937 0.3842 0.853   -0.231501
 N 0.7914 0.3142 0.874   -0.206249
 N 0.9643 0.1104 0.9774   -0.329447
 O 0.3802 0.5585 0.5365   -0.52912
 O 0.1851 0.554 0.5147   -0.554017
 O 0.9504 0.4412 0.3922   -0.54689
 O 0.9156 0.3291 0.3002   -0.524578
 O 0.0843 0.1743 0.1974   -0.52119
 O 0.0487 0.0596 0.1074   -0.562324
 O 0.8144 0.944 0.9873   -0.576582
 O 0.6182 0.9329 0.9726   -0.528715
 O 0.6198 0.4415 0.4635   -0.529117
 O 0.8149 0.446 0.4853   -0.554037
 O 0.0496 0.5588 0.6078   -0.546913
 O 0.0844 0.6709 0.6998   -0.524578
 O 0.9157 0.8257 0.8026   -0.52119
 O 0.9513 0.9404 0.8926   -0.562342
 O 0.1856 0.056 0.0127   -0.576599
 O 0.3818 0.0671 0.0274   -0.528712
