{'_ref': 'TBD', '_srcid': 'CAKYAQ_clean', 'submitters': [{'name': 'Dalar Nazarian Jeff Camp and David Sholl', 'email': 'dalar@gatech.edu jcamp6@gatech.edu'}], '_method': 'VASP DFT with PBE;DDEC'}
data_MgH2(CO2)2
_symmetry_space_group_name_H-M   'P 1'
_cell_length_a   9.85680000
_cell_length_b   11.30699987
_cell_length_c   14.72900000
_cell_angle_alpha   91.37099837
_cell_angle_beta   90.00000000
_cell_angle_gamma   90.00000000
_symmetry_Int_Tables_number   1
_chemical_formula_structural   MgH2(CO2)2
_chemical_formula_sum   'Mg12 H24 C24 O48'
_cell_volume   1641.08943674
_cell_formula_units_Z   12
loop_
 _symmetry_equiv_pos_site_id
 _symmetry_equiv_pos_as_xyz
  1  'x, y, z'
loop_
 _atom_site_label
 _atom_site_fract_x
 _atom_site_fract_y
 _atom_site_fract_z
 _atom_site_charge
 Mg 0.57762 0.74357 0.36462   1.524613
 Mg 0.3857 0.76038 0.19267   1.493552
 Mg 0.07762 0.75643 0.13538   1.524613
 Mg 0.8857 0.73962 0.30733   1.493552
 Mg 0.42238 0.25643 0.63538   1.524613
 Mg 0.6143 0.23962 0.80733   1.493552
 Mg 0.92238 0.24357 0.86462   1.524613
 Mg 0.1143 0.26038 0.69267   1.493552
 Mg 0.5 0.0 0.5   1.491713
 Mg 0.0 0.5 0.0   1.491713
 Mg 0.5 0.5 0.5   1.502769
 Mg 0.0 0.0 0.0   1.502769
 H 0.4476 0.0227 0.2424   0.000831
 H 0.8789 0.9446 0.4487   -0.003938
 H 0.7909 0.4988 0.4737   -0.003392
 H 0.7368 0.6494 0.1304   -0.012874
 H 0.3481 0.8032 0.5701   -0.007832
 H 0.3015 0.5207 0.2752   -0.008759
 H 0.9476 0.4773 0.2576   0.000831
 H 0.3789 0.5554 0.0513   -0.003938
 H 0.2909 0.0012 0.0263   -0.003392
 H 0.2368 0.8506 0.3696   -0.012874
 H 0.8481 0.6968 0.9299   -0.007832
 H 0.8015 0.9793 0.2248   -0.008759
 H 0.5524 0.9773 0.7576   0.000831
 H 0.1211 0.0554 0.5513   -0.003938
 H 0.2091 0.5012 0.5263   -0.003391
 H 0.2632 0.3506 0.8696   -0.012874
 H 0.6519 0.1968 0.4299   -0.007832
 H 0.6985 0.4793 0.7248   -0.008759
 H 0.0524 0.5227 0.7424   0.000831
 H 0.6211 0.4446 0.9487   -0.003938
 H 0.7091 0.9988 0.9737   -0.003391
 H 0.7632 0.1494 0.6304   -0.012874
 H 0.1519 0.3032 0.0701   -0.007832
 H 0.1985 0.0207 0.7752   -0.008759
 C 0.47327 0.98113 0.29328   0.75653
 C 0.78731 0.92595 0.4433   0.756238
 C 0.773 0.56265 0.43689   0.760162
 C 0.66778 0.67698 0.16846   0.760748
 C 0.40275 0.75895 0.5306   0.768483
 C 0.36366 0.54879 0.31804   0.75711
 C 0.97327 0.51887 0.20672   0.75653
 C 0.28731 0.57405 0.0567   0.756238
 C 0.273 0.93735 0.06311   0.760162
 C 0.16778 0.82302 0.33154   0.760748
 C 0.90275 0.74105 0.9694   0.768484
 C 0.86366 0.95121 0.18196   0.75711
 C 0.52673 0.01887 0.70672   0.75653
 C 0.21269 0.07405 0.5567   0.756238
 C 0.227 0.43735 0.56311   0.760162
 C 0.33222 0.32302 0.83154   0.760748
 C 0.59725 0.24105 0.4694   0.768484
 C 0.63634 0.45121 0.68196   0.75711
 C 0.02673 0.48113 0.79328   0.75653
 C 0.71269 0.42595 0.9433   0.756238
 C 0.727 0.06265 0.93689   0.760162
 C 0.83222 0.17698 0.66846   0.760748
 C 0.09725 0.25895 0.0306   0.768484
 C 0.13634 0.04879 0.81804   0.75711
 O 0.48925 0.86985 0.28298   -0.829659
 O 0.48884 0.03874 0.36478   -0.678885
 O 0.7551 0.84218 0.38725   -0.828121
 O 0.70696 0.98398 0.49076   -0.667172
 O 0.65011 0.59889 0.43379   -0.8266
 O 0.87026 0.60492 0.39535   -0.684947
 O 0.69734 0.69456 0.25208   -0.820574
 O 0.55519 0.69338 0.13351   -0.681852
 O 0.47568 0.81631 0.47471   -0.836876
 O 0.39834 0.65067 0.53682   -0.683956
 O 0.41772 0.64956 0.3038   -0.831981
 O 0.38638 0.48563 0.38337   -0.66809
 O 0.98925 0.63015 0.21702   -0.829659
 O 0.98884 0.46126 0.13522   -0.678885
 O 0.2551 0.65782 0.11275   -0.828121
 O 0.20696 0.51602 0.00924   -0.667172
 O 0.15011 0.90111 0.06621   -0.8266
 O 0.37026 0.89508 0.10465   -0.684947
 O 0.19734 0.80544 0.24792   -0.820574
 O 0.05519 0.80662 0.36649   -0.681852
 O 0.97568 0.68369 0.02529   -0.836876
 O 0.89834 0.84933 0.96318   -0.683956
 O 0.91772 0.85044 0.1962   -0.831981
 O 0.88638 0.01437 0.11663   -0.66809
 O 0.51075 0.13015 0.71702   -0.829659
 O 0.51116 0.96126 0.63522   -0.678885
 O 0.2449 0.15782 0.61275   -0.828121
 O 0.29304 0.01602 0.50924   -0.667172
 O 0.34989 0.40111 0.56621   -0.8266
 O 0.12974 0.39508 0.60465   -0.684947
 O 0.30266 0.30544 0.74792   -0.820574
 O 0.44481 0.30662 0.86649   -0.681852
 O 0.52432 0.18369 0.52529   -0.836876
 O 0.60166 0.34933 0.46318   -0.683956
 O 0.58228 0.35044 0.6962   -0.831981
 O 0.61362 0.51437 0.61663   -0.66809
 O 0.01075 0.36985 0.78298   -0.829659
 O 0.01116 0.53874 0.86478   -0.678885
 O 0.7449 0.34218 0.88725   -0.828121
 O 0.79304 0.48398 0.99076   -0.667172
 O 0.84989 0.09889 0.93379   -0.8266
 O 0.62974 0.10492 0.89535   -0.684947
 O 0.80266 0.19456 0.75208   -0.820574
 O 0.94481 0.19338 0.63351   -0.681852
 O 0.02432 0.31631 0.97471   -0.836876
 O 0.10166 0.15067 0.03682   -0.683956
 O 0.08228 0.14956 0.8038   -0.831981
 O 0.11362 0.98563 0.88337   -0.66809
