{'_ref': 'TBD', '_srcid': 'CAKYAQ_clean', 'submitters': [{'name': 'Dalar Nazarian Jeff Camp and David Sholl', 'email': 'dalar@gatech.edu jcamp6@gatech.edu'}], '_method': 'VASP DFT with PBE;DDEC'}
data_ZnH11C18NO4
_symmetry_space_group_name_H-M   'P 1'
_cell_length_a   16.15780000
_cell_length_b   18.10390034
_cell_length_c   18.80700000
_cell_angle_alpha   90.00000000
_cell_angle_beta   90.00000000
_cell_angle_gamma   92.61500095
_symmetry_Int_Tables_number   1
_chemical_formula_structural   ZnH11C18NO4
_chemical_formula_sum   'Zn8 H88 C144 N8 O32'
_cell_volume   5495.67976732
_cell_formula_units_Z   8
loop_
 _symmetry_equiv_pos_site_id
 _symmetry_equiv_pos_as_xyz
  1  'x, y, z'
loop_
 _atom_site_label
 _atom_site_fract_x
 _atom_site_fract_y
 _atom_site_fract_z
 _atom_site_charge
 Zn 0.63455 0.32766 0.4998   0.918364
 Zn 0.81421 0.35782 0.50078   0.914226
 Zn 0.63455 0.82766 0.0002   0.918364
 Zn 0.81421 0.85782 0.99922   0.914226
 Zn 0.36545 0.17234 0.9998   0.918363
 Zn 0.18579 0.14217 0.000779999999999   0.914209
 Zn 0.36545 0.67234 0.5002   0.918363
 Zn 0.18579 0.64217 0.49922   0.914209
 H 0.576 0.495 0.653   0.098575
 H 0.558 0.5864 0.7433   0.116006
 H 0.629 0.6665 0.8358   0.106055
 H 0.873 0.6646 0.873   0.102072
 H 0.885 0.5688 0.7888   0.111673
 H 0.8254 0.487 0.6928   0.108107
 H 0.585 0.4692 0.3225   0.097145
 H 0.57 0.5497 0.2288   0.110377
 H 0.6314 0.6486 0.1504   0.114943
 H 0.863 0.7329 0.1913   0.103034
 H 0.884 0.6472 0.2817   0.107136
 H 0.8217 0.5486 0.3587   0.095972
 H 0.9559 0.3077 0.5758   0.083713
 H 0.102 0.312 0.574   0.132048
 H 0.226 0.431 0.4676   0.121365
 H 0.225 0.2891 0.5314   0.110511
 H 0.344 0.228 0.532   0.135298
 H 0.485 0.224 0.525   0.082134
 H 0.504 0.4286 0.4809   0.082269
 H 0.371 0.4388 0.485   0.128676
 H 0.0857 0.4574 0.4158   0.134889
 H 0.9463 0.4447 0.4209   0.093321
 H 0.576 0.995 0.847   0.098575
 H 0.558 0.0864 0.7567   0.116006
 H 0.629 0.1665 0.6642   0.106055
 H 0.873 0.1646 0.627   0.102072
 H 0.885 0.0688 0.7112   0.111673
 H 0.8254 0.987 0.8072   0.108107
 H 0.585 0.9692 0.1775   0.097145
 H 0.57 0.0497 0.2712   0.110377
 H 0.6314 0.1486 0.3496   0.114943
 H 0.863 0.2329 0.3087   0.103034
 H 0.884 0.1472 0.2183   0.107136
 H 0.8217 0.0486 0.1413   0.095972
 H 0.9559 0.8077 0.9242   0.083713
 H 0.102 0.812 0.926   0.132048
 H 0.226 0.931 0.0324   0.121365
 H 0.225 0.7891 0.9686   0.110511
 H 0.344 0.728 0.968   0.135298
 H 0.485 0.724 0.975   0.082134
 H 0.504 0.9286 0.0191   0.082269
 H 0.371 0.9388 0.015   0.128676
 H 0.0857 0.9574 0.0842   0.134889
 H 0.9463 0.9447 0.0791   0.093321
 H 0.424 0.005 0.153   0.098575
 H 0.442 0.9136 0.2433   0.116006
 H 0.371 0.8335 0.3358   0.106056
 H 0.127 0.8354 0.373   0.102072
 H 0.115 0.9312 0.2888   0.111673
 H 0.1746 0.013 0.1928   0.108106
 H 0.415 0.0308 0.8225   0.097145
 H 0.43 0.9503 0.7288   0.110378
 H 0.3686 0.8514 0.6504   0.114944
 H 0.137 0.7671 0.6913   0.103034
 H 0.116 0.8528 0.7817   0.107136
 H 0.1783 0.9514 0.8587   0.095971
 H 0.0441 0.1923 0.0758   0.083716
 H 0.898 0.188 0.074   0.132049
 H 0.774 0.069 0.9676   0.121367
 H 0.775 0.2109 0.0314   0.110511
 H 0.656 0.272 0.032   0.135298
 H 0.515 0.276 0.025   0.082135
 H 0.496 0.0714 0.9809   0.082268
 H 0.629 0.0612 0.985   0.128677
 H 0.9143 0.0426 0.9158   0.134889
 H 0.0537 0.0553 0.9209   0.09332
 H 0.424 0.505 0.347   0.098575
 H 0.442 0.4136 0.2567   0.116006
 H 0.371 0.3335 0.1642   0.106056
 H 0.127 0.3354 0.127   0.102072
 H 0.115 0.4312 0.2112   0.111673
 H 0.1746 0.513 0.3072   0.108106
 H 0.415 0.5308 0.6775   0.097145
 H 0.43 0.4503 0.7712   0.110378
 H 0.3686 0.3514 0.8496   0.114944
 H 0.137 0.2671 0.8087   0.103034
 H 0.116 0.3528 0.7183   0.107136
 H 0.1783 0.4514 0.6413   0.095971
 H 0.0441 0.6923 0.4242   0.083717
 H 0.898 0.688 0.426   0.132049
 H 0.774 0.569 0.5324   0.121367
 H 0.775 0.7109 0.4686   0.110511
 H 0.656 0.772 0.468   0.135298
 H 0.515 0.776 0.475   0.082135
 H 0.496 0.5714 0.5191   0.082268
 H 0.629 0.5612 0.515   0.128677
 H 0.9143 0.5426 0.5842   0.134889
 H 0.0537 0.5553 0.5791   0.09332
 C 0.71177 0.43349 0.60408   0.67089
 C 0.70257 0.48641 0.66462   -0.122169
 C 0.62339 0.51299 0.68047   -0.052521
 C 0.61455 0.56406 0.73251   -0.156981
 C 0.68437 0.59159 0.77185   0.049422
 C 0.6782 0.64721 0.82376   -0.077771
 C 0.74697 0.6749 0.85965   -0.121364
 C 0.82483 0.64501 0.84667   -0.058985
 C 0.83279 0.59054 0.79749   -0.152867
 C 0.76335 0.56316 0.7577   0.052806
 C 0.77015 0.51023 0.70342   -0.104484
 C 0.73899 0.73659 0.91201   0.680771
 C 0.7119 0.44572 0.40852   0.671686
 C 0.70381 0.50138 0.35042   -0.12145
 C 0.62872 0.50363 0.31213   -0.053273
 C 0.62072 0.551 0.25725   -0.145534
 C 0.68718 0.60052 0.23733   0.049635
 C 0.6809 0.65094 0.18043   -0.094332
 C 0.74597 0.69825 0.16249   -0.113934
 C 0.8209 0.69646 0.20073   -0.042237
 C 0.82957 0.64874 0.25565   -0.172979
 C 0.76271 0.5995 0.27585   0.053022
 C 0.7692 0.54856 0.33225   -0.104604
 C 0.73635 0.75133 0.10229   0.679625
 C 0.98416 0.33613 0.54469   0.181828
 C 0.06942 0.3395 0.54394   -0.221644
 C 0.11141 0.38371 0.49398   0.149128
 C 0.20185 0.38621 0.48881   -0.092205
 C 0.24771 0.33278 0.51264   -0.108866
 C 0.3381 0.33165 0.5083   0.135635
 C 0.37709 0.26615 0.5209   -0.210235
 C 0.46177 0.26462 0.51641   0.193145
 C 0.47193 0.38763 0.48901   0.172928
 C 0.3883 0.39366 0.49225   -0.186575
 C 0.06393 0.42522 0.44928   -0.195325
 C 0.97881 0.41842 0.45301   0.151972
 C 0.71177 0.93349 0.89592   0.67089
 C 0.70257 0.98641 0.83538   -0.122169
 C 0.62339 0.01299 0.81953   -0.052521
 C 0.61455 0.06406 0.76749   -0.156981
 C 0.68437 0.09159 0.72815   0.049422
 C 0.6782 0.14721 0.67624   -0.077771
 C 0.74697 0.1749 0.64035   -0.121364
 C 0.82483 0.14501 0.65333   -0.058985
 C 0.83279 0.09054 0.70251   -0.152867
 C 0.76335 0.06316 0.7423   0.052806
 C 0.77015 0.01023 0.79658   -0.104484
 C 0.73899 0.23659 0.58799   0.680771
 C 0.7119 0.94572 0.09148   0.671686
 C 0.70381 0.00138 0.14958   -0.12145
 C 0.62872 0.00363 0.18787   -0.053273
 C 0.62072 0.051 0.24275   -0.145534
 C 0.68718 0.10052 0.26267   0.049635
 C 0.6809 0.15094 0.31957   -0.094332
 C 0.74597 0.19825 0.33751   -0.113934
 C 0.8209 0.19646 0.29927   -0.042237
 C 0.82957 0.14874 0.24435   -0.172979
 C 0.76271 0.0995 0.22415   0.053022
 C 0.7692 0.04856 0.16775   -0.104604
 C 0.73635 0.25133 0.39771   0.679625
 C 0.98416 0.83613 0.95531   0.181828
 C 0.06942 0.8395 0.95606   -0.221644
 C 0.11141 0.88371 0.00602   0.149128
 C 0.20185 0.88621 0.01119   -0.092205
 C 0.24771 0.83278 0.98736   -0.108866
 C 0.3381 0.83165 0.9917   0.135635
 C 0.37709 0.76615 0.9791   -0.210235
 C 0.46177 0.76462 0.98359   0.193145
 C 0.47193 0.88763 0.01099   0.172928
 C 0.3883 0.89366 0.00775   -0.186575
 C 0.06393 0.92522 0.05072   -0.195325
 C 0.97881 0.91842 0.04699   0.151972
 C 0.28823 0.06651 0.10408   0.670887
 C 0.29743 0.01359 0.16462   -0.122175
 C 0.37661 0.98701 0.18047   -0.05252
 C 0.38545 0.93594 0.23251   -0.156981
 C 0.31563 0.90841 0.27185   0.049424
 C 0.3218 0.85279 0.32376   -0.077777
 C 0.25303 0.8251 0.35965   -0.121357
 C 0.17517 0.85499 0.34667   -0.058984
 C 0.16721 0.90946 0.29749   -0.152869
 C 0.23665 0.93684 0.2577   0.052804
 C 0.22985 0.98977 0.20342   -0.104483
 C 0.26101 0.76341 0.41201   0.680772
 C 0.2881 0.05428 0.90852   0.67169
 C 0.29619 0.99862 0.85042   -0.121458
 C 0.37128 0.99637 0.81213   -0.053272
 C 0.37928 0.949 0.75725   -0.145534
 C 0.31282 0.89948 0.73733   0.049637
 C 0.3191 0.84906 0.68043   -0.094338
 C 0.25403 0.80175 0.66249   -0.113924
 C 0.1791 0.80354 0.70073   -0.042235
 C 0.17043 0.85126 0.75565   -0.172981
 C 0.23729 0.9005 0.77585   0.053021
 C 0.2308 0.95144 0.83225   -0.104601
 C 0.26365 0.74867 0.60229   0.679621
 C 0.01584 0.16387 0.04469   0.181829
 C 0.93058 0.1605 0.04394   -0.221645
 C 0.88859 0.11629 0.99398   0.149129
 C 0.79815 0.11379 0.98881   -0.092203
 C 0.75229 0.16722 0.01264   -0.108868
 C 0.6619 0.16835 0.0083   0.135635
 C 0.62291 0.23385 0.0209   -0.210236
 C 0.53823 0.23538 0.01641   0.193146
 C 0.52807 0.11237 0.98901   0.172926
 C 0.6117 0.10634 0.99225   -0.186575
 C 0.93607 0.07478 0.94928   -0.195319
 C 0.02119 0.08158 0.95301   0.151962
 C 0.28823 0.56651 0.39592   0.670887
 C 0.29743 0.51359 0.33538   -0.122175
 C 0.37661 0.48701 0.31953   -0.05252
 C 0.38545 0.43594 0.26749   -0.156981
 C 0.31563 0.40841 0.22815   0.049424
 C 0.3218 0.35279 0.17624   -0.077777
 C 0.25303 0.3251 0.14035   -0.121357
 C 0.17517 0.35499 0.15333   -0.058984
 C 0.16721 0.40946 0.20251   -0.152869
 C 0.23665 0.43684 0.2423   0.052804
 C 0.22985 0.48977 0.29658   -0.104483
 C 0.26101 0.26341 0.08799   0.680772
 C 0.2881 0.55428 0.59148   0.67169
 C 0.29619 0.49862 0.64958   -0.121458
 C 0.37128 0.49637 0.68787   -0.053272
 C 0.37928 0.449 0.74275   -0.145534
 C 0.31282 0.39948 0.76267   0.049637
 C 0.3191 0.34906 0.81957   -0.094338
 C 0.25403 0.30175 0.83751   -0.113924
 C 0.1791 0.30354 0.79927   -0.042236
 C 0.17043 0.35126 0.74435   -0.172981
 C 0.23729 0.4005 0.72415   0.053021
 C 0.2308 0.45144 0.66775   -0.104601
 C 0.26365 0.24867 0.89771   0.679621
 C 0.01584 0.66387 0.45531   0.181829
 C 0.93058 0.6605 0.45606   -0.221645
 C 0.88859 0.61629 0.50602   0.149129
 C 0.79815 0.61379 0.51119   -0.092203
 C 0.75229 0.66722 0.48736   -0.108868
 C 0.6619 0.66835 0.4917   0.135635
 C 0.62291 0.73385 0.4791   -0.210236
 C 0.53823 0.73538 0.48359   0.193146
 C 0.52807 0.61237 0.51099   0.172926
 C 0.6117 0.60634 0.50775   -0.186575
 C 0.93607 0.57478 0.55072   -0.195319
 C 0.02119 0.58158 0.54699   0.151962
 N 0.93867 0.37381 0.49922   -0.306819
 N 0.50949 0.32408 0.50069   -0.314874
 N 0.93867 0.87381 0.000779999999999   -0.306819
 N 0.50949 0.82408 0.99931   -0.314874
 N 0.06133 0.12619 0.99922   -0.306802
 N 0.49051 0.17592 0.000689999999999   -0.314874
 N 0.06133 0.62619 0.50078   -0.306802
 N 0.49051 0.67592 0.49931   -0.314874
 O 0.64701 0.41462 0.56994   -0.599463
 O 0.78319 0.41233 0.59103   -0.602364
 O 0.80434 0.76161 0.94138   -0.5926
 O 0.66743 0.7593 0.92152   -0.591478
 O 0.78037 0.44533 0.441   -0.603338
 O 0.64997 0.4035 0.4202   -0.584059
 O 0.66772 0.75007 0.07086   -0.594201
 O 0.79828 0.79387 0.08826   -0.600874
 O 0.64701 0.91462 0.93006   -0.599463
 O 0.78319 0.91233 0.90897   -0.602364
 O 0.80434 0.26161 0.55862   -0.5926
 O 0.66743 0.2593 0.57848   -0.591478
 O 0.78037 0.94533 0.059   -0.603338
 O 0.64997 0.9035 0.0798   -0.584059
 O 0.66772 0.25007 0.42914   -0.594201
 O 0.79828 0.29387 0.41174   -0.600874
 O 0.35299 0.08538 0.06994   -0.599457
 O 0.21681 0.08767 0.09103   -0.602347
 O 0.19566 0.73839 0.44138   -0.592609
 O 0.33257 0.7407 0.42152   -0.591487
 O 0.21963 0.05467 0.941   -0.603336
 O 0.35003 0.0965 0.9202   -0.584048
 O 0.33228 0.74993 0.57086   -0.594206
 O 0.20172 0.70613 0.58826   -0.600875
 O 0.35299 0.58538 0.43006   -0.599457
 O 0.21681 0.58767 0.40897   -0.602347
 O 0.19566 0.23839 0.05862   -0.592609
 O 0.33257 0.2407 0.07848   -0.591487
 O 0.21963 0.55467 0.559   -0.603336
 O 0.35003 0.5965 0.5798   -0.584048
 O 0.33228 0.24993 0.92914   -0.594206
 O 0.20172 0.20613 0.91174   -0.600875
