{'_ref': 'TBD', '_srcid': 'CAKYAQ_clean', 'submitters': [{'name': 'Dalar Nazarian Jeff Camp and David Sholl', 'email': 'dalar@gatech.edu jcamp6@gatech.edu'}], '_method': 'VASP DFT with PBE;DDEC'}
data_Co(CO)4
_symmetry_space_group_name_H-M   'P 1'
_cell_length_a   7.53699985
_cell_length_b   7.76210019
_cell_length_c   7.76210000
_cell_angle_alpha   116.82200268
_cell_angle_beta   102.94100077
_cell_angle_gamma   102.94100125
_symmetry_Int_Tables_number   1
_chemical_formula_structural   Co(CO)4
_chemical_formula_sum   'Co2 C8 O8'
_cell_volume   366.346976024
_cell_formula_units_Z   2
loop_
 _symmetry_equiv_pos_site_id
 _symmetry_equiv_pos_as_xyz
  1  'x, y, z'
loop_
 _atom_site_label
 _atom_site_fract_x
 _atom_site_fract_y
 _atom_site_fract_z
 _atom_site_charge
 Co 0.5 0.13933 0.86067   1.089092
 Co 0.0 0.86067 0.13933   1.089092
 C 0.7294 0.1166 0.2212   0.760963
 C 0.7337 0.3185 0.3851   -0.180528
 C 0.7784 0.4978 0.3928   -0.141675
 C 0.828 0.5377 0.2331   0.736934
 C 0.2294 0.2212 0.1166   0.760963
 C 0.2337 0.3851 0.3185   -0.180528
 C 0.2784 0.3928 0.4978   -0.141675
 C 0.328 0.2331 0.5377   0.736934
 O 0.6112 0.0206 0.037   -0.592011
 O 0.8465 0.0464 0.2882   -0.552187
 O 0.7581 0.399 0.0452   -0.560449
 O 0.9422 0.7202 0.3046   -0.56014
 O 0.1112 0.037 0.0206   -0.592011
 O 0.3465 0.2882 0.0464   -0.552187
 O 0.2581 0.0452 0.399   -0.560449
 O 0.4422 0.3046 0.7202   -0.56014
