{'_ref': 'TBD', '_srcid': 'CAKYAQ_clean', 'submitters': [{'name': 'Dalar Nazarian Jeff Camp and David Sholl', 'email': 'dalar@gatech.edu jcamp6@gatech.edu'}], '_method': 'VASP DFT with PBE;DDEC'}
data_Cd2H30C42(NO)9
_symmetry_space_group_name_H-M   'P 1'
_cell_length_a   12.13799991
_cell_length_b   13.14599990
_cell_length_c   14.32100000
_cell_angle_alpha   91.15800188
_cell_angle_beta   98.91100052
_cell_angle_gamma   90.56699944
_symmetry_Int_Tables_number   1
_chemical_formula_structural   Cd2H30C42(NO)9
_chemical_formula_sum   'Cd4 H60 C84 N18 O18'
_cell_volume   2256.90801282
_cell_formula_units_Z   2
loop_
 _symmetry_equiv_pos_site_id
 _symmetry_equiv_pos_as_xyz
  1  'x, y, z'
loop_
 _atom_site_label
 _atom_site_fract_x
 _atom_site_fract_y
 _atom_site_fract_z
 _atom_site_charge
 Cd 0.3016 0.07406 0.32508   0.901739
 Cd 0.436 0.77442 0.28136   0.720789
 Cd 0.6984 0.92594 0.67492   0.90174
 Cd 0.564 0.22558 0.71864   0.72079
 H 0.2894 0.3733 0.8628   0.060198
 H 0.3445 0.4376 0.7904   0.054382
 H 0.1544 0.3436 0.7545   0.120348
 H 0.9715 0.3077 0.6901   0.08323
 H 0.8358 0.4274 0.6879   0.107662
 H 0.0627 0.6247 0.8238   0.133749
 H 0.7133 0.5476 0.7684   0.081936
 H 0.9328 0.7435 0.7088   0.102612
 H 0.412 0.5776 0.7768   0.054735
 H 0.5209 0.6442 0.8089   0.057173
 H 0.2095 0.7818 0.8734   0.116857
 H 0.0917 0.8718 0.7648   0.086541
 H 0.1367 0.8979 0.6162   0.120411
 H 0.4183 0.7427 0.6864   0.140586
 H 0.3294 0.0015 0.5503   0.103797
 H 0.3217 0.7144 0.4797   0.0933
 H 0.6434 0.7238 0.0225   0.080138
 H 0.624 0.7022 0.9126   0.067443
 H 0.7556 0.8223 0.9203   0.130149
 H 0.9061 0.9311 0.9207   0.099164
 H 0.0829 0.8811 0.9867   0.128938
 H 0.9599 0.6097 0.0428   0.137633
 H 0.1917 0.8312 0.1612   0.108084
 H 0.177 0.5709 0.0216   0.097813
 H 0.9919 0.9143 0.4473   0.092842
 H 0.8141 0.8512 0.4409   0.096748
 H 0.7707 0.8582 0.1575   0.090549
 H 0.9507 0.9181 0.1636   0.080264
 H 0.5008 0.1525 0.0799   0.073372
 H 0.5656 0.1455 0.9375   0.09176
 H 0.7106 0.6267 0.1372   0.060198
 H 0.6555 0.5624 0.2096   0.054382
 H 0.8456 0.6564 0.2455   0.120348
 H 0.0285 0.6923 0.3099   0.08323
 H 0.1642 0.5726 0.3121   0.107667
 H 0.9373 0.3753 0.1762   0.133749
 H 0.2867 0.4524 0.2316   0.081936
 H 0.0672 0.2565 0.2912   0.102612
 H 0.588 0.4224 0.2232   0.054735
 H 0.4791 0.3558 0.1911   0.057173
 H 0.7905 0.2182 0.1266   0.116857
 H 0.9083 0.1282 0.2352   0.086541
 H 0.8633 0.1021 0.3838   0.120411
 H 0.5817 0.2573 0.3136   0.140586
 H 0.6706 0.9985 0.4497   0.103797
 H 0.6783 0.2856 0.5203   0.093304
 H 0.3566 0.2762 0.9775   0.080138
 H 0.376 0.2978 0.0874   0.067442
 H 0.2444 0.1777 0.0797   0.130149
 H 0.0939 0.0689 0.0793   0.099166
 H 0.9171 0.1189 0.0133   0.128941
 H 0.0401 0.3903 0.9572   0.137634
 H 0.8083 0.1688 0.8388   0.108085
 H 0.823 0.4291 0.9784   0.097813
 H 0.0081 0.0857 0.5527   0.092841
 H 0.1859 0.1488 0.5591   0.096748
 H 0.2293 0.1418 0.8425   0.09055
 H 0.0493 0.0819 0.8364   0.080265
 H 0.4992 0.8475 0.9201   0.073371
 H 0.4344 0.8545 0.0625   0.091758
 C 0.4112 0.4731 0.9294   -0.016885
 C 0.4811 0.5537 0.9166   -0.039527
 C 0.5711 0.5821 0.9868   -0.012309
 C 0.3172 0.4403 0.8505   0.092392
 C 0.1267 0.4859 0.7997   0.314147
 C 0.0999 0.3924 0.7567   -0.270368
 C 0.9901 0.372 0.7165   0.020315
 C 0.9091 0.4428 0.7146   -0.240555
 C 0.9381 0.5375 0.7529   0.159778
 C 0.0451 0.5606 0.7967   -0.326377
 C 0.7467 0.6076 0.753   0.15232
 C 0.8665 0.7139 0.7206   0.144607
 C 0.4536 0.6173 0.8286   0.094169
 C 0.3241 0.7496 0.79   0.312104
 C 0.2274 0.7911 0.8133   -0.22423
 C 0.1574 0.8457 0.7487   0.000362
 C 0.1841 0.8619 0.6607   -0.209
 C 0.2822 0.8239 0.6396   0.153896
 C 0.3524 0.7679 0.7026   -0.311926
 C 0.333 0.941 0.5162   0.197922
 C 0.3281 0.7849 0.478   0.119851
 C 0.647 0.6722 0.9738   0.081403
 C 0.8429 0.7043 0.9793   0.295143
 C 0.827 0.8012 0.9446   -0.245246
 C 0.9168 0.8668 0.946   0.020315
 C 0.0222 0.837 0.985   -0.228081
 C 0.0363 0.7415 0.0212   0.164427
 C 0.9485 0.6745 0.0185   -0.307073
 C 0.2092 0.7671 0.1395   0.161063
 C 0.2013 0.6244 0.0635   0.17994
 C 0.0976 0.9839 0.3105   0.627527
 C 0.9879 0.9278 0.3068   -0.147743
 C 0.9469 0.9042 0.389   -0.071675
 C 0.8408 0.8661 0.3852   -0.068487
 C 0.7734 0.8497 0.2999   -0.132085
 C 0.8154 0.87 0.2156   -0.070307
 C 0.9222 0.9069 0.2192   -0.06958
 C 0.6536 0.8182 0.2944   0.629863
 C 0.4167 0.0111 0.1786   0.651888
 C 0.4613 0.0038 0.0863   -0.142307
 C 0.5006 0.0905 0.0474   -0.056398
 C 0.5393 0.0867 0.962   -0.059502
 C 0.5888 0.5269 0.0706   -0.016887
 C 0.5189 0.4463 0.0834   -0.039526
 C 0.4289 0.4179 0.0132   -0.012311
 C 0.6828 0.5597 0.1495   0.092392
 C 0.8733 0.5141 0.2003   0.314147
 C 0.9001 0.6076 0.2433   -0.27037
 C 0.0099 0.628 0.2835   0.020312
 C 0.0909 0.5572 0.2854   -0.24056
 C 0.0619 0.4625 0.2471   0.159778
 C 0.9549 0.4394 0.2033   -0.326377
 C 0.2533 0.3924 0.247   0.15232
 C 0.1335 0.2861 0.2794   0.144606
 C 0.5464 0.3827 0.1714   0.094169
 C 0.6759 0.2504 0.21   0.312103
 C 0.7726 0.2089 0.1867   -0.224227
 C 0.8426 0.1543 0.2513   0.000363
 C 0.8159 0.1381 0.3393   -0.209001
 C 0.7178 0.1761 0.3604   0.153897
 C 0.6476 0.2321 0.2974   -0.311926
 C 0.667 0.059 0.4838   0.197922
 C 0.6719 0.2151 0.522   0.11985
 C 0.353 0.3278 0.0262   0.081404
 C 0.1571 0.2957 0.0207   0.295143
 C 0.173 0.1988 0.0554   -0.245245
 C 0.0832 0.1332 0.054   0.020315
 C 0.9778 0.163 0.015   -0.228082
 C 0.9637 0.2585 0.9788   0.164427
 C 0.0515 0.3255 0.9815   -0.307074
 C 0.7908 0.2329 0.8605   0.161063
 C 0.7987 0.3756 0.9365   0.17994
 C 0.9024 0.0161 0.6895   0.627527
 C 0.0121 0.0722 0.6932   -0.147743
 C 0.0531 0.0958 0.611   -0.071674
 C 0.1592 0.1339 0.6148   -0.068488
 C 0.2266 0.1503 0.7001   -0.132085
 C 0.1846 0.13 0.7844   -0.070305
 C 0.0778 0.0931 0.7808   -0.069581
 C 0.3464 0.1818 0.7056   0.629863
 C 0.5833 0.9889 0.8214   0.651886
 C 0.5387 0.9962 0.9137   -0.142288
 C 0.4994 0.9095 0.9526   -0.056403
 C 0.4607 0.9133 0.038   -0.059481
 N 0.8556 0.6163 0.7451   -0.008919
 N 0.7727 0.7611 0.7158   -0.244177
 N 0.6936 0.6919 0.7367   -0.284484
 N 0.313 0.8491 0.5502   0.002428
 N 0.357 0.9373 0.4334   -0.252303
 N 0.3527 0.8344 0.4064   -0.198405
 N 0.1449 0.712 0.0694   -0.034284
 N 0.2981 0.7173 0.1716   -0.194999
 N 0.2933 0.6241 0.1231   -0.2948
 N 0.1444 0.3837 0.2549   -0.008919
 N 0.2273 0.2389 0.2842   -0.244177
 N 0.3064 0.3081 0.2633   -0.284484
 N 0.687 0.1509 0.4498   0.002428
 N 0.643 0.0627 0.5666   -0.252303
 N 0.6473 0.1656 0.5936   -0.198405
 N 0.8551 0.288 0.9306   -0.034284
 N 0.7019 0.2827 0.8284   -0.194999
 N 0.7067 0.3759 0.8769   -0.294799
 O 0.2292 0.5138 0.8477   -0.271861
 O 0.3872 0.6974 0.8587   -0.254137
 O 0.7595 0.6338 0.9802   -0.273739
 O 0.1336 0.0355 0.3836   -0.599424
 O 0.1479 0.9786 0.2412   -0.593744
 O 0.6048 0.8398 0.3637   -0.61425
 O 0.6039 0.7758 0.2213   -0.564159
 O 0.401 0.0985 0.2102   -0.568162
 O 0.3912 0.9325 0.2183   -0.589314
 O 0.7708 0.4862 0.1523   -0.271862
 O 0.6128 0.3026 0.1413   -0.254137
 O 0.2405 0.3662 0.0198   -0.273739
 O 0.8664 0.9645 0.6164   -0.599424
 O 0.8521 0.0214 0.7588   -0.593744
 O 0.3952 0.1602 0.6363   -0.61425
 O 0.3961 0.2242 0.7787   -0.564159
 O 0.599 0.9015 0.7898   -0.568162
 O 0.6088 0.0675 0.7817   -0.589314
