{'_ref': 'TBD', '_srcid': 'CAKYAQ_clean', 'submitters': [{'name': 'Dalar Nazarian Jeff Camp and David Sholl', 'email': 'dalar@gatech.edu jcamp6@gatech.edu'}], '_method': 'VASP DFT with PBE;DDEC'}
data_ErH6(C2O)6
_symmetry_space_group_name_H-M   'P 1'
_cell_length_a   8.52470029
_cell_length_b   10.20040013
_cell_length_c   10.88980000
_cell_angle_alpha   63.72199910
_cell_angle_beta   71.28100120
_cell_angle_gamma   81.14799927
_symmetry_Int_Tables_number   1
_chemical_formula_structural   ErH6(C2O)6
_chemical_formula_sum   'Er2 H12 C24 O12'
_cell_volume   804.07772132
_cell_formula_units_Z   2
loop_
 _symmetry_equiv_pos_site_id
 _symmetry_equiv_pos_as_xyz
  1  'x, y, z'
loop_
 _atom_site_label
 _atom_site_fract_x
 _atom_site_fract_y
 _atom_site_fract_z
 _atom_site_charge
 Er 0.13362 0.93626 0.66037   1.485607
 Er 0.86638 0.06374 0.33963   1.485607
 H 0.721 0.114 0.984   0.101276
 H 0.538 0.842 0.899   0.072096
 H 0.213 0.545 0.09   0.104764
 H 0.626 0.63 0.761   0.100109
 H 0.985 0.5358 0.2693   0.12629
 H 0.949 0.2634 0.6964   0.11364
 H 0.279 0.886 0.016   0.101276
 H 0.462 0.158 0.101   0.072097
 H 0.787 0.455 0.91   0.104764
 H 0.374 0.37 0.239   0.100109
 H 0.015 0.4642 0.7307   0.126288
 H 0.051 0.7366 0.3036   0.113639
 C 0.82742 0.95146 0.84085   0.629771
 C 0.65771 0.97738 0.923   -0.116475
 C 0.6346 0.07196 0.98819   -0.050326
 C 0.52389 0.90663 0.93412   -0.022524
 C 0.32183 0.7298 0.82143   0.641611
 C 0.41483 0.60932 0.91195   -0.107129
 C 0.33444 0.52771 0.05568   -0.048639
 C 0.58053 0.58079 0.85681   -0.020209
 C 0.94274 0.25531 0.45515   0.692132
 C 0.97128 0.38154 0.47957   -0.0739
 C 0.99635 0.52018 0.36615   -0.0597
 C 0.97397 0.36176 0.61362   -0.081155
 C 0.17258 0.04854 0.15915   0.62977
 C 0.34229 0.02262 0.077   -0.116473
 C 0.3654 0.92804 0.01181   -0.050332
 C 0.47611 0.09337 0.06588   -0.022531
 C 0.67817 0.2702 0.17857   0.64161
 C 0.58517 0.39068 0.08805   -0.107128
 C 0.66556 0.47229 0.94432   -0.048645
 C 0.41947 0.41921 0.14319   -0.020213
 C 0.05726 0.74469 0.54485   0.692133
 C 0.02872 0.61846 0.52043   -0.073903
 C 0.00365 0.47982 0.63385   -0.05969
 C 0.02603 0.63824 0.38638   -0.081147
 O 0.94909 0.00936 0.83772   -0.541438
 O 0.84675 0.87268 0.77319   -0.530881
 O 0.17228 0.75392 0.87673   -0.559202
 O 0.39372 0.80688 0.69093   -0.608681
 O 0.98345 0.12716 0.52869   -0.680308
 O 0.87473 0.2818 0.35999   -0.566725
 O 0.05091 0.99064 0.16228   -0.541438
 O 0.15325 0.12732 0.22681   -0.530881
 O 0.82772 0.24608 0.12327   -0.559202
 O 0.60628 0.19312 0.30907   -0.608681
 O 0.01655 0.87284 0.47131   -0.680308
 O 0.12527 0.7182 0.64001   -0.566725
