{'_ref': 'TBD', '_srcid': 'CAKYAQ_clean', 'submitters': [{'name': 'Dalar Nazarian Jeff Camp and David Sholl', 'email': 'dalar@gatech.edu jcamp6@gatech.edu'}], '_method': 'VASP DFT with PBE;DDEC'}
data_ZnH15C22N4O5
_symmetry_space_group_name_H-M   'P 1'
_cell_length_a   8.15800003
_cell_length_b   17.41800000
_cell_length_c   17.55800000
_cell_angle_alpha   90.00000000
_cell_angle_beta   98.28000023
_cell_angle_gamma   90.00000000
_symmetry_Int_Tables_number   1
_chemical_formula_structural   ZnH15C22N4O5
_chemical_formula_sum   'Zn4 H60 C88 N16 O20'
_cell_volume   2468.91557345
_cell_formula_units_Z   4
loop_
 _symmetry_equiv_pos_site_id
 _symmetry_equiv_pos_as_xyz
  1  'x, y, z'
loop_
 _atom_site_label
 _atom_site_fract_x
 _atom_site_fract_y
 _atom_site_fract_z
 _atom_site_charge
 Zn 0.75419 0.30583 0.75174   0.855574
 Zn 0.74581 0.80583 0.74826   0.855574
 Zn 0.24581 0.69417 0.24826   0.855574
 Zn 0.25419 0.19417 0.25174   0.855574
 H 0.0509 0.2721 0.9747   0.101458
 H 0.4942 0.3335 0.0863   0.114562
 H 0.3491 0.4028 0.8683   0.113972
 H 0.6747 0.4346 0.0784   0.066245
 H 0.751 0.3602 0.0471   0.072153
 H 0.0059 0.4377 0.1154   0.093398
 H 0.7686 0.4932 0.9088   0.080428
 H 0.4144 0.2402 0.6947   0.087217
 H 0.2007 0.1788 0.7386   0.143834
 H 0.4824 0.1657 0.9459   0.153016
 H 0.6847 0.2312 0.8962   0.099695
 H 0.7308 0.0904 0.7824   0.133807
 H 0.6277 0.9698 0.7473   0.083784
 H 0.0658 0.8799 0.7889   0.083182
 H 0.1822 0.9962 0.8273   0.145945
 H 0.4491 0.7721 0.5253   0.101458
 H 0.0058 0.8335 0.4137   0.114562
 H 0.1509 0.9028 0.6317   0.113971
 H 0.8253 0.9346 0.4216   0.066245
 H 0.749 0.8602 0.4529   0.072153
 H 0.4941 0.9377 0.3846   0.093398
 H 0.7314 0.9932 0.5912   0.080428
 H 0.0856 0.7402 0.8053   0.087217
 H 0.2993 0.6788 0.7614   0.143834
 H 0.0176 0.6657 0.5541   0.153016
 H 0.8153 0.7312 0.6038   0.099695
 H 0.7692 0.5904 0.7176   0.133807
 H 0.8723 0.4698 0.7527   0.083784
 H 0.4342 0.3799 0.7111   0.083182
 H 0.3178 0.4962 0.6727   0.145945
 H 0.9491 0.7279 0.0253   0.101458
 H 0.5058 0.6665 0.9137   0.114563
 H 0.6509 0.5972 0.1317   0.113972
 H 0.3253 0.5654 0.9216   0.066246
 H 0.249 0.6398 0.9529   0.072153
 H 0.9941 0.5623 0.8846   0.093398
 H 0.2314 0.5068 0.0912   0.080427
 H 0.5856 0.7598 0.3053   0.087218
 H 0.7993 0.8212 0.2614   0.143834
 H 0.5176 0.8343 0.0541   0.153015
 H 0.3153 0.7688 0.1038   0.099695
 H 0.2692 0.9096 0.2176   0.133807
 H 0.3723 0.0302 0.2527   0.083784
 H 0.9342 0.1201 0.2111   0.083182
 H 0.8178 0.0038 0.1727   0.145945
 H 0.5509 0.2279 0.4747   0.101458
 H 0.9942 0.1665 0.5863   0.114563
 H 0.8491 0.0972 0.3683   0.113972
 H 0.1747 0.0654 0.5784   0.066246
 H 0.251 0.1398 0.5471   0.072153
 H 0.5059 0.0623 0.6154   0.093398
 H 0.2686 0.0068 0.4088   0.080427
 H 0.9144 0.2598 0.1947   0.087218
 H 0.7007 0.3212 0.2386   0.143834
 H 0.9824 0.3343 0.4459   0.153015
 H 0.1847 0.2688 0.3962   0.099695
 H 0.2308 0.4096 0.2824   0.133807
 H 0.1277 0.5302 0.2473   0.083784
 H 0.5658 0.6201 0.2889   0.083182
 H 0.6822 0.5038 0.3273   0.145945
 C 0.057 0.3386 0.8396   0.647158
 C 0.1808 0.3372 0.9115   -0.097696
 C 0.1509 0.2978 0.9752   -0.048572
 C 0.2683 0.2956 0.0404   -0.073223
 C 0.2312 0.2528 0.1108   0.641463
 C 0.4162 0.3339 0.0421   -0.205494
 C 0.4473 0.3732 0.9768   0.243706
 C 0.3289 0.3756 0.9115   -0.16677
 C 0.7165 0.4124 0.0343   0.092208
 C 0.8628 0.4587 0.0158   0.01567
 C 0.0025 0.4631 0.0685   -0.111619
 C 0.8618 0.496 0.946   -0.09692
 C 0.4267 0.226 0.7462   0.168273
 C 0.2977 0.1887 0.7719   -0.224729
 C 0.3135 0.1658 0.8486   0.249362
 C 0.4646 0.1815 0.8948   -0.220358
 C 0.5863 0.2203 0.8643   0.162115
 C 0.9714 0.057 0.8113   0.229882
 C 0.8016 0.0483 0.7854   -0.216025
 C 0.7405 0.9751 0.764   0.187685
 C 0.9976 0.9227 0.7888   0.182489
 C 0.0686 0.9927 0.8117   -0.222775
 C 0.443 0.8386 0.6604   0.647158
 C 0.3192 0.8372 0.5885   -0.097696
 C 0.3491 0.7978 0.5248   -0.048572
 C 0.2317 0.7956 0.4596   -0.073223
 C 0.2688 0.7528 0.3892   0.641463
 C 0.0838 0.8339 0.4579   -0.205494
 C 0.0527 0.8732 0.5232   0.243706
 C 0.1711 0.8756 0.5885   -0.16677
 C 0.7835 0.9124 0.4657   0.092208
 C 0.6372 0.9587 0.4842   0.01567
 C 0.4975 0.9631 0.4315   -0.111619
 C 0.6382 0.996 0.554   -0.09692
 C 0.0733 0.726 0.7538   0.168273
 C 0.2023 0.6887 0.7281   -0.224729
 C 0.1865 0.6658 0.6514   0.249362
 C 0.0354 0.6815 0.6052   -0.220358
 C 0.9137 0.7203 0.6357   0.162115
 C 0.5286 0.557 0.6887   0.229882
 C 0.6984 0.5483 0.7146   -0.216025
 C 0.7595 0.4751 0.736   0.187685
 C 0.5024 0.4227 0.7112   0.182488
 C 0.4314 0.4927 0.6883   -0.222775
 C 0.943 0.6614 0.1604   0.647158
 C 0.8192 0.6628 0.0885   -0.097696
 C 0.8491 0.7022 0.0248   -0.048572
 C 0.7317 0.7044 0.9596   -0.073223
 C 0.7688 0.7472 0.8892   0.641463
 C 0.5838 0.6661 0.9579   -0.205494
 C 0.5527 0.6268 0.0232   0.243706
 C 0.6711 0.6244 0.0885   -0.16677
 C 0.2835 0.5876 0.9657   0.092208
 C 0.1372 0.5413 0.9842   0.015668
 C 0.9975 0.5369 0.9315   -0.111611
 C 0.1382 0.504 0.054   -0.096912
 C 0.5733 0.774 0.2538   0.168273
 C 0.7023 0.8113 0.2281   -0.224729
 C 0.6865 0.8342 0.1514   0.249362
 C 0.5354 0.8185 0.1052   -0.220358
 C 0.4137 0.7797 0.1357   0.162115
 C 0.0286 0.943 0.1887   0.229882
 C 0.1984 0.9517 0.2146   -0.216025
 C 0.2595 0.0249 0.236   0.187685
 C 0.0024 0.0773 0.2112   0.182489
 C 0.9314 0.0073 0.1883   -0.222775
 C 0.557 0.1614 0.3396   0.647158
 C 0.6808 0.1628 0.4115   -0.097696
 C 0.6509 0.2022 0.4752   -0.048572
 C 0.7683 0.2044 0.5404   -0.073223
 C 0.7312 0.2472 0.6108   0.641463
 C 0.9162 0.1661 0.5421   -0.205494
 C 0.9473 0.1268 0.4768   0.243706
 C 0.8289 0.1244 0.4115   -0.16677
 C 0.2165 0.0876 0.5343   0.092208
 C 0.3628 0.0413 0.5158   0.015668
 C 0.5025 0.0369 0.5685   -0.111611
 C 0.3618 0.004 0.446   -0.096912
 C 0.9267 0.274 0.2462   0.168272
 C 0.7977 0.3113 0.2719   -0.224729
 C 0.8135 0.3342 0.3486   0.249362
 C 0.9646 0.3185 0.3948   -0.220358
 C 0.0863 0.2797 0.3643   0.162115
 C 0.4714 0.443 0.3113   0.229882
 C 0.3016 0.4517 0.2854   -0.216025
 C 0.2405 0.5249 0.264   0.187685
 C 0.4976 0.5773 0.2888   0.182488
 C 0.5686 0.5073 0.3117   -0.222775
 N 0.5703 0.2434 0.7906   -0.347949
 N 0.1896 0.1293 0.8793   -0.161232
 N 0.0329 0.1268 0.8367   -0.074846
 N 0.8328 0.9141 0.7664   -0.335074
 N 0.9297 0.7434 0.7094   -0.347949
 N 0.3104 0.6293 0.6207   -0.161232
 N 0.4671 0.6268 0.6633   -0.074846
 N 0.6672 0.4141 0.7336   -0.335074
 N 0.4297 0.7566 0.2094   -0.347949
 N 0.8104 0.8707 0.1207   -0.161232
 N 0.9671 0.8732 0.1633   -0.074846
 N 0.1672 0.0859 0.2336   -0.335074
 N 0.0703 0.2566 0.2906   -0.347949
 N 0.6896 0.3707 0.3793   -0.161232
 N 0.5329 0.3732 0.3367   -0.074846
 N 0.3328 0.5859 0.2664   -0.335074
 O 0.9267 0.296 0.8407   -0.615702
 O 0.0803 0.3776 0.7837   -0.582994
 O 0.0961 0.2189 0.1098   -0.60589
 O 0.3397 0.2532 0.1699   -0.591001
 O 0.5905 0.4123 0.9703   -0.249419
 O 0.5733 0.796 0.6593   -0.615702
 O 0.4197 0.8776 0.7163   -0.582994
 O 0.4039 0.7189 0.3902   -0.60589
 O 0.1603 0.7532 0.3301   -0.591001
 O 0.9095 0.9123 0.5297   -0.249419
 O 0.0733 0.704 0.1593   -0.615702
 O 0.9197 0.6224 0.2163   -0.582994
 O 0.9039 0.7811 0.8902   -0.60589
 O 0.6603 0.7468 0.8301   -0.591001
 O 0.4095 0.5877 0.0297   -0.249419
 O 0.4267 0.204 0.3407   -0.615702
 O 0.5803 0.1224 0.2837   -0.582994
 O 0.5961 0.2811 0.6098   -0.60589
 O 0.8397 0.2468 0.6699   -0.591001
 O 0.0905 0.0877 0.4703   -0.249419
