{'_ref': 'TBD', '_srcid': 'CAKYAQ_clean', 'submitters': [{'name': 'Dalar Nazarian Jeff Camp and David Sholl', 'email': 'dalar@gatech.edu jcamp6@gatech.edu'}], '_method': 'VASP DFT with PBE;DDEC'}
data_Zn3H24C38(N3O2)4
_symmetry_space_group_name_H-M   'P 1'
_cell_length_a   11.45810024
_cell_length_b   11.68190001
_cell_length_c   11.86960000
_cell_angle_alpha   64.13199967
_cell_angle_beta   81.20199894
_cell_angle_gamma   72.66299852
_symmetry_Int_Tables_number   1
_chemical_formula_structural   Zn3H24C38(N3O2)4
_chemical_formula_sum   'Zn3 H24 C38 N12 O8'
_cell_volume   1364.14691913
_cell_formula_units_Z   1
loop_
 _symmetry_equiv_pos_site_id
 _symmetry_equiv_pos_as_xyz
  1  'x, y, z'
loop_
 _atom_site_label
 _atom_site_fract_x
 _atom_site_fract_y
 _atom_site_fract_z
 _atom_site_charge
 Zn 0.0 0.0 0.5   0.931622
 Zn 0.0 0.5 0.5   0.699858
 Zn 0.0 0.0 0.0   0.69953
 H 0.7798 0.9993 0.688   0.089783
 H 0.6401 0.4019 0.3674   0.116426
 H 0.5819 0.1171 0.6996   0.116694
 H 0.2084 0.3722 0.6998   0.084311
 H 0.8364 0.2762 0.3662   0.10191
 H 0.4163 0.2771 0.7148   0.110277
 H 0.4417 0.4419 0.3391   0.131402
 H 0.2338 0.5298 0.3363   0.082849
 H 0.5396 0.1944 0.9514   0.125405
 H 0.8411 0.8137 0.0316   0.097497
 H 0.6439 0.8077 0.0347   0.129213
 H 0.7404 0.19 0.9457   0.095892
 H 0.2202 0.000700000000002 0.312   0.089783
 H 0.3599 0.5981 0.6326   0.116426
 H 0.4181 0.8829 0.3004   0.116694
 H 0.7916 0.6278 0.3002   0.084312
 H 0.1636 0.7238 0.6338   0.10191
 H 0.5837 0.7229 0.2852   0.110277
 H 0.5583 0.5581 0.6609   0.131402
 H 0.7662 0.4702 0.6637   0.08285
 H 0.4604 0.8056 0.0486   0.125405
 H 0.1589 0.1863 0.9684   0.097498
 H 0.3561 0.1923 0.9653   0.129213
 H 0.2596 0.81 0.0543   0.095894
 C 0.7508 0.0806 0.6223   0.179388
 C 0.0233 0.2205 0.6195   -0.072186
 C 0.0396 0.9668 0.7666   0.643276
 C 0.4533 0.3437 0.5275   0.099084
 C 0.6657 0.3196 0.433   -0.202963
 C 0.6313 0.1506 0.6298   -0.2105
 C 0.2558 0.3842 0.6266   0.164486
 C 0.0515 0.2476 0.4839   0.634315
 C 0.0196 0.1113 0.7298   -0.069228
 C 0.5854 0.2724 0.5314   0.088188
 C 0.784 0.2433 0.4331   0.184609
 C 0.3812 0.3264 0.6366   -0.213676
 C 0.3963 0.4239 0.4139   -0.202796
 C 0.2709 0.4769 0.4132   0.180089
 C 0.5656 0.000599999999999 0.9967   0.078903
 C 0.5992 0.1152 0.9684   -0.205174
 C 0.7795 0.8913 0.0152   0.173402
 C 0.6609 0.8866 0.0183   -0.197752
 C 0.7203 0.1117 0.9655   0.162421
 C 0.2492 0.9194 0.3777   0.179388
 C 0.9767 0.7795 0.3805   -0.072186
 C 0.9604 0.0332 0.2334   0.643277
 C 0.5467 0.6563 0.4725   0.099084
 C 0.3343 0.6804 0.567   -0.202963
 C 0.3687 0.8494 0.3702   -0.210501
 C 0.7442 0.6158 0.3734   0.164485
 C 0.9485 0.7524 0.5161   0.634315
 C 0.9804 0.8887 0.2702   -0.069228
 C 0.4146 0.7276 0.4686   0.088187
 C 0.216 0.7567 0.5669   0.184609
 C 0.6188 0.6736 0.3634   -0.213676
 C 0.6037 0.5761 0.5861   -0.202796
 C 0.7291 0.5231 0.5868   0.180089
 C 0.4344 0.9994 0.0033   0.078903
 C 0.4008 0.8848 0.0316   -0.205174
 C 0.2205 0.1087 0.9848   0.173402
 C 0.3391 0.1134 0.9817   -0.197752
 C 0.2797 0.8883 0.0345   0.162421
 N 0.9968 0.324 0.6505   -0.123616
 N 0.8268 0.1242 0.5251   -0.310569
 N 0.2004 0.4559 0.5172   -0.29735
 N 0.9766 0.2829 0.7735   -0.178726
 N 0.9907 0.1537 0.8225   -0.136116
 N 0.8113 0.0014 0.9898   -0.278901
 N 0.0032 0.676 0.3495   -0.123616
 N 0.1732 0.8758 0.4749   -0.310569
 N 0.7996 0.5441 0.4828   -0.29735
 N 0.0234 0.7171 0.2265   -0.178725
 N 0.0093 0.8463 0.1775   -0.136116
 N 0.1887 0.9986 0.0102   -0.278901
 O 0.0836 0.1549 0.4496   -0.596853
 O 0.0437 0.3672 0.4115   -0.573101
 O 0.0436 0.9222 0.6883   -0.573131
 O 0.0521 0.8957 0.8835   -0.59269
 O 0.9164 0.8451 0.5504   -0.596854
 O 0.9563 0.6328 0.5885   -0.573101
 O 0.9564 0.0778 0.3117   -0.573131
 O 0.9479 0.1043 0.1165   -0.59269
