{'_ref': 'TBD', '_srcid': 'CAKYAQ_clean', 'submitters': [{'name': 'Dalar Nazarian Jeff Camp and David Sholl', 'email': 'dalar@gatech.edu jcamp6@gatech.edu'}], '_method': 'VASP DFT with PBE;DDEC'}
data_CoH12C15SN3O4
_symmetry_space_group_name_H-M   'P 1'
_cell_length_a   11.34570000
_cell_length_b   11.46800015
_cell_length_c   18.20770000
_cell_angle_alpha   97.52959962
_cell_angle_beta   90.00000000
_cell_angle_gamma   90.00000000
_symmetry_Int_Tables_number   1
_chemical_formula_structural   CoH12C15SN3O4
_chemical_formula_sum   'Co4 H48 C60 S4 N12 O16'
_cell_volume   2348.62156598
_cell_formula_units_Z   4
loop_
 _symmetry_equiv_pos_site_id
 _symmetry_equiv_pos_as_xyz
  1  'x, y, z'
loop_
 _atom_site_label
 _atom_site_fract_x
 _atom_site_fract_y
 _atom_site_fract_z
 _atom_site_charge
 Co 0.5 0.0 0.0   0.808688
 Co 0.5 0.5 0.5   0.808688
 Co 0.2481 0.75 0.75   0.672498
 Co 0.7519 0.25 0.25   0.672498
 H 0.5545 0.9609 0.8348   0.064882
 H 0.6582 0.6698 0.8417   0.142517
 H 0.4559 0.6674 0.8369   0.080986
 H 0.5675 0.0562 0.7318   0.121462
 H 0.2151 0.5616 0.8579   0.096899
 H 0.488 0.3569 0.8597   0.135062
 H 0.1959 0.363 0.8594   0.138167
 H 0.4799 0.2538 0.9597   0.096331
 H 0.2333 0.3168 0.6402   0.126774
 H 0.8361 0.8188 0.8565   0.144583
 H 0.2539 0.5158 0.6441   0.082792
 H 0.0379 0.8188 0.8535   0.106841
 H 0.5545 0.5391 0.6652   0.064881
 H 0.6582 0.8302 0.6583   0.142508
 H 0.4559 0.8326 0.6631   0.080984
 H 0.5675 0.4438 0.7682   0.121443
 H 0.2151 0.9384 0.6421   0.096901
 H 0.488 0.1431 0.6403   0.135056
 H 0.1959 0.137 0.6406   0.138128
 H 0.4799 0.2462 0.5403   0.096326
 H 0.2333 0.1832 0.8598   0.126728
 H 0.8361 0.6812 0.6435   0.144583
 H 0.2539 0.9842 0.8559   0.082785
 H 0.0379 0.6812 0.6465   0.106836
 H 0.4455 0.0391 0.1652   0.064881
 H 0.3418 0.3302 0.1583   0.142486
 H 0.5441 0.3326 0.1631   0.08098
 H 0.4325 0.9438 0.2682   0.121462
 H 0.7849 0.4384 0.1421   0.096898
 H 0.512 0.6431 0.1403   0.135054
 H 0.8041 0.637 0.1406   0.138159
 H 0.5201 0.7462 0.0403   0.096289
 H 0.7667 0.6832 0.3598   0.126747
 H 0.1639 0.1812 0.1435   0.144556
 H 0.7461 0.4842 0.3559   0.082792
 H 0.9621 0.1812 0.1465   0.106838
 H 0.4455 0.4609 0.3348   0.064881
 H 0.3418 0.1698 0.3417   0.142478
 H 0.5441 0.1674 0.3369   0.080978
 H 0.4325 0.5562 0.2318   0.121444
 H 0.7849 0.0616 0.3579   0.096899
 H 0.512 0.8569 0.3597   0.135048
 H 0.8041 0.863 0.3594   0.138119
 H 0.5201 0.7538 0.4597   0.096284
 H 0.7667 0.8168 0.1402   0.126701
 H 0.1639 0.3188 0.3565   0.144556
 H 0.7461 0.0158 0.1441   0.082786
 H 0.9621 0.3188 0.3535   0.106833
 C 0.5406 0.04145 0.83985   0.188305
 C 0.61911 0.70184 0.80414   -0.212217
 C 0.527 0.21856 0.78296   0.094764
 C 0.2153 0.31464 0.75004   0.084704
 C 0.49733 0.7021 0.8014   0.179815
 C 0.5482 0.09838 0.77738   -0.199022
 C 0.2197 0.51196 0.81336   0.159799
 C 0.5016 0.27625 0.85305   -0.182934
 C 0.2084 0.39179 0.81459   -0.201864
 C 0.4965 0.21341 0.91321   0.192466
 C 0.2307 0.36449 0.68559   -0.19529
 C 0.8754 0.79089 0.81289   -0.207256
 C 0.2421 0.48503 0.68833   0.165466
 C 0.9969 0.7901 0.8107   0.164289
 C 0.5406 0.45855 0.66015   0.18831
 C 0.61911 0.79816 0.69586   -0.212213
 C 0.527 0.28144 0.71704   0.094561
 C 0.2153 0.18536 0.74996   0.084737
 C 0.49733 0.7979 0.6986   0.179818
 C 0.5482 0.40162 0.72262   -0.198966
 C 0.2197 0.98804 0.68664   0.159792
 C 0.5016 0.22375 0.64695   -0.182893
 C 0.2084 0.10821 0.68541   -0.201853
 C 0.4965 0.28659 0.58679   0.192461
 C 0.2307 0.13551 0.81441   -0.195267
 C 0.8754 0.70911 0.68711   -0.207256
 C 0.2421 0.01497 0.81167   0.165465
 C 0.9969 0.7099 0.6893   0.164264
 C 0.4594 0.95855 0.16015   0.188305
 C 0.38089 0.29816 0.19586   -0.212206
 C 0.473 0.78144 0.21704   0.094764
 C 0.7847 0.68536 0.24996   0.084701
 C 0.50267 0.2979 0.1986   0.179813
 C 0.4518 0.90162 0.22262   -0.199023
 C 0.7803 0.48804 0.18664   0.159798
 C 0.4984 0.72375 0.14695   -0.182935
 C 0.7916 0.60821 0.18541   -0.20186
 C 0.5035 0.78659 0.08679   0.192478
 C 0.7693 0.63551 0.31441   -0.19528
 C 0.1246 0.20911 0.18711   -0.207247
 C 0.7579 0.51497 0.31167   0.165462
 C 0.0031 0.2099 0.1893   0.164286
 C 0.4594 0.54145 0.33985   0.18831
 C 0.38089 0.20184 0.30414   -0.212202
 C 0.473 0.71856 0.28296   0.094561
 C 0.7847 0.81464 0.25004   0.084734
 C 0.50267 0.2021 0.3014   0.179816
 C 0.4518 0.59838 0.27738   -0.198966
 C 0.7803 0.01196 0.31336   0.159791
 C 0.4984 0.77625 0.35305   -0.182894
 C 0.7916 0.89179 0.31459   -0.20185
 C 0.5035 0.71341 0.41321   0.192473
 C 0.7693 0.86449 0.18559   -0.195257
 C 0.1246 0.29089 0.31289   -0.207247
 C 0.7579 0.98503 0.18833   0.165462
 C 0.0031 0.2901 0.3107   0.164261
 C 0.8125 0.75 0.75   0.088656
 C 0.6823 0.75 0.75   0.099167
 C 0.1875 0.25 0.25   0.088652
 C 0.3177 0.25 0.25   0.099162
 S 0.2981 0.80075 0.93975   1.638984
 S 0.2981 0.69925 0.56025   1.638984
 S 0.7019 0.19925 0.06025   1.638986
 S 0.7019 0.30075 0.43975   1.638986
 N 0.23697 0.55947 0.75108   -0.283694
 N 0.51429 0.09697 0.90715   -0.329023
 N 0.23697 0.94053 0.74892   -0.283694
 N 0.51429 0.40303 0.59285   -0.329021
 N 0.76303 0.44053 0.24892   -0.283694
 N 0.48571 0.90303 0.09285   -0.329026
 N 0.76303 0.05947 0.25108   -0.283693
 N 0.48571 0.59697 0.40715   -0.329024
 N 0.4364 0.75 0.75   -0.28733
 N 0.0585 0.75 0.75   -0.270226
 N 0.5636 0.25 0.25   -0.28733
 N 0.9415 0.25 0.25   -0.270225
 O 0.40967 0.86622 0.93331   -0.774759
 O 0.24555 0.77444 0.86528   -0.698578
 O 0.3217 0.69071 0.96791   -0.741743
 O 0.2161 0.87567 0.98667   -0.735063
 O 0.40967 0.63378 0.56669   -0.774759
 O 0.24555 0.72556 0.63472   -0.698578
 O 0.3217 0.80929 0.53209   -0.741743
 O 0.2161 0.62433 0.51333   -0.735063
 O 0.59033 0.13378 0.06669   -0.77476
 O 0.75445 0.22556 0.13472   -0.698578
 O 0.6783 0.30929 0.03209   -0.741744
 O 0.7839 0.12433 0.01333   -0.73508
 O 0.59033 0.36622 0.43331   -0.77476
 O 0.75445 0.27444 0.36528   -0.698578
 O 0.6783 0.19071 0.46791   -0.741744
 O 0.7839 0.37567 0.48667   -0.73508
