{'_ref': 'TBD', '_srcid': 'CAKYAQ_clean', 'submitters': [{'name': 'Dalar Nazarian Jeff Camp and David Sholl', 'email': 'dalar@gatech.edu jcamp6@gatech.edu'}], '_method': 'VASP DFT with PBE;DDEC'}
data_LaH15(C2O)6
_symmetry_space_group_name_H-M   'P 1'
_cell_length_a   9.87850038
_cell_length_b   11.19859945
_cell_length_c   14.74560000
_cell_angle_alpha   93.91900025
_cell_angle_beta   97.40899929
_cell_angle_gamma   104.51699896
_symmetry_Int_Tables_number   1
_chemical_formula_structural   LaH15(C2O)6
_chemical_formula_sum   'La4 H60 C48 O24'
_cell_volume   1557.33877825
_cell_formula_units_Z   4
loop_
 _symmetry_equiv_pos_site_id
 _symmetry_equiv_pos_as_xyz
  1  'x, y, z'
loop_
 _atom_site_label
 _atom_site_fract_x
 _atom_site_fract_y
 _atom_site_fract_z
 _atom_site_charge
 La 0.38197 0.5248 0.88245   2.219911
 La 0.17582 0.57847 0.61474   2.157258
 La 0.61803 0.4752 0.11755   2.219911
 La 0.82418 0.42153 0.38526   2.157259
 H 0.136 0.8897 0.8072   0.079632
 H 0.4121 0.9057 0.88   0.061643
 H 0.354 0.9229 0.7792   0.079515
 H 0.0501 0.8622 0.9324   0.06583
 H 0.1965 0.8632 0.9883   0.06125
 H 0.1677 0.0532 0.026   0.069324
 H 0.1138 0.0686 0.9241   0.057163
 H 0.3329 0.1128 0.8185   0.074749
 H 0.4752 0.1113 0.8788   0.078947
 H 0.3753 0.0775 0.0015   0.071908
 H 0.0547 0.2325 0.8089   0.103523
 H 0.8411 0.1716 0.7003   0.073555
 H 0.827 0.1334 0.7996   0.064661
 H 0.0865 0.4157 0.9115   0.027083
 H 0.982 0.298 0.9387   0.078525
 H 0.8852 0.4678 0.9519   0.079076
 H 0.8954 0.4876 0.8483   0.082808
 H 0.6348 0.2078 0.7523   0.074726
 H 0.7316 0.3283 0.7231   0.081222
 H 0.7235 0.2721 0.9064   0.088789
 H 0.9082 0.7625 0.6389   0.090969
 H 0.7695 0.8573 0.5444   0.073072
 H 0.6332 0.752 0.5505   0.082802
 H 0.8127 0.5747 0.6973   0.079995
 H 0.6603 0.571 0.649   0.087311
 H 0.6821 0.6418 0.8034   0.067083
 H 0.8174 0.7473 0.7955   0.075273
 H 0.7883 0.927 0.699   0.062753
 H 0.6363 0.9234 0.6501   0.085931
 H 0.6336 0.8375 0.7931   0.109167
 H 0.864 0.1103 0.1928   0.079632
 H 0.5879 0.0943 0.12   0.061644
 H 0.646 0.0771 0.2208   0.079515
 H 0.9499 0.1378 0.0676   0.065832
 H 0.8035 0.1368 0.0117   0.061252
 H 0.8323 0.9468 0.974   0.069324
 H 0.8862 0.9314 0.0759   0.057163
 H 0.6671 0.8872 0.1815   0.074749
 H 0.5248 0.8887 0.1212   0.078949
 H 0.6247 0.9225 0.9985   0.07191
 H 0.9453 0.7675 0.1911   0.103523
 H 0.1589 0.8284 0.2997   0.073555
 H 0.173 0.8666 0.2004   0.064661
 H 0.9135 0.5843 0.0885   0.027084
 H 0.018 0.702 0.0613   0.078529
 H 0.1148 0.5322 0.0481   0.079078
 H 0.1046 0.5124 0.1517   0.082808
 H 0.3652 0.7922 0.2477   0.074726
 H 0.2684 0.6717 0.2769   0.081222
 H 0.2765 0.7279 0.0936   0.08879
 H 0.0918 0.2375 0.3611   0.090969
 H 0.2305 0.1427 0.4556   0.073077
 H 0.3668 0.248 0.4495   0.082801
 H 0.1873 0.4253 0.3027   0.079995
 H 0.3397 0.429 0.351   0.087311
 H 0.3179 0.3582 0.1966   0.067083
 H 0.1826 0.2527 0.2045   0.075274
 H 0.2117 0.073 0.301   0.062753
 H 0.3637 0.0766 0.3499   0.085932
 H 0.3664 0.1625 0.2069   0.109168
 C 0.1813 0.7294 0.8289   0.783874
 C 0.1991 0.866 0.8555   -0.175249
 C 0.3428 0.9372 0.8431   -0.109501
 C 0.1513 0.8985 0.9384   -0.099424
 C 0.1821 0.0381 0.9628   -0.091711
 C 0.3736 0.0755 0.8691   -0.109442
 C 0.3158 0.1059 0.9537   -0.168432
 C 0.3556 0.245 0.9807   0.774384
 C 0.0551 0.3772 0.7336   0.756443
 C 0.9921 0.2873 0.7988   -0.198384
 C 0.8443 0.2035 0.7636   -0.101891
 C 0.9948 0.3569 0.8932   -0.083886
 C 0.8803 0.4256 0.8914   -0.110468
 C 0.7256 0.2687 0.7681   -0.125436
 C 0.734 0.335 0.8628   -0.184133
 C 0.619 0.4002 0.8698   0.73607
 C 0.8341 0.6327 0.5284   0.745441
 C 0.8147 0.7125 0.6093   -0.190949
 C 0.7237 0.7997 0.5843   -0.10963
 C 0.7499 0.6257 0.6786   -0.116706
 C 0.7267 0.6988 0.7627   -0.091155
 C 0.699 0.8724 0.6689   -0.10987
 C 0.6336 0.7855 0.7369   -0.202071
 C 0.4805 0.7165 0.7011   0.763209
 C 0.8187 0.2706 0.1711   0.783874
 C 0.8009 0.134 0.1445   -0.175249
 C 0.6572 0.0628 0.1569   -0.109501
 C 0.8487 0.1015 0.0616   -0.099425
 C 0.8179 0.9619 0.0372   -0.091711
 C 0.6264 0.9245 0.1309   -0.109442
 C 0.6842 0.8941 0.0463   -0.168432
 C 0.6444 0.755 0.0193   0.774384
 C 0.9449 0.6228 0.2664   0.756443
 C 0.0079 0.7127 0.2012   -0.198384
 C 0.1557 0.7965 0.2364   -0.101891
 C 0.0052 0.6431 0.1068   -0.083887
 C 0.1197 0.5744 0.1086   -0.110468
 C 0.2744 0.7313 0.2319   -0.125436
 C 0.266 0.665 0.1372   -0.184133
 C 0.381 0.5998 0.1302   0.73607
 C 0.1659 0.3673 0.4716   0.745441
 C 0.1853 0.2875 0.3907   -0.190948
 C 0.2763 0.2003 0.4157   -0.109632
 C 0.2501 0.3743 0.3214   -0.116706
 C 0.2733 0.3012 0.2373   -0.091155
 C 0.301 0.1276 0.3311   -0.109869
 C 0.3664 0.2145 0.2631   -0.202071
 C 0.5195 0.2835 0.2989   0.763209
 O 0.2247 0.6643 0.8864   -0.711502
 O 0.127 0.6893 0.7476   -0.756867
 O 0.437 0.2844 0.0546   -0.728276
 O 0.3085 0.3126 0.9267   -0.72326
 O 0.1868 0.4305 0.7514   -0.806091
 O 0.9846 0.3978 0.6651   -0.655299
 O 0.6144 0.4559 0.9475   -0.843994
 O 0.5306 0.4027 0.8018   -0.633756
 O 0.4211 0.6234 0.739   -0.791062
 O 0.4108 0.7515 0.6377   -0.703707
 O 0.9411 0.5877 0.5351   -0.82773
 O 0.7429 0.6007 0.4569   -0.645006
 O 0.7753 0.3357 0.1136   -0.711502
 O 0.873 0.3107 0.2524   -0.756867
 O 0.563 0.7156 0.9454   -0.728276
 O 0.6915 0.6874 0.0733   -0.72326
 O 0.8132 0.5695 0.2486   -0.806091
 O 0.0154 0.6022 0.3349   -0.655299
 O 0.3856 0.5441 0.0525   -0.843994
 O 0.4694 0.5973 0.1982   -0.633756
 O 0.5789 0.3766 0.261   -0.791062
 O 0.5892 0.2485 0.3623   -0.703707
 O 0.0589 0.4123 0.4649   -0.82773
 O 0.2571 0.3993 0.5431   -0.645006
