{'_ref': 'TBD', '_srcid': 'CAKYAQ_clean', 'submitters': [{'name': 'Dalar Nazarian Jeff Camp and David Sholl', 'email': 'dalar@gatech.edu jcamp6@gatech.edu'}], '_method': 'VASP DFT with PBE;DDEC'}
data_Co3H8C14(NO)6
_symmetry_space_group_name_H-M   'P 1'
_cell_length_a   10.91410037
_cell_length_b   10.91410034
_cell_length_c   11.04600000
_cell_angle_alpha   85.85670019
_cell_angle_beta   85.85670020
_cell_angle_gamma   67.42960047
_symmetry_Int_Tables_number   1
_chemical_formula_structural   Co3H8C14(NO)6
_chemical_formula_sum   'Co6 H16 C28 N12 O12'
_cell_volume   1210.40395688
_cell_formula_units_Z   2
loop_
 _symmetry_equiv_pos_site_id
 _symmetry_equiv_pos_as_xyz
  1  'x, y, z'
loop_
 _atom_site_label
 _atom_site_fract_x
 _atom_site_fract_y
 _atom_site_fract_z
 _atom_site_charge
 Co 0.49389 0.35551 0.99238   0.904463
 Co 0.64449 0.50611 0.50762   0.904463
 Co 0.50611 0.64449 0.00762   0.904461
 Co 0.35551 0.49389 0.49238   0.90446
 Co 0.60142 0.39858 0.25   0.737162
 Co 0.39858 0.60142 0.75   0.737162
 H 0.685 0.4062 0.0375   0.440942
 H 0.5754 0.9302 0.0678   0.124218
 H 0.6416 0.8376 0.487   0.127696
 H 0.6388 0.033 0.3944   0.098403
 H 0.5938 0.315 0.4625   0.440942
 H 0.0698 0.4246 0.4322   0.124218
 H 0.1624 0.3584 0.013   0.127696
 H 0.967 0.3612 0.1056   0.098404
 H 0.315 0.5938 0.9625   0.440942
 H 0.4246 0.0698 0.9322   0.124217
 H 0.3584 0.1624 0.513   0.127696
 H 0.3612 0.967 0.6056   0.098403
 H 0.4062 0.685 0.5375   0.440942
 H 0.9302 0.5754 0.5678   0.124217
 H 0.8376 0.6416 0.987   0.127696
 H 0.033 0.6388 0.8944   0.098404
 C 0.5871 0.7941 0.2078   0.137899
 C 0.5883 0.9121 0.1505   -0.095002
 C 0.6114 0.1282 0.1685   0.678052
 C 0.6089 0.7657 0.3323   0.15131
 C 0.6092 0.000399999999999 0.2209   -0.139792
 C 0.6284 0.8556 0.4044   -0.177733
 C 0.6273 0.9707 0.3481   -0.033327
 C 0.2059 0.4129 0.2922   0.137899
 C 0.0879 0.4117 0.3495   -0.095003
 C 0.8718 0.3886 0.3315   0.678052
 C 0.2343 0.3911 0.1677   0.151309
 C 0.9996 0.3908 0.2791   -0.139792
 C 0.1444 0.3716 0.0956   -0.177733
 C 0.0293 0.3727 0.1519   -0.033326
 C 0.4129 0.2059 0.7922   0.137899
 C 0.4117 0.0879 0.8495   -0.095002
 C 0.3886 0.8718 0.8315   0.678052
 C 0.3911 0.2343 0.6677   0.15131
 C 0.3908 0.9996 0.7791   -0.139792
 C 0.3716 0.1444 0.5956   -0.177733
 C 0.3727 0.0293 0.6519   -0.033326
 C 0.7941 0.5871 0.7078   0.137899
 C 0.9121 0.5883 0.6505   -0.095002
 C 0.1282 0.6114 0.6685   0.678053
 C 0.7657 0.6089 0.8323   0.151309
 C 0.000399999999999 0.6092 0.7209   -0.139792
 C 0.8556 0.6284 0.9044   -0.177733
 C 0.9707 0.6273 0.8481   -0.033326
 N 0.5704 0.687 0.1652   -0.307881
 N 0.5803 0.6009 0.2587   0.026325
 N 0.6041 0.6437 0.3606   -0.290559
 N 0.313 0.4296 0.3348   -0.307881
 N 0.3991 0.4197 0.2413   0.026325
 N 0.3563 0.3959 0.1394   -0.290559
 N 0.4296 0.313 0.8348   -0.307881
 N 0.4197 0.3991 0.7413   0.026325
 N 0.3959 0.3563 0.6394   -0.290558
 N 0.687 0.5704 0.6652   -0.307881
 N 0.6009 0.5803 0.7587   0.026325
 N 0.6437 0.6041 0.8606   -0.290558
 O 0.60415 0.43795 0.0678   -0.866197
 O 0.5752 0.1628 0.0593   -0.610931
 O 0.6473 0.1959 0.2337   -0.536467
 O 0.56205 0.39585 0.4322   -0.866198
 O 0.8372 0.4248 0.4407   -0.610931
 O 0.8041 0.3527 0.2663   -0.536465
 O 0.39585 0.56205 0.9322   -0.866197
 O 0.4248 0.8372 0.9407   -0.610931
 O 0.3527 0.8041 0.7663   -0.536467
 O 0.43795 0.60415 0.5678   -0.866198
 O 0.1628 0.5752 0.5593   -0.610931
 O 0.1959 0.6473 0.7337   -0.536465
