{'_ref': 'TBD', '_srcid': 'CAKYAQ_clean', 'submitters': [{'name': 'Dalar Nazarian Jeff Camp and David Sholl', 'email': 'dalar@gatech.edu jcamp6@gatech.edu'}], '_method': 'VASP DFT with PBE;DDEC'}
data_Cu4B3H32C42N16F13
_symmetry_space_group_name_H-M   'P 1'
_cell_length_a   15.91200000
_cell_length_b   16.59800000
_cell_length_c   20.41700000
_cell_angle_alpha   90.00000000
_cell_angle_beta   90.00000000
_cell_angle_gamma   90.00000000
_symmetry_Int_Tables_number   1
_chemical_formula_structural   Cu4B3H32C42N16F13
_chemical_formula_sum   'Cu16 B12 H128 C168 N64 F52'
_cell_volume   5392.28029579
_cell_formula_units_Z   4
loop_
 _symmetry_equiv_pos_site_id
 _symmetry_equiv_pos_as_xyz
  1  'x, y, z'
loop_
 _atom_site_label
 _atom_site_fract_x
 _atom_site_fract_y
 _atom_site_fract_z
 _atom_site_charge
 Cu 0.49691 0.06859 0.35574   0.421909
 Cu 0.99691 0.93141 0.64426   0.421909
 Cu 0.49691 0.06859 0.64426   0.421909
 Cu 0.99691 0.93141 0.35574   0.421909
 Cu 0.49691 0.56859 0.85574   0.421909
 Cu 0.99691 0.43141 0.14426   0.421909
 Cu 0.49691 0.56859 0.14426   0.421909
 Cu 0.99691 0.43141 0.85574   0.421909
 Cu 0.67074 0.25877 0.14454   0.425638
 Cu 0.17074 0.74123 0.85546   0.425638
 Cu 0.67074 0.25877 0.85546   0.425638
 Cu 0.17074 0.74123 0.14454   0.425638
 Cu 0.67074 0.75877 0.64454   0.425638
 Cu 0.17074 0.24123 0.35546   0.425638
 Cu 0.67074 0.75877 0.35546   0.425638
 Cu 0.17074 0.24123 0.64454   0.425638
 B 0.2356 0.0285 0.5   1.154451
 B 0.7356 0.9715 0.5   1.154451
 B 0.2356 0.5285 0.0   1.154451
 B 0.7356 0.4715 0.0   1.154451
 B 0.9703 0.1581 0.2056   1.056843
 B 0.4703 0.8419 0.7944   1.056843
 B 0.9703 0.1581 0.7944   1.056843
 B 0.4703 0.8419 0.2056   1.056843
 B 0.9703 0.6581 0.7056   1.056843
 B 0.4703 0.3419 0.2944   1.056843
 B 0.9703 0.6581 0.2944   1.056843
 B 0.4703 0.3419 0.7056   1.056843
 H 0.5499 0.1675 0.2381   0.042323
 H 0.0499 0.8325 0.7619   0.042323
 H 0.5499 0.1675 0.7619   0.042323
 H 0.0499 0.8325 0.2381   0.042323
 H 0.5499 0.6675 0.7381   0.042323
 H 0.0499 0.3325 0.2619   0.042323
 H 0.5499 0.6675 0.2619   0.042323
 H 0.0499 0.3325 0.7381   0.042323
 H 0.7924 0.1668 0.2214   0.066758
 H 0.2924 0.8332 0.7786   0.066758
 H 0.7924 0.1668 0.7786   0.066758
 H 0.2924 0.8332 0.2214   0.066758
 H 0.7924 0.6668 0.7214   0.066758
 H 0.2924 0.3332 0.2786   0.066758
 H 0.7924 0.6668 0.2786   0.066758
 H 0.2924 0.3332 0.7214   0.066758
 H 0.8039 0.0781 0.3067   0.14742
 H 0.3039 0.9219 0.6933   0.14742
 H 0.8039 0.0781 0.6933   0.14742
 H 0.3039 0.9219 0.3067   0.14742
 H 0.8039 0.5781 0.8067   0.14742
 H 0.3039 0.4219 0.1933   0.14742
 H 0.8039 0.5781 0.1933   0.14742
 H 0.3039 0.4219 0.8067   0.14742
 H 0.6799 0.049 0.3649   0.071384
 H 0.1799 0.951 0.6351   0.071384
 H 0.6799 0.049 0.6351   0.071384
 H 0.1799 0.951 0.3649   0.071384
 H 0.6799 0.549 0.8649   0.071384
 H 0.1799 0.451 0.1351   0.071384
 H 0.6799 0.549 0.1351   0.071384
 H 0.1799 0.451 0.8649   0.071384
 H 0.3353 0.1498 0.38   0.042583
 H 0.8353 0.8502 0.62   0.042583
 H 0.3353 0.1498 0.62   0.042583
 H 0.8353 0.8502 0.38   0.042583
 H 0.3353 0.6498 0.88   0.042583
 H 0.8353 0.3502 0.12   0.042583
 H 0.3353 0.6498 0.12   0.042583
 H 0.8353 0.3502 0.88   0.042583
 H 0.4228 0.0539 0.2232   0.053959
 H 0.9228 0.9461 0.7768   0.053959
 H 0.4228 0.0539 0.7768   0.053959
 H 0.9228 0.9461 0.2232   0.053959
 H 0.4228 0.5539 0.7232   0.053959
 H 0.9228 0.4461 0.2768   0.053959
 H 0.4228 0.5539 0.2768   0.053959
 H 0.9228 0.4461 0.7232   0.053959
 H 0.2973 0.0841 0.1687   0.12148
 H 0.7973 0.9159 0.8313   0.12148
 H 0.2973 0.0841 0.8313   0.121481
 H 0.7973 0.9159 0.1687   0.121481
 H 0.2973 0.5841 0.6687   0.12148
 H 0.7973 0.4159 0.3313   0.12148
 H 0.2973 0.5841 0.3313   0.121481
 H 0.7973 0.4159 0.6687   0.121481
 H 0.6988 0.3412 0.2748   0.074857
 H 0.1988 0.6588 0.7252   0.074857
 H 0.6988 0.3412 0.7252   0.074857
 H 0.1988 0.6588 0.2748   0.074857
 H 0.6988 0.8412 0.7748   0.074857
 H 0.1988 0.1588 0.2252   0.074857
 H 0.6988 0.8412 0.2252   0.074857
 H 0.1988 0.1588 0.7748   0.074857
 H 0.6531 0.28 0.0   0.047543
 H 0.1531 0.72 0.0   0.047543
 H 0.6531 0.78 0.5   0.047543
 H 0.1531 0.22 0.5   0.047543
 H 0.8432 0.0777 0.0   0.143533
 H 0.3432 0.9223 0.0   0.143533
 H 0.8432 0.5777 0.5   0.143533
 H 0.3432 0.4223 0.5   0.143533
 H 0.7899 0.1305 0.0952   0.067956
 H 0.2899 0.8695 0.9048   0.067956
 H 0.7899 0.1305 0.9048   0.067956
 H 0.2899 0.8695 0.0952   0.067956
 H 0.7899 0.6305 0.5952   0.067956
 H 0.2899 0.3695 0.4048   0.067956
 H 0.7899 0.6305 0.4048   0.067956
 H 0.2899 0.3695 0.5952   0.067956
 H 0.6077 0.9219 0.3464   0.041298
 H 0.1077 0.0781 0.6536   0.041298
 H 0.6077 0.9219 0.6536   0.041298
 H 0.1077 0.0781 0.3464   0.041298
 H 0.6077 0.4219 0.8464   0.041298
 H 0.1077 0.5781 0.1536   0.041298
 H 0.6077 0.4219 0.1536   0.041298
 H 0.1077 0.5781 0.8464   0.041298
 H 0.3833 0.9425 0.4183   0.07511
 H 0.8833 0.0575 0.5817   0.07511
 H 0.3833 0.9425 0.5817   0.07511
 H 0.8833 0.0575 0.4183   0.07511
 H 0.3833 0.4425 0.9183   0.07511
 H 0.8833 0.5575 0.0817   0.07511
 H 0.3833 0.4425 0.0817   0.07511
 H 0.8833 0.5575 0.9183   0.07511
 H 0.3763 0.809 0.4352   0.144941
 H 0.8763 0.191 0.5648   0.144941
 H 0.3763 0.809 0.5648   0.144941
 H 0.8763 0.191 0.4352   0.144941
 H 0.3763 0.309 0.9352   0.144941
 H 0.8763 0.691 0.0648   0.144941
 H 0.3763 0.309 0.0648   0.144941
 H 0.8763 0.691 0.9352   0.144941
 H 0.4934 0.2312 0.094   0.037301
 H 0.9934 0.7688 0.906   0.037301
 H 0.4934 0.2312 0.906   0.037301
 H 0.9934 0.7688 0.094   0.037301
 H 0.4934 0.7312 0.594   0.037301
 H 0.9934 0.2688 0.406   0.037301
 H 0.4934 0.7312 0.406   0.037301
 H 0.9934 0.2688 0.594   0.037301
 H 0.5313 0.2356 0.4027   0.069007
 H 0.0313 0.7644 0.5973   0.069007
 H 0.5313 0.2356 0.5973   0.069007
 H 0.0313 0.7644 0.4027   0.069007
 H 0.5313 0.7356 0.9027   0.069007
 H 0.0313 0.2644 0.0973   0.069007
 H 0.5313 0.7356 0.0973   0.069007
 H 0.0313 0.2644 0.9027   0.069007
 H 0.5608 0.3028 0.5   0.158563
 H 0.0608 0.6972 0.5   0.158563
 H 0.5608 0.8028 0.0   0.158563
 H 0.0608 0.1972 0.0   0.158563
 H 0.4843 0.0444 0.5   0.04067
 H 0.9843 0.9556 0.5   0.04067
 H 0.4843 0.5444 0.0   0.04067
 H 0.9843 0.4556 0.0   0.04067
 C 0.6022 0.1496 0.2524   0.381143
 C 0.1022 0.8504 0.7476   0.381143
 C 0.6022 0.1496 0.7476   0.381143
 C 0.1022 0.8504 0.2524   0.381143
 C 0.6022 0.6496 0.7524   0.381143
 C 0.1022 0.3504 0.2476   0.381143
 C 0.6022 0.6496 0.2476   0.381143
 C 0.1022 0.3504 0.7524   0.381143
 C 0.7437 0.1487 0.2418   0.222279
 C 0.2437 0.8513 0.7582   0.222279
 C 0.7437 0.1487 0.7582   0.222279
 C 0.2437 0.8513 0.2418   0.222279
 C 0.7437 0.6487 0.7418   0.222279
 C 0.2437 0.3513 0.2582   0.222279
 C 0.7437 0.6487 0.2582   0.222279
 C 0.2437 0.3513 0.7418   0.222279
 C 0.7521 0.0984 0.2938   -0.218399
 C 0.2521 0.9016 0.7062   -0.218399
 C 0.7521 0.0984 0.7062   -0.218399
 C 0.2521 0.9016 0.2938   -0.218399
 C 0.7521 0.5984 0.7938   -0.218399
 C 0.2521 0.4016 0.2062   -0.218399
 C 0.7521 0.5984 0.2062   -0.218399
 C 0.2521 0.4016 0.7938   -0.218399
 C 0.6775 0.0792 0.3266   0.218883
 C 0.1775 0.9208 0.6734   0.218883
 C 0.6775 0.0792 0.6734   0.218883
 C 0.1775 0.9208 0.3266   0.218883
 C 0.6775 0.5792 0.8266   0.218883
 C 0.1775 0.4208 0.1734   0.218883
 C 0.6775 0.5792 0.1734   0.218883
 C 0.1775 0.4208 0.8266   0.218883
 C 0.3283 0.1373 0.336   0.383237
 C 0.8283 0.8627 0.664   0.383237
 C 0.3283 0.1373 0.664   0.383237
 C 0.8283 0.8627 0.336   0.383237
 C 0.3283 0.6373 0.836   0.383237
 C 0.8283 0.3627 0.164   0.383237
 C 0.3283 0.6373 0.164   0.383237
 C 0.8283 0.3627 0.836   0.383237
 C 0.3796 0.0802 0.2452   0.233594
 C 0.8796 0.9198 0.7548   0.233594
 C 0.3796 0.0802 0.7548   0.233594
 C 0.8796 0.9198 0.2452   0.233594
 C 0.3796 0.5802 0.7452   0.233594
 C 0.8796 0.4198 0.2548   0.233594
 C 0.3796 0.5802 0.2548   0.233594
 C 0.8796 0.4198 0.7452   0.233594
 C 0.3061 0.0994 0.212   -0.202776
 C 0.8061 0.9006 0.788   -0.202776
 C 0.3061 0.0994 0.788   -0.202777
 C 0.8061 0.9006 0.212   -0.202777
 C 0.3061 0.5994 0.712   -0.202776
 C 0.8061 0.4006 0.288   -0.202776
 C 0.3061 0.5994 0.288   -0.202777
 C 0.8061 0.4006 0.712   -0.202777
 C 0.7475 0.3578 0.2534   0.22239
 C 0.2475 0.6422 0.7466   0.22239
 C 0.7475 0.3578 0.7466   0.22239
 C 0.2475 0.6422 0.2534   0.22239
 C 0.7475 0.8578 0.7534   0.22239
 C 0.2475 0.1422 0.2466   0.22239
 C 0.7475 0.8578 0.2466   0.22239
 C 0.2475 0.1422 0.7534   0.22239
 C 0.6927 0.2389 0.0   0.362263
 C 0.1927 0.7611 0.0   0.362263
 C 0.6927 0.7389 0.5   0.362263
 C 0.1927 0.2611 0.5   0.362263
 C 0.8038 0.119 0.0   -0.210562
 C 0.3038 0.881 0.0   -0.210562
 C 0.8038 0.619 0.5   -0.210562
 C 0.3038 0.381 0.5   -0.210562
 C 0.772 0.1523 0.0557   0.235157
 C 0.272 0.8477 0.9443   0.235157
 C 0.772 0.1523 0.9443   0.235157
 C 0.272 0.8477 0.0557   0.235157
 C 0.772 0.6523 0.5557   0.235157
 C 0.272 0.3477 0.4443   0.235157
 C 0.772 0.6523 0.4443   0.235157
 C 0.272 0.3477 0.5557   0.235157
 C 0.5601 0.8985 0.3647   0.373858
 C 0.0601 0.1015 0.6353   0.373858
 C 0.5601 0.8985 0.6353   0.373858
 C 0.0601 0.1015 0.3647   0.373858
 C 0.5601 0.3985 0.8647   0.373858
 C 0.0601 0.6015 0.1353   0.373858
 C 0.5601 0.3985 0.1353   0.373858
 C 0.0601 0.6015 0.8647   0.373858
 C 0.429 0.9109 0.4062   0.210595
 C 0.929 0.0891 0.5938   0.210595
 C 0.429 0.9109 0.5938   0.210595
 C 0.929 0.0891 0.4062   0.210595
 C 0.429 0.4109 0.9062   0.210595
 C 0.929 0.5891 0.0938   0.210595
 C 0.429 0.4109 0.0938   0.210595
 C 0.929 0.5891 0.9062   0.210595
 C 0.424 0.8324 0.417   -0.221286
 C 0.924 0.1676 0.583   -0.221286
 C 0.424 0.8324 0.583   -0.221286
 C 0.924 0.1676 0.417   -0.221286
 C 0.424 0.3324 0.917   -0.221286
 C 0.924 0.6676 0.083   -0.221286
 C 0.424 0.3324 0.083   -0.221286
 C 0.924 0.6676 0.917   -0.221286
 C 0.4947 0.2866 0.1005   0.256905
 C 0.9947 0.7134 0.8995   0.256905
 C 0.4947 0.2866 0.8995   0.256905
 C 0.9947 0.7134 0.1005   0.256905
 C 0.4947 0.7866 0.6005   0.256905
 C 0.9947 0.2134 0.3995   0.256905
 C 0.4947 0.7866 0.3995   0.256905
 C 0.9947 0.2134 0.6005   0.256905
 C 0.5278 0.2081 0.4422   0.236238
 C 0.0278 0.7919 0.5578   0.236238
 C 0.5278 0.2081 0.5578   0.236238
 C 0.0278 0.7919 0.4422   0.236238
 C 0.5278 0.7081 0.9422   0.236238
 C 0.0278 0.2919 0.0578   0.236238
 C 0.5278 0.7081 0.0578   0.236238
 C 0.0278 0.2919 0.9422   0.236238
 C 0.5423 0.2497 0.5   -0.230359
 C 0.0423 0.7503 0.5   -0.230359
 C 0.5423 0.7497 0.0   -0.230359
 C 0.0423 0.2503 0.0   -0.230359
 C 0.4999 0.0984 0.5   0.374392
 C 0.9999 0.9016 0.5   0.374392
 C 0.4999 0.5984 0.0   0.374392
 C 0.9999 0.4016 0.0   0.374392
 C 0.5238 0.0376 0.0   -0.115612
 C 0.0238 0.9624 0.0   -0.115612
 C 0.5238 0.5376 0.5   -0.115612
 C 0.0238 0.4624 0.5   -0.115612
 C 0.6408 0.0123 0.141   -0.217305
 C 0.1408 0.9877 0.859   -0.217305
 C 0.6408 0.0123 0.859   -0.217305
 C 0.1408 0.9877 0.141   -0.217305
 C 0.6408 0.5123 0.641   -0.217305
 C 0.1408 0.4877 0.359   -0.217305
 C 0.6408 0.5123 0.359   -0.217305
 C 0.1408 0.4877 0.641   -0.217305
 C 0.534 0.0754 0.1299   -0.058047
 C 0.034 0.9246 0.8701   -0.058047
 C 0.534 0.0754 0.8701   -0.058046
 C 0.034 0.9246 0.1299   -0.058046
 C 0.534 0.5754 0.6299   -0.058047
 C 0.034 0.4246 0.3701   -0.058047
 C 0.534 0.5754 0.3701   -0.058046
 C 0.034 0.4246 0.6299   -0.058046
 C 0.3739 0.1747 0.0   -0.107248
 C 0.8739 0.8253 0.0   -0.107248
 C 0.3739 0.6747 0.5   -0.107248
 C 0.8739 0.3253 0.5   -0.107248
 C 0.3411 0.0713 0.0499   -0.152903
 C 0.8411 0.9287 0.9501   -0.152903
 C 0.3411 0.0713 0.9501   -0.152929
 C 0.8411 0.9287 0.0499   -0.152929
 C 0.3411 0.5713 0.5499   -0.152903
 C 0.8411 0.4287 0.4501   -0.152903
 C 0.3411 0.5713 0.4501   -0.152929
 C 0.8411 0.4287 0.5499   -0.152929
 C 0.5876 0.0338 0.1197   0.166329
 C 0.0876 0.9662 0.8803   0.166329
 C 0.5876 0.0338 0.8803   0.166329
 C 0.0876 0.9662 0.1197   0.166329
 C 0.5876 0.5338 0.6197   0.166329
 C 0.0876 0.4662 0.3803   0.166329
 C 0.5876 0.5338 0.3803   0.166329
 C 0.0876 0.4662 0.6197   0.166329
 N 0.603 0.1036 0.304   -0.357932
 N 0.103 0.8964 0.696   -0.357932
 N 0.603 0.1036 0.696   -0.357932
 N 0.103 0.8964 0.304   -0.357932
 N 0.603 0.6036 0.804   -0.357932
 N 0.103 0.3964 0.196   -0.357932
 N 0.603 0.6036 0.196   -0.357932
 N 0.103 0.3964 0.804   -0.357932
 N 0.4956 0.9482 0.379   -0.365855
 N 0.9956 0.0518 0.621   -0.365855
 N 0.4956 0.9482 0.621   -0.365855
 N 0.9956 0.0518 0.379   -0.365855
 N 0.4956 0.4482 0.879   -0.365855
 N 0.9956 0.5518 0.121   -0.365855
 N 0.4956 0.4482 0.121   -0.365855
 N 0.9956 0.5518 0.879   -0.365855
 N 0.3889 0.099 0.3079   -0.358079
 N 0.8889 0.901 0.6921   -0.358079
 N 0.3889 0.099 0.6921   -0.358079
 N 0.8889 0.901 0.3079   -0.358079
 N 0.3889 0.599 0.8079   -0.358079
 N 0.8889 0.401 0.1921   -0.358079
 N 0.3889 0.599 0.1921   -0.358079
 N 0.8889 0.401 0.8079   -0.358079
 N 0.5097 0.1322 0.4418   -0.3486
 N 0.0097 0.8678 0.5582   -0.3486
 N 0.5097 0.1322 0.5582   -0.3486
 N 0.0097 0.8678 0.4418   -0.3486
 N 0.5097 0.6322 0.9418   -0.3486
 N 0.0097 0.3678 0.0582   -0.3486
 N 0.5097 0.6322 0.0582   -0.3486
 N 0.0097 0.3678 0.9418   -0.3486
 N 0.6696 0.174 0.2179   -0.369388
 N 0.1696 0.826 0.7821   -0.369388
 N 0.6696 0.174 0.7821   -0.369388
 N 0.1696 0.826 0.2179   -0.369388
 N 0.6696 0.674 0.7179   -0.369388
 N 0.1696 0.326 0.2821   -0.369388
 N 0.6696 0.674 0.2821   -0.369388
 N 0.1696 0.326 0.7179   -0.369388
 N 0.7568 0.3394 0.1919   -0.366907
 N 0.2568 0.6606 0.8081   -0.366907
 N 0.7568 0.3394 0.8081   -0.366907
 N 0.2568 0.6606 0.1919   -0.366907
 N 0.7568 0.8394 0.6919   -0.366907
 N 0.2568 0.1606 0.3081   -0.366907
 N 0.7568 0.8394 0.3081   -0.366907
 N 0.2568 0.1606 0.6919   -0.366907
 N 0.7183 0.2123 0.0587   -0.36349
 N 0.2183 0.7877 0.9413   -0.36349
 N 0.7183 0.2123 0.9413   -0.36349
 N 0.2183 0.7877 0.0587   -0.36349
 N 0.7183 0.7123 0.5587   -0.36349
 N 0.2183 0.2877 0.4413   -0.36349
 N 0.7183 0.7123 0.4413   -0.36349
 N 0.2183 0.2877 0.5587   -0.36349
 N 0.5624 0.3191 0.1257   -0.351771
 N 0.0624 0.6809 0.8743   -0.351771
 N 0.5624 0.3191 0.8743   -0.351771
 N 0.0624 0.6809 0.1257   -0.351771
 N 0.5624 0.8191 0.6257   -0.351771
 N 0.0624 0.1809 0.3743   -0.351771
 N 0.5624 0.8191 0.3743   -0.351771
 N 0.0624 0.1809 0.6257   -0.351771
 F 0.301 0.0991 0.5   -0.477764
 F 0.801 0.9009 0.5   -0.477764
 F 0.301 0.5991 0.0   -0.477764
 F 0.801 0.4009 0.0   -0.477764
 F 0.2545 0.0235 0.4422   -0.39299
 F 0.7545 0.9765 0.5578   -0.39299
 F 0.2545 0.0235 0.5578   -0.39299
 F 0.7545 0.9765 0.4422   -0.39299
 F 0.2545 0.5235 0.9422   -0.39299
 F 0.7545 0.4765 0.0578   -0.39299
 F 0.2545 0.5235 0.0578   -0.39299
 F 0.7545 0.4765 0.9422   -0.39299
 F 0.2451 0.9433 0.5   -0.444626
 F 0.7451 0.0567 0.5   -0.444626
 F 0.2451 0.4433 0.0   -0.444626
 F 0.7451 0.5567 0.0   -0.444626
 F 0.1595 0.0598 0.5   -0.504002
 F 0.6595 0.9402 0.5   -0.504002
 F 0.1595 0.5598 0.0   -0.504002
 F 0.6595 0.4402 0.0   -0.504002
 F 0.053 0.1827 0.1974   -0.468915
 F 0.553 0.8173 0.8026   -0.468915
 F 0.053 0.1827 0.8026   -0.468915
 F 0.553 0.8173 0.1974   -0.468915
 F 0.053 0.6827 0.6974   -0.468915
 F 0.553 0.3173 0.3026   -0.468915
 F 0.053 0.6827 0.3026   -0.468915
 F 0.553 0.3173 0.6974   -0.468915
 F 0.9277 0.1632 0.1505   -0.45364
 F 0.4277 0.8368 0.8495   -0.45364
 F 0.9277 0.1632 0.8495   -0.45364
 F 0.4277 0.8368 0.1505   -0.45364
 F 0.9277 0.6632 0.6505   -0.45364
 F 0.4277 0.3368 0.3495   -0.45364
 F 0.9277 0.6632 0.3495   -0.45364
 F 0.4277 0.3368 0.6505   -0.45364
 F 0.9383 0.2233 0.2482   -0.517019
 F 0.4383 0.7767 0.7518   -0.517019
 F 0.9383 0.2233 0.7518   -0.517019
 F 0.4383 0.7767 0.2482   -0.517019
 F 0.9383 0.7233 0.7482   -0.517019
 F 0.4383 0.2767 0.2518   -0.517019
 F 0.9383 0.7233 0.2518   -0.517019
 F 0.4383 0.2767 0.7482   -0.517019
 F 0.9576 0.0938 0.2343   -0.411679
 F 0.4576 0.9062 0.7657   -0.411679
 F 0.9576 0.0938 0.7657   -0.411679
 F 0.4576 0.9062 0.2343   -0.411679
 F 0.9576 0.5938 0.7343   -0.411679
 F 0.4576 0.4062 0.2657   -0.411679
 F 0.9576 0.5938 0.2657   -0.411679
 F 0.4576 0.4062 0.7343   -0.411679
