{'_ref': 'TBD', '_srcid': 'CAKYAQ_clean', 'submitters': [{'name': 'Dalar Nazarian Jeff Camp and David Sholl', 'email': 'dalar@gatech.edu jcamp6@gatech.edu'}], '_method': 'VASP DFT with PBE;DDEC'}
data_ZnC8(OF)4
_symmetry_space_group_name_H-M   'P 1'
_cell_length_a   11.93390034
_cell_length_b   12.43690000
_cell_length_c   17.96270000
_cell_angle_alpha   90.00000000
_cell_angle_beta   104.05100153
_cell_angle_gamma   90.00000000
_symmetry_Int_Tables_number   1
_chemical_formula_structural   ZnC8(OF)4
_chemical_formula_sum   'Zn8 C64 O32 F32'
_cell_volume   2586.26912428
_cell_formula_units_Z   8
loop_
 _symmetry_equiv_pos_site_id
 _symmetry_equiv_pos_as_xyz
  1  'x, y, z'
loop_
 _atom_site_label
 _atom_site_fract_x
 _atom_site_fract_y
 _atom_site_fract_z
 _atom_site_charge
 Zn 0.04609 0.74166 0.76826   1.156091
 Zn 0.2564 0.93705 0.77874   1.095945
 Zn 0.45391 0.24166 0.73174   1.156091
 Zn 0.2436 0.43705 0.72126   1.095945
 Zn 0.95391 0.25834 0.23174   1.156091
 Zn 0.7436 0.06295 0.22126   1.095945
 Zn 0.54609 0.75834 0.26826   1.156091
 Zn 0.7564 0.56295 0.27874   1.095945
 C 0.3527 0.6919 0.9513   -0.272481
 C 0.3162 0.6691 0.0176   0.218048
 C 0.3919 0.6328 0.0829   0.191961
 C 0.5067 0.6128 0.0855   -0.256167
 C 0.5407 0.6302 0.0191   0.176387
 C 0.4693 0.6718 0.9544   0.206121
 C 0.2752 0.7426 0.8819   0.791559
 C 0.5967 0.5839 0.1576   0.722514
 C 0.4464 0.0941 0.8459   0.75915
 C 0.4736 0.045 0.9258   -0.277552
 C 0.5591 0.9677 0.9472   0.203809
 C 0.5843 0.9247 0.0206   0.199543
 C 0.0594 0.9452 0.855   0.776248
 C 0.0293 0.9746 0.9301   -0.265862
 C 0.9196 0.0119 0.9324   0.206906
 C 0.8923 0.0371 0.9994   0.188541
 C 0.1473 0.1919 0.5487   -0.272481
 C 0.1838 0.1691 0.4824   0.218048
 C 0.1081 0.1328 0.4171   0.191961
 C 0.9933 0.1128 0.4145   -0.256167
 C 0.9593 0.1302 0.4809   0.176387
 C 0.0307 0.1718 0.5456   0.206121
 C 0.2248 0.2426 0.6181   0.791559
 C 0.9033 0.0839 0.3424   0.722514
 C 0.0536 0.5941 0.6541   0.75915
 C 0.0264 0.545 0.5742   -0.277552
 C 0.9409 0.4677 0.5528   0.203809
 C 0.9157 0.4247 0.4794   0.199543
 C 0.4406 0.4452 0.645   0.776248
 C 0.4707 0.4746 0.5699   -0.265862
 C 0.5804 0.5119 0.5676   0.206906
 C 0.6077 0.5371 0.5006   0.188541
 C 0.6473 0.3081 0.0487   -0.272481
 C 0.6838 0.3309 0.9824   0.218048
 C 0.6081 0.3672 0.9171   0.191961
 C 0.4933 0.3872 0.9145   -0.256167
 C 0.4593 0.3698 0.9809   0.176387
 C 0.5307 0.3282 0.0456   0.206121
 C 0.7248 0.2574 0.1181   0.791559
 C 0.4033 0.4161 0.8424   0.722514
 C 0.5536 0.9059 0.1541   0.759149
 C 0.5264 0.955 0.0742   -0.277547
 C 0.4409 0.0323 0.0528   0.203807
 C 0.4157 0.0753 0.9794   0.199547
 C 0.9406 0.0548 0.145   0.776248
 C 0.9707 0.0254 0.0699   -0.265862
 C 0.0804 0.9881 0.0676   0.206906
 C 0.1077 0.9629 0.000599999999999   0.188541
 C 0.8527 0.8081 0.4513   -0.272481
 C 0.8162 0.8309 0.5176   0.218048
 C 0.8919 0.8672 0.5829   0.191961
 C 0.0067 0.8872 0.5855   -0.256167
 C 0.0407 0.8698 0.5191   0.176387
 C 0.9693 0.8282 0.4544   0.206121
 C 0.7752 0.7574 0.3819   0.791559
 C 0.0967 0.9161 0.6576   0.722514
 C 0.9464 0.4059 0.3459   0.759149
 C 0.9736 0.455 0.4258   -0.277547
 C 0.0591 0.5323 0.4472   0.203807
 C 0.0843 0.5753 0.5206   0.199547
 C 0.5594 0.5548 0.355   0.776248
 C 0.5293 0.5254 0.4301   -0.265862
 C 0.4196 0.4881 0.4324   0.206906
 C 0.3923 0.4629 0.4994   0.188541
 O 0.3192 0.8226 0.8564   -0.621893
 O 0.1767 0.7028 0.856   -0.620754
 O 0.6416 0.4942 0.1657   -0.504658
 O 0.6284 0.6596 0.2065   -0.676141
 O 0.3546 0.069 0.7985   -0.598844
 O 0.5171 0.1595 0.831   -0.561053
 O 0.1465 0.9897 0.8431   -0.59581
 O 0.9952 0.8763 0.8164   -0.638144
 O 0.1808 0.3226 0.6436   -0.621893
 O 0.3233 0.2028 0.644   -0.620754
 O 0.8584 0.9942 0.3343   -0.504658
 O 0.8716 0.1596 0.2935   -0.676141
 O 0.1454 0.569 0.7015   -0.598844
 O 0.9829 0.6595 0.669   -0.561053
 O 0.3535 0.4897 0.6569   -0.59581
 O 0.5048 0.3763 0.6836   -0.638144
 O 0.6808 0.1774 0.1436   -0.621893
 O 0.8233 0.2972 0.144   -0.620754
 O 0.3584 0.5058 0.8343   -0.504658
 O 0.3716 0.3404 0.7935   -0.676141
 O 0.6454 0.931 0.2015   -0.598844
 O 0.4829 0.8405 0.169   -0.561053
 O 0.8535 0.0103 0.1569   -0.59581
 O 0.0048 0.1237 0.1836   -0.638144
 O 0.8192 0.6774 0.3564   -0.621893
 O 0.6767 0.7972 0.356   -0.620754
 O 0.1416 0.0058 0.6657   -0.504658
 O 0.1284 0.8404 0.7065   -0.676141
 O 0.8546 0.431 0.2985   -0.598844
 O 0.0171 0.3405 0.331   -0.561053
 O 0.6465 0.5103 0.3431   -0.59581
 O 0.4952 0.6237 0.3164   -0.638144
 F 0.2054 0.6868 0.0193   -0.127541
 F 0.3532 0.6203 0.14747   -0.128911
 F 0.6524 0.6107 0.0176   -0.134901
 F 0.511 0.6916 0.893   -0.110563
 F 0.6171 0.9327 0.89644   -0.122512
 F 0.6682 0.8491 0.0385   -0.121365
 F 0.84 0.0283 0.8657   -0.133773
 F 0.7863 0.077 0.9976   -0.123901
 F 0.2946 0.1868 0.4807   -0.127541
 F 0.1468 0.1203 0.35253   -0.128911
 F 0.8476 0.1107 0.4824   -0.134901
 F 0.989 0.1916 0.607   -0.110563
 F 0.8829 0.4327 0.60356   -0.122512
 F 0.8318 0.3491 0.4615   -0.121365
 F 0.66 0.5283 0.6343   -0.133773
 F 0.7137 0.577 0.5024   -0.123901
 F 0.7946 0.3132 0.9807   -0.127541
 F 0.6468 0.3797 0.85253   -0.128911
 F 0.3476 0.3893 0.9824   -0.134901
 F 0.489 0.3084 0.107   -0.110563
 F 0.3829 0.0673 0.10356   -0.122511
 F 0.3318 0.1509 0.9615   -0.121365
 F 0.16 0.9717 0.1343   -0.133773
 F 0.2137 0.923 0.0024   -0.123901
 F 0.7054 0.8132 0.5193   -0.127541
 F 0.8532 0.8797 0.64747   -0.128911
 F 0.1524 0.8893 0.5176   -0.134901
 F 0.011 0.8084 0.393   -0.110563
 F 0.1171 0.5673 0.39644   -0.122511
 F 0.1682 0.6509 0.5385   -0.121365
 F 0.34 0.4717 0.3657   -0.133773
 F 0.2863 0.423 0.4976   -0.123901
