{'_ref': 'TBD', '_srcid': 'CAKYAQ_clean', 'submitters': [{'name': 'Dalar Nazarian Jeff Camp and David Sholl', 'email': 'dalar@gatech.edu jcamp6@gatech.edu'}], '_method': 'VASP DFT with PBE;DDEC'}
data_NiH6C9(NO)3
_symmetry_space_group_name_H-M   'P 1'
_cell_length_a   7.49329974
_cell_length_b   14.06049991
_cell_length_c   14.06050000
_cell_angle_alpha   97.71359971
_cell_angle_beta   101.34100029
_cell_angle_gamma   101.34099916
_symmetry_Int_Tables_number   1
_chemical_formula_structural   NiH6C9(NO)3
_chemical_formula_sum   'Ni4 H24 C36 N12 O12'
_cell_volume   1400.90050689
_cell_formula_units_Z   4
loop_
 _symmetry_equiv_pos_site_id
 _symmetry_equiv_pos_as_xyz
  1  'x, y, z'
loop_
 _atom_site_label
 _atom_site_fract_x
 _atom_site_fract_y
 _atom_site_fract_z
 _atom_site_charge
 Ni 0.75 0.41123 0.58877   0.761152
 Ni 0.25 0.58877 0.41123   0.761156
 Ni 0.5 0.0 0.0   0.83595
 Ni 0.0 0.0 0.0   0.83595
 H 0.631 0.1353 0.3683   0.134534
 H 0.5823 0.0194 0.2286   0.075864
 H 0.5993 0.3395 0.1971   0.135039
 H 0.5452 0.2171 0.0621   0.083247
 H 0.884 0.2369 0.6191   0.098654
 H 0.8976 0.1229 0.7287   0.128625
 H 0.869 0.6317 0.8647   0.134535
 H 0.9177 0.7714 0.9806   0.075864
 H 0.9007 0.8029 0.6605   0.135043
 H 0.9548 0.9379 0.7829   0.08325
 H 0.616 0.3809 0.7631   0.098653
 H 0.6024 0.2713 0.8771   0.128631
 H 0.369 0.8647 0.6317   0.134541
 H 0.4177 0.9806 0.7714   0.075865
 H 0.4007 0.6605 0.8029   0.135045
 H 0.4548 0.7829 0.9379   0.083248
 H 0.116 0.7631 0.3809   0.098656
 H 0.1024 0.8771 0.2713   0.128628
 H 0.131 0.3683 0.1353   0.134541
 H 0.0823 0.2286 0.0194   0.075865
 H 0.0993 0.1971 0.3395   0.135049
 H 0.0452 0.0621 0.2171   0.083251
 H 0.384 0.6191 0.2369   0.098655
 H 0.3976 0.7287 0.1229   0.128633
 C 0.6152 0.15398 0.30674   -0.15514
 C 0.6218 0.25192 0.29858   0.005271
 C 0.5847 0.08459 0.22205   0.132411
 C 0.6587 0.33108 0.38818   0.621777
 C 0.5957 0.27468 0.20562   -0.148839
 C 0.5638 0.20039 0.12447   0.141241
 C 0.8321 0.24002 0.67398   0.149322
 C 0.8368 0.17394 0.73786   -0.132438
 C 0.8848 0.69326 0.84602   -0.155139
 C 0.8782 0.70142 0.74808   0.005271
 C 0.9153 0.77795 0.91541   0.132411
 C 0.8413 0.61182 0.66892   0.621777
 C 0.9043 0.79438 0.72532   -0.14884
 C 0.9362 0.87553 0.79961   0.14124
 C 0.6679 0.32602 0.75998   0.149324
 C 0.6632 0.26214 0.82606   -0.13244
 C 0.3848 0.84602 0.69326   -0.155141
 C 0.3782 0.74808 0.70142   0.005272
 C 0.4153 0.91541 0.77795   0.132411
 C 0.3413 0.66892 0.61182   0.621777
 C 0.4043 0.72532 0.79438   -0.148841
 C 0.4362 0.79961 0.87553   0.141241
 C 0.1679 0.75998 0.32602   0.149322
 C 0.1632 0.82606 0.26214   -0.132438
 C 0.1152 0.30674 0.15398   -0.155141
 C 0.1218 0.29858 0.25192   0.005272
 C 0.0847 0.22205 0.08459   0.132411
 C 0.1587 0.38818 0.33108   0.621776
 C 0.0957 0.20562 0.27468   -0.148842
 C 0.0638 0.12447 0.20039   0.141241
 C 0.3321 0.67398 0.24002   0.149324
 C 0.3368 0.73786 0.17394   -0.13244
 C 0.75 0.11314 0.88686   0.620759
 C 0.75 0.18426 0.81574   -0.027668
 C 0.25 0.88686 0.11314   0.620759
 C 0.25 0.81574 0.18426   -0.027668
 N 0.5587 0.10617 0.13145   -0.286022
 N 0.9413 0.86855 0.89383   -0.286022
 N 0.4413 0.89383 0.86855   -0.286023
 N 0.0587 0.13145 0.10617   -0.286023
 N 0.75 0.31582 0.68418   -0.286866
 N 0.25 0.68418 0.31582   -0.286866
 N 0.25 0.04645 0.95355   -0.646593
 N 0.25 0.10234 0.89766   0.569114
 N 0.25 0.1563 0.8437   -0.427024
 N 0.75 0.95355 0.04645   -0.646593
 N 0.75 0.89766 0.10234   0.569114
 N 0.75 0.8437 0.1563   -0.427025
 O 0.6264 0.10943 0.93573   -0.550612
 O 0.6707 0.41879 0.37653   -0.555446
 O 0.6761 0.30313 0.47075   -0.576915
 O 0.8736 0.06427 0.89057   -0.550612
 O 0.8293 0.62347 0.58121   -0.555445
 O 0.8239 0.52925 0.69687   -0.576915
 O 0.3736 0.89057 0.06427   -0.550612
 O 0.3293 0.58121 0.62347   -0.555446
 O 0.3239 0.69687 0.52925   -0.576915
 O 0.1264 0.93573 0.10943   -0.550612
 O 0.1707 0.37653 0.41879   -0.555445
 O 0.1761 0.47075 0.30313   -0.576915
