{'_ref': 'TBD', '_srcid': 'CAKYAQ_clean', 'submitters': [{'name': 'Dalar Nazarian Jeff Camp and David Sholl', 'email': 'dalar@gatech.edu jcamp6@gatech.edu'}], '_method': 'VASP DFT with PBE;DDEC'}
data_VHC4O5
_symmetry_space_group_name_H-M   'P 1'
_cell_length_a   7.11300000
_cell_length_b   9.95900000
_cell_length_c   9.95900000
_cell_angle_alpha   90.00000000
_cell_angle_beta   90.00000000
_cell_angle_gamma   90.00000000
_symmetry_Int_Tables_number   1
_chemical_formula_structural   VHC4O5
_chemical_formula_sum   'V4 H4 C16 O20'
_cell_volume   705.479296953
_cell_formula_units_Z   4
loop_
 _symmetry_equiv_pos_site_id
 _symmetry_equiv_pos_as_xyz
  1  'x, y, z'
loop_
 _atom_site_label
 _atom_site_fract_x
 _atom_site_fract_y
 _atom_site_fract_z
 _atom_site_charge
 V 0.5 0.6091 0.8909   1.542719
 V 0.5 0.3909 0.1091   1.54272
 V 0.5 0.1091 0.6091   1.542717
 V 0.5 0.8909 0.3909   1.542718
 H 0.5 0.3563 0.8563   0.465268
 H 0.5 0.6437 0.1437   0.465268
 H 0.5 0.1437 0.3563   0.465268
 H 0.5 0.8563 0.6437   0.465268
 C 0.5 0.4422 0.4144   0.216956
 C 0.5 0.5578 0.5856   0.216954
 C 0.5 0.5856 0.4422   0.216923
 C 0.5 0.4144 0.5578   0.216923
 C 0.5 0.0578 0.9144   0.216956
 C 0.5 0.9422 0.0856   0.216954
 C 0.5 0.9144 0.9422   0.216923
 C 0.5 0.0856 0.0578   0.216923
 C 0.101 0.5516 0.9484   0.228666
 C 0.101 0.4484 0.0516   0.228676
 C 0.101 0.0516 0.5516   0.228666
 C 0.101 0.9484 0.4484   0.228676
 C 0.899 0.9484 0.4484   0.228646
 C 0.899 0.0516 0.5516   0.228655
 C 0.899 0.4484 0.0516   0.228646
 C 0.899 0.5516 0.9484   0.228655
 O 0.5 0.6299 0.6879   -0.471148
 O 0.5 0.3701 0.3121   -0.471148
 O 0.5 0.3121 0.6299   -0.471143
 O 0.5 0.6879 0.3701   -0.471143
 O 0.5 0.8701 0.1879   -0.471147
 O 0.5 0.1299 0.8121   -0.471147
 O 0.5 0.1879 0.1299   -0.471143
 O 0.5 0.8121 0.8701   -0.471143
 O 0.2203 0.6175 0.8825   -0.483322
 O 0.2203 0.3825 0.1175   -0.483324
 O 0.2203 0.1175 0.6175   -0.483322
 O 0.2203 0.8825 0.3825   -0.483323
 O 0.7797 0.8825 0.3825   -0.483321
 O 0.7797 0.1175 0.6175   -0.483322
 O 0.7797 0.3825 0.1175   -0.483322
 O 0.7797 0.6175 0.8825   -0.483323
 O 0.5 0.5862 0.0862   -0.99025
 O 0.5 0.4138 0.9138   -0.99025
 O 0.5 0.9138 0.5862   -0.99025
 O 0.5 0.0862 0.4138   -0.99025
