{'_ref': 'TBD', '_srcid': 'CAKYAQ_clean', 'submitters': [{'name': 'Dalar Nazarian Jeff Camp and David Sholl', 'email': 'dalar@gatech.edu jcamp6@gatech.edu'}], '_method': 'VASP DFT with PBE;DDEC'}
data_CdAg2H10(C7N3)2
_symmetry_space_group_name_H-M   'P 1'
_cell_length_a   11.08880000
_cell_length_b   11.08879428
_cell_length_c   11.08879958
_cell_angle_alpha   107.55697938
_cell_angle_beta   109.11199890
_cell_angle_gamma   111.77298165
_symmetry_Int_Tables_number   1
_chemical_formula_structural   CdAg2H10(C7N3)2
_chemical_formula_sum   'Cd2 Ag4 H20 C28 N12'
_cell_volume   1048.15748491
_cell_formula_units_Z   2
loop_
 _symmetry_equiv_pos_site_id
 _symmetry_equiv_pos_as_xyz
  1  'x, y, z'
loop_
 _atom_site_label
 _atom_site_fract_x
 _atom_site_fract_y
 _atom_site_fract_z
 _atom_site_charge
 Cd 0.75 0.87228 0.12228   0.872013
 Cd 0.25 0.62772 0.37772   0.87202
 Ag 0.24391 0.35843 0.63868   0.178624
 Ag 0.25609 0.89477 0.11452   0.178623
 Ag 0.21975 0.60523 0.86132   0.17861
 Ag 0.28025 0.14157 0.38548   0.17862
 H 0.52389 0.89101 0.86633   0.090261
 H 0.5355 0.0479 0.74054   0.135849
 H 0.7936 0.24931 0.80497   0.105434
 H 0.02885 0.28295 0.99424   0.130866
 H 0.99651 0.12763 0.12158   0.081844
 H 0.9761 0.84244 0.36712   0.09028
 H 0.9645 0.70504 0.5124   0.135852
 H 0.7064 0.51137 0.45571   0.105444
 H 0.47114 0.46539 0.2541   0.130912
 H 0.5035 0.62508 0.13113   0.081794
 H 0.52468 0.65756 0.63367   0.090267
 H 0.80736 0.79496 0.75947   0.135884
 H 0.94434 0.98863 0.69503   0.105446
 H 0.78871 0.03461 0.50576   0.130864
 H 0.50604 0.87492 0.37842   0.08184
 H 0.97533 0.60899 0.13288   0.090319
 H 0.69264 0.4521 0.98759   0.135871
 H 0.55566 0.25069 0.04429   0.105448
 H 0.7113 0.21705 0.2459   0.130924
 H 0.99395 0.37237 0.36887   0.081789
 C 0.0395 0.1798 0.4611   -0.038469
 C 0.4536 0.5316 0.8108   -0.039648
 C 0.6368 0.9826 0.8952   0.132508
 C 0.6432 0.0678 0.825   -0.181045
 C 0.785 0.178 0.861   0.008365
 C 0.9132 0.1972 0.966   -0.166718
 C 0.8947 0.1111 0.0318   0.129613
 C 0.4605 0.9216 0.1403   -0.038457
 C 0.0464 0.8572 0.078   -0.039632
 C 0.8632 0.7584 0.3458   0.132506
 C 0.8568 0.6818 0.4246   -0.181043
 C 0.715 0.576 0.393   0.008388
 C 0.5868 0.5528 0.284   -0.166825
 C 0.6053 0.6371 0.2164   0.12973
 C 0.2187 0.5784 0.0389   -0.038464
 C 0.2208 0.6428 0.6892   -0.03963
 C 0.5874 0.7416 0.6048   0.132511
 C 0.7428 0.8182 0.675   -0.181109
 C 0.817 0.924 0.639   0.008374
 C 0.7312 0.9472 0.534   -0.166721
 C 0.5793 0.8629 0.4682   0.129633
 C 0.2813 0.3202 0.3597   -0.038461
 C 0.2792 0.9684 0.422   -0.039649
 C 0.9126 0.5174 0.1542   0.132419
 C 0.7572 0.4322 0.0754   -0.181055
 C 0.683 0.322 0.107   0.008387
 C 0.7688 0.3028 0.216   -0.166833
 C 0.9207 0.3889 0.2836   0.129729
 N 0.9353 0.0831 0.3518   -0.344769
 N 0.5592 0.6366 0.9038   -0.348105
 N 0.7592 0.0038 0.9966   -0.310633
 N 0.5647 0.9165 0.1478   -0.344769
 N 0.9408 0.8446 0.0774   -0.348109
 N 0.7408 0.7374 0.2446   -0.310673
 N 0.2313 0.5835 0.1482   -0.344771
 N 0.2328 0.6554 0.5962   -0.348111
 N 0.5072 0.7626 0.5034   -0.310638
 N 0.2687 0.4169 0.3522   -0.344772
 N 0.2672 0.8634 0.4226   -0.348102
 N 0.9928 0.4962 0.2554   -0.310648
