{'_ref': 'TBD', '_srcid': 'CAKYAQ_clean', 'submitters': [{'name': 'Dalar Nazarian Jeff Camp and David Sholl', 'email': 'dalar@gatech.edu jcamp6@gatech.edu'}], '_method': 'VASP DFT with PBE;DDEC'}
data_ZnH36Pt2Au2C20S4(NO2)4
_symmetry_space_group_name_H-M   'P 1'
_cell_length_a   12.45800000
_cell_length_b   12.45799958
_cell_length_c   24.67300000
_cell_angle_alpha   90.00000000
_cell_angle_beta   90.00000000
_cell_angle_gamma   120.00000110
_symmetry_Int_Tables_number   1
_chemical_formula_structural   ZnH36Pt2Au2C20S4(NO2)4
_chemical_formula_sum   'Zn3 H108 Pt6 Au6 C60 S12 N12 O24'
_cell_volume   3316.26497556
_cell_formula_units_Z   3
loop_
 _symmetry_equiv_pos_site_id
 _symmetry_equiv_pos_as_xyz
  1  'x, y, z'
loop_
 _atom_site_label
 _atom_site_fract_x
 _atom_site_fract_y
 _atom_site_fract_z
 _atom_site_charge
 Zn 0.0 0.0 0.66667   1.114869
 Zn 0.0 0.0 0.33333   1.11487
 Zn 0.0 0.0 0.0   1.115067
 H 0.3522 0.0771 0.7553   0.315365
 H 0.3283 0.0251 0.6996   0.313294
 H 0.233 0.8913 0.795   0.097442
 H 0.1336 0.6657 0.7945   0.120568
 H 0.1185 0.5909 0.7396   0.124108
 H 0.0372 0.656 0.7492   0.140783
 H 0.2071 0.7057 0.6524   0.11887
 H 0.2708 0.8535 0.6515   0.127913
 H 0.1237 0.7696 0.658   0.142404
 H 0.7249 0.6478 0.42197   0.315432
 H 0.6968 0.6717 0.36627   0.313302
 H 0.6583 0.767 0.46167   0.097375
 H 0.5321 0.8664 0.46117   0.120559
 H 0.4724 0.8815 0.40627   0.124077
 H 0.6188 0.9628 0.41587   0.140747
 H 0.4986 0.7929 0.31907   0.118788
 H 0.5827 0.7292 0.31817   0.127881
 H 0.6459 0.8763 0.32467   0.142385
 H 0.9229 0.2751 0.08863   0.315365
 H 0.9749 0.3032 0.03293   0.31324
 H 0.1087 0.3417 0.12833   0.097393
 H 0.3343 0.4679 0.12783   0.120567
 H 0.4091 0.5276 0.07293   0.12414
 H 0.344 0.3812 0.08253   0.140804
 H 0.2943 0.5014 0.98573   0.118921
 H 0.1465 0.4173 0.98483   0.127931
 H 0.2304 0.3541 0.99133   0.14245
 H 0.6478 0.9229 0.7553   0.315365
 H 0.6717 0.9749 0.6996   0.313294
 H 0.767 0.1087 0.795   0.097442
 H 0.8664 0.3343 0.7945   0.120567
 H 0.8815 0.4091 0.7396   0.124107
 H 0.9628 0.344 0.7492   0.140782
 H 0.7929 0.2943 0.6524   0.11887
 H 0.7292 0.1465 0.6515   0.127913
 H 0.8763 0.2304 0.658   0.142404
 H 0.2751 0.3522 0.42197   0.315432
 H 0.3032 0.3283 0.36627   0.313302
 H 0.3417 0.233 0.46167   0.097375
 H 0.4679 0.1336 0.46117   0.120558
 H 0.5276 0.1185 0.40627   0.124075
 H 0.3812 0.0372 0.41587   0.140746
 H 0.5014 0.2071 0.31907   0.118788
 H 0.4173 0.2708 0.31817   0.127881
 H 0.3541 0.1237 0.32467   0.142385
 H 0.0771 0.7249 0.08863   0.315365
 H 0.0251 0.6968 0.03293   0.31324
 H 0.8913 0.6583 0.12833   0.097393
 H 0.6657 0.5321 0.12783   0.120566
 H 0.5909 0.4724 0.07293   0.124139
 H 0.656 0.6188 0.08253   0.140803
 H 0.7057 0.4986 0.98573   0.118921
 H 0.8535 0.5827 0.98483   0.127931
 H 0.7696 0.6459 0.99133   0.14245
 H 0.2751 0.9229 0.91137   0.315368
 H 0.3032 0.9749 0.96707   0.313243
 H 0.3417 0.1087 0.87167   0.097388
 H 0.4679 0.3343 0.87217   0.120566
 H 0.5276 0.4091 0.92707   0.124139
 H 0.3812 0.344 0.91747   0.140803
 H 0.5014 0.2943 0.01427   0.118919
 H 0.4173 0.1465 0.01517   0.127931
 H 0.3541 0.2304 0.00867   0.142449
 H 0.0771 0.3522 0.2447   0.315368
 H 0.0251 0.3283 0.3004   0.313296
 H 0.8913 0.233 0.205   0.097443
 H 0.6657 0.1336 0.2055   0.120569
 H 0.5909 0.1185 0.2604   0.124107
 H 0.656 0.0372 0.2508   0.140783
 H 0.7057 0.2071 0.3476   0.118868
 H 0.8535 0.2708 0.3485   0.127912
 H 0.7696 0.1237 0.342   0.142401
 H 0.6478 0.7249 0.57803   0.315433
 H 0.6717 0.6968 0.63373   0.313303
 H 0.767 0.6583 0.53833   0.097381
 H 0.8664 0.5321 0.53883   0.12056
 H 0.8815 0.4724 0.59373   0.124075
 H 0.9628 0.6188 0.58413   0.140745
 H 0.7929 0.4986 0.68093   0.118788
 H 0.7292 0.5827 0.68183   0.127882
 H 0.8763 0.6459 0.67533   0.142385
 H 0.7249 0.0771 0.91137   0.315368
 H 0.6968 0.0251 0.96707   0.313243
 H 0.6583 0.8913 0.87167   0.097388
 H 0.5321 0.6657 0.87217   0.120565
 H 0.4724 0.5909 0.92707   0.124138
 H 0.6188 0.656 0.91747   0.140802
 H 0.4986 0.7057 0.01427   0.118919
 H 0.5827 0.8535 0.01517   0.127931
 H 0.6459 0.7696 0.00867   0.142449
 H 0.9229 0.6478 0.2447   0.315368
 H 0.9749 0.6717 0.3004   0.313296
 H 0.1087 0.767 0.205   0.097443
 H 0.3343 0.8664 0.2055   0.120568
 H 0.4091 0.8815 0.2604   0.124106
 H 0.344 0.9628 0.2508   0.140782
 H 0.2943 0.7929 0.3476   0.118868
 H 0.1465 0.7292 0.3485   0.127912
 H 0.2304 0.8763 0.342   0.142401
 H 0.3522 0.2751 0.57803   0.315433
 H 0.3283 0.3032 0.63373   0.313303
 H 0.233 0.3417 0.53833   0.097381
 H 0.1336 0.4679 0.53883   0.120559
 H 0.1185 0.5276 0.59373   0.124074
 H 0.0372 0.3812 0.58413   0.140744
 H 0.2071 0.5014 0.68093   0.118788
 H 0.2708 0.4173 0.68183   0.127882
 H 0.1237 0.3541 0.67533   0.142385
 Pt 0.5 0.0 0.73834   -0.069548
 Pt 0.5 0.5 0.40501   -0.069666
 Pt 0.0 0.5 0.07167   -0.069492
 Pt 0.5 0.0 0.92833   -0.069488
 Pt 0.0 0.5 0.26166   -0.069543
 Pt 0.5 0.5 0.59499   -0.069657
 Au 0.39311 0.78622 0.83333   -0.024775
 Au 0.39311 0.6069 0.5   -0.024824
 Au 0.21379 0.6069 0.16667   -0.024795
 Au 0.60689 0.21378 0.83333   -0.024775
 Au 0.60689 0.3931 0.5   -0.024824
 Au 0.78621 0.3931 0.16667   -0.024795
 C 0.2183 0.7801 0.7292   0.212665
 C 0.2274 0.8964 0.7547   -0.079967
 C 0.1181 0.6629 0.7555   -0.385757
 C 0.2036 0.7769 0.6671   -0.387031
 C 0.1124 0.9064 0.741   0.636491
 C 0.5618 0.7817 0.39587   0.212647
 C 0.669 0.7726 0.42137   -0.079879
 C 0.5448 0.8819 0.42217   -0.385687
 C 0.5733 0.7964 0.33377   -0.386846
 C 0.794 0.8876 0.40767   0.636604
 C 0.2199 0.4382 0.06253   0.212624
 C 0.1036 0.331 0.08803   -0.079935
 C 0.3371 0.4552 0.08883   -0.385806
 C 0.2231 0.4267 0.000430000000001   -0.387173
 C 0.0936 0.206 0.07433   0.636701
 C 0.7817 0.2199 0.7292   0.212665
 C 0.7726 0.1036 0.7547   -0.079967
 C 0.8819 0.3371 0.7555   -0.385757
 C 0.7964 0.2231 0.6671   -0.387031
 C 0.8876 0.0936 0.741   0.636491
 C 0.4382 0.2183 0.39587   0.212647
 C 0.331 0.2274 0.42137   -0.079879
 C 0.4552 0.1181 0.42217   -0.385686
 C 0.4267 0.2036 0.33377   -0.386846
 C 0.206 0.1124 0.40767   0.636604
 C 0.7801 0.5618 0.06253   0.212624
 C 0.8964 0.669 0.08803   -0.079935
 C 0.6629 0.5448 0.08883   -0.385805
 C 0.7769 0.5733 0.000430000000001   -0.387173
 C 0.9064 0.794 0.07433   0.636701
 C 0.4382 0.2199 0.93747   0.212621
 C 0.331 0.1036 0.91197   -0.07993
 C 0.4552 0.3371 0.91117   -0.385806
 C 0.4267 0.2231 0.99957   -0.387173
 C 0.206 0.0936 0.92567   0.636701
 C 0.7801 0.2183 0.2708   0.212659
 C 0.8964 0.2274 0.2453   -0.079965
 C 0.6629 0.1181 0.2445   -0.385758
 C 0.7769 0.2036 0.3329   -0.38703
 C 0.9064 0.1124 0.259   0.636491
 C 0.7817 0.5618 0.60413   0.212654
 C 0.7726 0.669 0.57863   -0.079885
 C 0.8819 0.5448 0.57783   -0.385686
 C 0.7964 0.5733 0.66623   -0.386845
 C 0.8876 0.794 0.59233   0.636604
 C 0.5618 0.7801 0.93747   0.212621
 C 0.669 0.8964 0.91197   -0.07993
 C 0.5448 0.6629 0.91117   -0.385805
 C 0.5733 0.7769 0.99957   -0.387173
 C 0.794 0.9064 0.92567   0.636701
 C 0.2199 0.7817 0.2708   0.212659
 C 0.1036 0.7726 0.2453   -0.079965
 C 0.3371 0.8819 0.2445   -0.385758
 C 0.2231 0.7964 0.3329   -0.38703
 C 0.0936 0.8876 0.259   0.636491
 C 0.2183 0.4382 0.60413   0.212654
 C 0.2274 0.331 0.57863   -0.079885
 C 0.1181 0.4552 0.57783   -0.385685
 C 0.2036 0.4267 0.66623   -0.386845
 C 0.1124 0.206 0.59233   0.636604
 S 0.37051 0.78842 0.7411   -0.129104
 S 0.41791 0.62949 0.40777   -0.12907
 S 0.21158 0.58209 0.07443   -0.129097
 S 0.62949 0.21158 0.7411   -0.129104
 S 0.58209 0.37051 0.40777   -0.12907
 S 0.78842 0.41791 0.07443   -0.129097
 S 0.58209 0.21158 0.92557   -0.129093
 S 0.78842 0.37051 0.2589   -0.129079
 S 0.62949 0.41791 0.59223   -0.129086
 S 0.41791 0.78842 0.92557   -0.129093
 S 0.21158 0.62949 0.2589   -0.129079
 S 0.37051 0.58209 0.59223   -0.129086
 N 0.3412 0.0106 0.7349   -0.381956
 N 0.6694 0.6588 0.40157   -0.382036
 N 0.9894 0.3306 0.06823   -0.381907
 N 0.6588 0.9894 0.7349   -0.381956
 N 0.3306 0.3412 0.40157   -0.382036
 N 0.0106 0.6694 0.06823   -0.381907
 N 0.3306 0.9894 0.93177   -0.381912
 N 0.0106 0.3412 0.2651   -0.381962
 N 0.6588 0.6694 0.59843   -0.382037
 N 0.6694 0.0106 0.93177   -0.381912
 N 0.9894 0.6588 0.2651   -0.381962
 N 0.3412 0.3306 0.59843   -0.382037
 O 0.1244 0.972 0.6994   -0.661678
 O 0.0188 0.8494 0.7685   -0.555938
 O 0.8476 0.8756 0.36607   -0.661858
 O 0.8306 0.9812 0.43517   -0.555911
 O 0.028 0.1524 0.03273   -0.661819
 O 0.1506 0.1694 0.10183   -0.556038
 O 0.8756 0.028 0.6994   -0.661678
 O 0.9812 0.1506 0.7685   -0.555937
 O 0.1524 0.1244 0.36607   -0.661858
 O 0.1694 0.0188 0.43517   -0.555911
 O 0.972 0.8476 0.03273   -0.661819
 O 0.8494 0.8306 0.10183   -0.556038
 O 0.1524 0.028 0.96727   -0.661819
 O 0.1694 0.1506 0.89817   -0.556036
 O 0.972 0.1244 0.3006   -0.661678
 O 0.8494 0.0188 0.2315   -0.555936
 O 0.8756 0.8476 0.63393   -0.661857
 O 0.9812 0.8306 0.56483   -0.555911
 O 0.8476 0.972 0.96727   -0.661819
 O 0.8306 0.8494 0.89817   -0.556036
 O 0.028 0.8756 0.3006   -0.661678
 O 0.1506 0.9812 0.2315   -0.555936
 O 0.1244 0.1524 0.63393   -0.661857
 O 0.0188 0.1694 0.56483   -0.555911
