{'_ref': 'TBD', '_srcid': 'CAKYAQ_clean', 'submitters': [{'name': 'Dalar Nazarian Jeff Camp and David Sholl', 'email': 'dalar@gatech.edu jcamp6@gatech.edu'}], '_method': 'VASP DFT with PBE;DDEC'}
data_Mn3H12C14(NO6)2
_symmetry_space_group_name_H-M   'P 1'
_cell_length_a   10.31419998
_cell_length_b   10.31419952
_cell_length_c   11.41800000
_cell_angle_alpha   84.99450023
_cell_angle_beta   84.99450045
_cell_angle_gamma   65.65599940
_symmetry_Int_Tables_number   1
_chemical_formula_structural   Mn3H12C14(NO6)2
_chemical_formula_sum   'Mn6 H24 C28 N4 O24'
_cell_volume   1100.69527009
_cell_formula_units_Z   2
loop_
 _symmetry_equiv_pos_site_id
 _symmetry_equiv_pos_as_xyz
  1  'x, y, z'
loop_
 _atom_site_label
 _atom_site_fract_x
 _atom_site_fract_y
 _atom_site_fract_z
 _atom_site_charge
 Mn 0.54089 0.63671 0.48511   1.162905
 Mn 0.36329 0.45911 0.01489   1.162905
 Mn 0.45911 0.36329 0.51489   1.162906
 Mn 0.63671 0.54089 0.98511   1.162907
 Mn 0.62974 0.37026 0.75   0.927475
 Mn 0.37026 0.62974 0.25   0.927476
 H 0.621 0.299 0.961   0.471584
 H 0.6403 0.9043 0.508   0.133893
 H 0.9124 0.5324 0.625   0.128123
 H 0.9704 0.6304 0.787   0.133795
 H 0.8522 0.8862 0.8   0.118615
 H 0.208 0.554 0.69   -0.004364
 H 0.701 0.379 0.539   0.471584
 H 0.0957 0.3597 0.992   0.133892
 H 0.4676 0.0876 0.875   0.128123
 H 0.3696 0.0296 0.713   0.133795
 H 0.1138 0.1478 0.7   0.118614
 H 0.446 0.792 0.81   -0.004364
 H 0.379 0.701 0.039   0.471587
 H 0.3597 0.0957 0.492   0.133891
 H 0.0876 0.4676 0.375   0.128122
 H 0.0296 0.3696 0.213   0.133794
 H 0.1478 0.1138 0.2   0.118615
 H 0.792 0.446 0.31   -0.004362
 H 0.299 0.621 0.461   0.471586
 H 0.9043 0.6403 0.008   0.133891
 H 0.5324 0.9124 0.125   0.128122
 H 0.6304 0.9704 0.287   0.133794
 H 0.8862 0.8522 0.3   0.118614
 H 0.554 0.208 0.19   -0.004362
 C 0.65964 0.08184 0.6579   0.6701
 C 0.73564 0.92104 0.6565   -0.136454
 C 0.70798 0.85358 0.5682   -0.025065
 C 0.8715 0.6305 0.6397   -0.024358
 C 0.9 0.6934 0.7291   -0.116923
 C 0.8325 0.8387 0.7385   -0.019143
 C 0.2877 0.5015 0.7454   0.64004
 C 0.91816 0.34036 0.8421   0.6701
 C 0.07896 0.26436 0.8435   -0.136457
 C 0.14642 0.29202 0.9318   -0.025064
 C 0.3695 0.1285 0.8603   -0.024359
 C 0.3066 0.1 0.7709   -0.116923
 C 0.1613 0.1675 0.7615   -0.019142
 C 0.4985 0.7123 0.7546   0.640039
 C 0.34036 0.91816 0.3421   0.6701
 C 0.26436 0.07896 0.3435   -0.136455
 C 0.29202 0.14642 0.4318   -0.025064
 C 0.1285 0.3695 0.3603   -0.024358
 C 0.1 0.3066 0.2709   -0.116923
 C 0.1675 0.1613 0.2615   -0.019143
 C 0.7123 0.4985 0.2546   0.64004
 C 0.08184 0.65964 0.1579   0.6701
 C 0.92104 0.73564 0.1565   -0.136458
 C 0.85358 0.70798 0.0682   -0.025063
 C 0.6305 0.8715 0.1397   -0.024359
 C 0.6934 0.9 0.2291   -0.116923
 C 0.8387 0.8325 0.2385   -0.019143
 C 0.5015 0.2877 0.2454   0.640039
 N 0.77496 0.71096 0.5612   0.334853
 N 0.28904 0.22504 0.9388   0.334853
 N 0.22504 0.28904 0.4388   0.334853
 N 0.71096 0.77496 0.0612   0.334853
 O 0.74678 0.64818 0.4751   -0.570575
 O 0.57182 0.14222 0.58004   -0.61214
 O 0.68967 0.14187 0.73638   -0.573294
 O 0.25695 0.53755 0.84929   -0.611243
 O 0.58077 0.36937 0.93965   -0.973616
 O 0.4058 0.4229 0.70331   -0.59047
 O 0.35182 0.25322 0.0249   -0.570574
 O 0.85778 0.42818 0.91996   -0.612139
 O 0.85813 0.31033 0.76362   -0.573294
 O 0.46245 0.74305 0.65071   -0.611244
 O 0.63063 0.41923 0.56035   -0.973612
 O 0.5771 0.5942 0.79669   -0.590471
 O 0.25322 0.35182 0.5249   -0.570575
 O 0.42818 0.85778 0.41996   -0.612139
 O 0.31033 0.85813 0.26362   -0.573294
 O 0.74305 0.46245 0.15071   -0.611243
 O 0.41923 0.63063 0.06035   -0.973617
 O 0.5942 0.5771 0.29669   -0.59047
 O 0.64818 0.74678 0.9751   -0.570574
 O 0.14222 0.57182 0.08004   -0.612139
 O 0.14187 0.68967 0.23638   -0.573294
 O 0.53755 0.25695 0.34929   -0.611244
 O 0.36937 0.58077 0.43965   -0.973613
 O 0.4229 0.4058 0.20331   -0.590471
