{'_ref': 'TBD', '_srcid': 'CAKYAQ_clean', 'submitters': [{'name': 'Dalar Nazarian Jeff Camp and David Sholl', 'email': 'dalar@gatech.edu jcamp6@gatech.edu'}], '_method': 'VASP DFT with PBE;DDEC'}
data_Zn5H12C28N18(OF)8
_symmetry_space_group_name_H-M   'P 1'
_cell_length_a   10.13700013
_cell_length_b   10.22799972
_cell_length_c   12.74700000
_cell_angle_alpha   74.56200120
_cell_angle_beta   83.79600021
_cell_angle_gamma   60.95199737
_symmetry_Int_Tables_number   1
_chemical_formula_structural   Zn5H12C28N18(OF)8
_chemical_formula_sum   'Zn5 H12 C28 N18 O8 F8'
_cell_volume   1113.3426946
_cell_formula_units_Z   1
loop_
 _symmetry_equiv_pos_site_id
 _symmetry_equiv_pos_as_xyz
  1  'x, y, z'
loop_
 _atom_site_label
 _atom_site_fract_x
 _atom_site_fract_y
 _atom_site_fract_z
 _atom_site_charge
 Zn 0.50787 0.59543 0.71489   0.807339
 Zn 0.84511 0.88619 0.84619   0.939636
 Zn 0.49213 0.40457 0.28511   0.807338
 Zn 0.15489 0.11381 0.15381   0.939635
 Zn 0.5 0.5 0.0   0.566033
 H 0.6993 0.6855 0.0074   0.067691
 H 0.6845 0.1202 0.999   0.064998
 H 0.132 0.818 0.674   0.10658
 H 0.129 0.708 0.99   0.070966
 H 0.719 0.754 0.695   0.088666
 H 0.691 0.228 0.685   0.087213
 H 0.3007 0.3145 0.9926   0.067692
 H 0.3155 0.8798 0.000999999999998   0.064998
 H 0.868 0.182 0.326   0.106592
 H 0.871 0.292 0.01   0.070967
 H 0.281 0.246 0.305   0.088666
 H 0.309 0.772 0.315   0.087215
 C 0.1617 0.7743 0.7472   0.26599
 C 0.1676 0.7086 0.9199   0.277994
 C 0.6977 0.7301 0.7664   0.28032
 C 0.6867 0.6886 0.9354   0.2898
 C 0.6765 0.2377 0.7566   0.291706
 C 0.6697 0.1774 0.927   0.277843
 C 0.5154 0.7182 0.4921   0.717571
 C 0.606 0.7391 0.3928   -0.284778
 C 0.6973 0.6156 0.3455   0.180147
 C 0.6075 0.8758 0.3445   0.196041
 C 0.784 0.6303 0.2552   0.186096
 C 0.6945 0.8881 0.2555   0.176374
 C 0.7852 0.7661 0.2119   -0.256637
 C 0.8848 0.7795 0.1194   0.688626
 C 0.8383 0.2257 0.2528   0.265986
 C 0.8324 0.2914 0.0801   0.277992
 C 0.3023 0.2699 0.2336   0.28032
 C 0.3133 0.3114 0.0646   0.289797
 C 0.3235 0.7623 0.2434   0.291705
 C 0.3303 0.8226 0.073   0.277839
 C 0.4846 0.2818 0.5079   0.717571
 C 0.394 0.2609 0.6072   -0.284778
 C 0.3027 0.3844 0.6545   0.180149
 C 0.3925 0.1242 0.6555   0.196042
 C 0.216 0.3697 0.7448   0.186096
 C 0.3055 0.1119 0.7445   0.176373
 C 0.2148 0.2339 0.7881   -0.256638
 C 0.1152 0.2205 0.8806   0.688625
 N 0.3055 0.684 0.7789   -0.289314
 N 0.3098 0.6429 0.8906   -0.203046
 N 0.0698 0.7912 0.834   -0.4796
 N 0.6218 0.6551 0.7957   -0.258475
 N 0.6161 0.6265 0.9082   -0.215145
 N 0.7411 0.7588 0.851   -0.49636
 N 0.5999 0.3682 0.7865   -0.261714
 N 0.5951 0.3288 0.8987   -0.216228
 N 0.7231 0.1123 0.8411   -0.481992
 N 0.6945 0.316 0.2211   -0.289313
 N 0.6902 0.3571 0.1094   -0.203046
 N 0.9302 0.2088 0.166   -0.479599
 N 0.3782 0.3449 0.2043   -0.258475
 N 0.3839 0.3735 0.0918   -0.215144
 N 0.2589 0.2412 0.149   -0.496359
 N 0.4001 0.6318 0.2135   -0.261713
 N 0.4049 0.6712 0.1013   -0.216227
 N 0.2769 0.8877 0.1589   -0.481991
 O 0.5945 0.612 0.5725   -0.588741
 O 0.3802 0.806 0.4923   -0.59479
 O 0.0238 0.7302 0.1478   -0.596224
 O 0.8357 0.8331 0.0231   -0.614921
 O 0.4055 0.388 0.4275   -0.588741
 O 0.6198 0.194 0.5077   -0.59479
 O 0.9762 0.2698 0.8522   -0.596224
 O 0.1643 0.1669 0.9769   -0.614921
 F 0.6984 0.4799 0.3881   -0.126434
 F 0.5294 0.9965 0.3896   -0.127176
 F 0.8704 0.5082 0.2137   -0.124228
 F 0.6939 0.0259 0.2137   -0.128815
 F 0.3016 0.5201 0.6119   -0.126434
 F 0.4706 0.0035 0.6104   -0.127173
 F 0.1296 0.4918 0.7863   -0.124228
 F 0.3061 0.9741 0.7863   -0.128815
