{'_ref': 'TBD', '_srcid': 'CAKYAQ_clean', 'submitters': [{'name': 'Dalar Nazarian Jeff Camp and David Sholl', 'email': 'dalar@gatech.edu jcamp6@gatech.edu'}], '_method': 'VASP DFT with PBE;DDEC'}
data_CuH3(C5O2)2
_symmetry_space_group_name_H-M   'P 1'
_cell_length_a   17.38839955
_cell_length_b   17.38839956
_cell_length_c   17.38840000
_cell_angle_alpha   65.35440104
_cell_angle_beta   65.35440102
_cell_angle_gamma   65.35439932
_symmetry_Int_Tables_number   1
_chemical_formula_structural   CuH3(C5O2)2
_chemical_formula_sum   'Cu6 H18 C60 O24'
_cell_volume   4150.92499688
_cell_formula_units_Z   6
loop_
 _symmetry_equiv_pos_site_id
 _symmetry_equiv_pos_as_xyz
  1  'x, y, z'
loop_
 _atom_site_label
 _atom_site_fract_x
 _atom_site_fract_y
 _atom_site_fract_z
 _atom_site_charge
 Cu 0.57302 0.00388 0.00388   0.898603
 Cu 0.00388 0.57302 0.00388   0.898603
 Cu 0.00388 0.00388 0.57302   0.898603
 Cu 0.99612 0.42698 0.99612   0.898604
 Cu 0.42698 0.99612 0.99612   0.898603
 Cu 0.99612 0.99612 0.42698   0.898603
 H 0.5064 0.721 0.0202   0.125379
 H 0.0202 0.5064 0.721   0.125379
 H 0.721 0.0202 0.5064   0.125379
 H 0.279 0.4936 0.9798   0.125379
 H 0.4936 0.9798 0.279   0.125379
 H 0.9798 0.279 0.4936   0.125379
 H 0.4936 0.279 0.9798   0.125379
 H 0.9798 0.4936 0.279   0.125379
 H 0.279 0.9798 0.4936   0.125379
 H 0.721 0.5064 0.0202   0.125379
 H 0.5064 0.0202 0.721   0.125379
 H 0.0202 0.721 0.5064   0.125379
 H 0.7305 0.7305 0.0278   0.116171
 H 0.0278 0.7305 0.7305   0.116171
 H 0.7305 0.0278 0.7305   0.11617
 H 0.2695 0.2695 0.9722   0.116171
 H 0.2695 0.9722 0.2695   0.116171
 H 0.9722 0.2695 0.2695   0.116171
 C 0.61175 0.74055 0.02475   -0.13904
 C 0.56483 0.69393 0.02133   -0.04346
 C 0.56902 0.83642 0.02102   0.681883
 C 0.02475 0.61175 0.74055   -0.13904
 C 0.02133 0.56483 0.69393   -0.04346
 C 0.02102 0.56902 0.83642   0.681883
 C 0.74055 0.02475 0.61175   -0.13904
 C 0.69393 0.02133 0.56483   -0.04346
 C 0.83642 0.02102 0.56902   0.681883
 C 0.25945 0.38825 0.97525   -0.13904
 C 0.30607 0.43517 0.97867   -0.04346
 C 0.16358 0.43098 0.97898   0.681882
 C 0.38825 0.97525 0.25945   -0.13904
 C 0.43517 0.97867 0.30607   -0.04346
 C 0.43098 0.97898 0.16358   0.681882
 C 0.97525 0.25945 0.38825   -0.13904
 C 0.97867 0.30607 0.43517   -0.04346
 C 0.97898 0.16358 0.43098   0.681882
 C 0.38825 0.25945 0.97525   -0.13904
 C 0.43517 0.30607 0.97867   -0.043459
 C 0.43098 0.16358 0.97898   0.681883
 C 0.97525 0.38825 0.25945   -0.13904
 C 0.97867 0.43517 0.30607   -0.043459
 C 0.97898 0.43098 0.16358   0.681883
 C 0.25945 0.97525 0.38825   -0.13904
 C 0.30607 0.97867 0.43517   -0.043459
 C 0.16358 0.97898 0.43098   0.681883
 C 0.74055 0.61175 0.02475   -0.13904
 C 0.69393 0.56483 0.02133   -0.043459
 C 0.83642 0.56902 0.02102   0.681882
 C 0.61175 0.02475 0.74055   -0.13904
 C 0.56483 0.02133 0.69393   -0.043459
 C 0.56902 0.02102 0.83642   0.681882
 C 0.02475 0.74055 0.61175   -0.13904
 C 0.02133 0.69393 0.56483   -0.043459
 C 0.02102 0.83642 0.56902   0.681882
 C 0.5602 0.5602 0.0141   -0.065052
 C 0.5226 0.5226 0.0047   -0.03526
 C 0.69922 0.69922 0.02607   0.007691
 C 0.6064 0.6064 0.01965   0.068518
 C 0.0141 0.5602 0.5602   -0.065052
 C 0.0047 0.5226 0.5226   -0.035259
 C 0.02607 0.69922 0.69922   0.007691
 C 0.01965 0.6064 0.6064   0.068518
 C 0.5602 0.0141 0.5602   -0.065052
 C 0.5226 0.0047 0.5226   -0.035258
 C 0.69922 0.02607 0.69922   0.007691
 C 0.6064 0.01965 0.6064   0.068518
 C 0.4398 0.4398 0.9859   -0.065066
 C 0.4774 0.4774 0.9953   -0.035214
 C 0.30078 0.30078 0.97393   0.007691
 C 0.3936 0.3936 0.98035   0.068521
 C 0.4398 0.9859 0.4398   -0.065065
 C 0.4774 0.9953 0.4774   -0.035213
 C 0.30078 0.97393 0.30078   0.007691
 C 0.3936 0.98035 0.3936   0.068522
 C 0.9859 0.4398 0.4398   -0.065065
 C 0.9953 0.4774 0.4774   -0.035213
 C 0.97393 0.30078 0.30078   0.007691
 C 0.98035 0.3936 0.3936   0.068522
 O 0.61482 0.87616 0.02134   -0.555813
 O 0.49165 0.86961 0.01558   -0.564294
 O 0.02134 0.61482 0.87616   -0.555813
 O 0.01558 0.49165 0.86961   -0.564294
 O 0.87616 0.02134 0.61482   -0.555813
 O 0.86961 0.01558 0.49165   -0.564294
 O 0.12384 0.38518 0.97866   -0.555813
 O 0.13039 0.50835 0.98442   -0.564294
 O 0.38518 0.97866 0.12384   -0.555813
 O 0.50835 0.98442 0.13039   -0.564294
 O 0.97866 0.12384 0.38518   -0.555813
 O 0.98442 0.13039 0.50835   -0.564294
 O 0.38518 0.12384 0.97866   -0.555813
 O 0.50835 0.13039 0.98442   -0.564294
 O 0.97866 0.38518 0.12384   -0.555813
 O 0.98442 0.50835 0.13039   -0.564294
 O 0.12384 0.97866 0.38518   -0.555813
 O 0.13039 0.98442 0.50835   -0.564294
 O 0.87616 0.61482 0.02134   -0.555813
 O 0.86961 0.49165 0.01558   -0.564294
 O 0.61482 0.02134 0.87616   -0.555813
 O 0.49165 0.01558 0.86961   -0.564294
 O 0.02134 0.87616 0.61482   -0.555813
 O 0.01558 0.86961 0.49165   -0.564294
