{'_ref': 'TBD', '_srcid': 'CAKYAQ_clean', 'submitters': [{'name': 'Dalar Nazarian Jeff Camp and David Sholl', 'email': 'dalar@gatech.edu jcamp6@gatech.edu'}], '_method': 'VASP DFT with PBE;DDEC'}
data_LaH7C15O7
_symmetry_space_group_name_H-M   'P 1'
_cell_length_a   9.40400015
_cell_length_b   9.95700021
_cell_length_c   11.45900000
_cell_angle_alpha   93.38099719
_cell_angle_beta   97.71599710
_cell_angle_gamma   110.24200129
_symmetry_Int_Tables_number   1
_chemical_formula_structural   LaH7C15O7
_chemical_formula_sum   'La2 H14 C30 O14'
_cell_volume   991.154246717
_cell_formula_units_Z   2
loop_
 _symmetry_equiv_pos_site_id
 _symmetry_equiv_pos_as_xyz
  1  'x, y, z'
loop_
 _atom_site_label
 _atom_site_fract_x
 _atom_site_fract_y
 _atom_site_fract_z
 _atom_site_charge
 La 0.78447 0.54726 0.48193   2.136384
 La 0.21553 0.45274 0.51807   2.136383
 H 0.5827 0.1334 0.3334   0.132719
 H 0.3079 0.7173 0.2787   0.127859
 H 0.1856 0.0041 0.4657   0.115363
 H 0.6456 0.7186 0.1184   0.151271
 H 0.5596 0.6024 0.9241   0.094104
 H 0.2397 0.7848 0.8817   0.100293
 H 0.3335 0.9096 0.0721   0.137862
 H 0.4173 0.8666 0.6666   0.132719
 H 0.6921 0.2827 0.7213   0.127859
 H 0.8144 0.9959 0.5343   0.115362
 H 0.3544 0.2814 0.8816   0.151271
 H 0.4404 0.3976 0.0759   0.094103
 H 0.7603 0.2152 0.1183   0.100293
 H 0.6665 0.0904 0.9279   0.137862
 C 0.4283 0.2432 0.4688   0.766728
 C 0.3902 0.0924 0.4094   -0.139989
 C 0.492 0.0614 0.3431   -0.134081
 C 0.4553 0.9223 0.2926   0.257218
 C 0.3269 0.8114 0.31   -0.164516
 C 0.2238 0.8433 0.3768   -0.098349
 C 0.0804 0.7287 0.3962   0.741093
 C 0.2548 0.9827 0.424   -0.032005
 C 0.4956 0.8222 0.1123   0.288311
 C 0.5646 0.732 0.0707   -0.231105
 C 0.5106 0.66 0.9544   0.007298
 C 0.3861 0.6746 0.8857   -0.191258
 C 0.3222 0.5899 0.7663   0.683369
 C 0.3205 0.7707 0.929   0.012823
 C 0.3763 0.8456 0.0435   -0.265034
 C 0.5717 0.7568 0.5312   0.766728
 C 0.6098 0.9076 0.5906   -0.139989
 C 0.508 0.9386 0.6569   -0.13408
 C 0.5447 0.0777 0.7074   0.257218
 C 0.6731 0.1886 0.69   -0.164515
 C 0.7762 0.1567 0.6232   -0.098349
 C 0.9196 0.2713 0.6038   0.741093
 C 0.7452 0.0173 0.576   -0.032005
 C 0.5044 0.1778 0.8877   0.288312
 C 0.4354 0.268 0.9293   -0.231105
 C 0.4894 0.34 0.0456   0.007298
 C 0.6139 0.3254 0.1143   -0.191258
 C 0.6778 0.4101 0.2337   0.683369
 C 0.6795 0.2293 0.071   0.012824
 C 0.6237 0.1544 0.9565   -0.265033
 O 0.5564 0.3356 0.4657   -0.746436
 O 0.3244 0.2661 0.5185   -0.71835
 O 0.9593 0.7548 0.3843   -0.615202
 O 0.0836 0.6076 0.4243   -0.816597
 O 0.5585 0.8955 0.2256   -0.259541
 O 0.2121 0.6101 0.7024   -0.689516
 O 0.3788 0.4995 0.7321   -0.650717
 O 0.4436 0.6644 0.5343   -0.746436
 O 0.6756 0.7339 0.4815   -0.71835
 O 0.0407 0.2452 0.6157   -0.615202
 O 0.9164 0.3924 0.5757   -0.816598
 O 0.4415 0.1045 0.7744   -0.25954
 O 0.7879 0.3899 0.2976   -0.689517
 O 0.6212 0.5005 0.2679   -0.650717
