{'_ref': 'TBD', '_srcid': 'CAKYAQ_clean', 'submitters': [{'name': 'Dalar Nazarian Jeff Camp and David Sholl', 'email': 'dalar@gatech.edu jcamp6@gatech.edu'}], '_method': 'VASP DFT with PBE;DDEC'}
data_LaH9C15O8
_symmetry_space_group_name_H-M   'P 1'
_cell_length_a   9.49099968
_cell_length_b   10.05200004
_cell_length_c   11.34400000
_cell_angle_alpha   94.42899797
_cell_angle_beta   97.91399888
_cell_angle_gamma   111.38600173
_symmetry_Int_Tables_number   1
_chemical_formula_structural   LaH9C15O8
_chemical_formula_sum   'La2 H18 C30 O16'
_cell_volume   988.567222486
_cell_formula_units_Z   2
loop_
 _symmetry_equiv_pos_site_id
 _symmetry_equiv_pos_as_xyz
  1  'x, y, z'
loop_
 _atom_site_label
 _atom_site_fract_x
 _atom_site_fract_y
 _atom_site_fract_z
 _atom_site_charge
 La 0.21401 0.45409 0.01294   2.114006
 La 0.78599 0.54591 0.98706   2.114005
 H 0.8199 0.9967 0.0393   0.100721
 H 0.6888 0.2868 0.2112   0.126459
 H 0.4164 0.8638 0.1577   0.131408
 H 0.6542 0.0889 0.4254   0.130788
 H 0.7449 0.212 0.6147   0.090008
 H 0.4379 0.3943 0.5725   0.087246
 H 0.3522 0.285 0.3729   0.152066
 H 0.96 0.192 0.87   0.440832
 H 0.07 0.26 0.81   0.399829
 H 0.1801 0.0033 0.9607   0.10072
 H 0.3112 0.7132 0.7888   0.126459
 H 0.5836 0.1362 0.8423   0.131408
 H 0.3458 0.9111 0.5746   0.130787
 H 0.2551 0.788 0.3853   0.090008
 H 0.5621 0.6057 0.4275   0.087246
 H 0.6478 0.715 0.6271   0.152066
 H 0.04 0.808 0.13   0.440831
 H 0.93 0.74 0.19   0.399829
 C 0.5806 0.7586 0.032   0.775084
 C 0.6127 0.9078 0.0872   -0.135477
 C 0.748 0.0176 0.0772   -0.052989
 C 0.7774 0.1597 0.1238   -0.096434
 C 0.923 0.2758 0.106   0.706322
 C 0.6721 0.192 0.1829   -0.151737
 C 0.5429 0.0797 0.1981   0.249132
 C 0.5073 0.937 0.1493   -0.134104
 C 0.4951 0.1758 0.3786   0.284709
 C 0.6125 0.1533 0.4533   -0.265192
 C 0.6654 0.2261 0.5665   0.026353
 C 0.6046 0.32 0.6119   -0.189423
 C 0.6657 0.4021 0.7339   0.674436
 C 0.4845 0.3363 0.5407   0.007253
 C 0.4297 0.2685 0.4215   -0.240706
 C 0.4194 0.2414 0.968   0.775084
 C 0.3873 0.0922 0.9128   -0.135478
 C 0.252 0.9824 0.9228   -0.052989
 C 0.2226 0.8403 0.8762   -0.096434
 C 0.077 0.7242 0.894   0.706322
 C 0.3279 0.808 0.8171   -0.151737
 C 0.4571 0.9203 0.8019   0.249132
 C 0.4927 0.063 0.8507   -0.134103
 C 0.5049 0.8242 0.6214   0.28471
 C 0.3875 0.8467 0.5467   -0.26519
 C 0.3346 0.7739 0.4335   0.026353
 C 0.3954 0.68 0.3881   -0.189423
 C 0.3343 0.5979 0.2661   0.674437
 C 0.5155 0.6637 0.4593   0.007253
 C 0.5703 0.7315 0.5785   -0.240706
 O 0.447 0.6634 0.027   -0.774121
 O 0.6853 0.7389 0.9923   -0.696449
 O 0.0447 0.2519 0.1139   -0.62916
 O 0.9192 0.3966 0.0786   -0.769439
 O 0.4379 0.1077 0.2616   -0.260016
 O 0.7731 0.3794 0.7999   -0.671157
 O 0.6174 0.4945 0.7726   -0.66382
 O 0.0029 0.2784 0.8483   -0.766426
 O 0.553 0.3366 0.973   -0.774122
 O 0.3147 0.2611 0.0077   -0.69645
 O 0.9553 0.7481 0.8861   -0.62916
 O 0.0808 0.6034 0.9214   -0.76944
 O 0.5621 0.8923 0.7384   -0.260016
 O 0.2269 0.6206 0.2001   -0.671157
 O 0.3826 0.5055 0.2274   -0.66382
 O 0.9971 0.7216 0.1517   -0.766426
