{'_ref': 'TBD', '_srcid': 'CAKYAQ_clean', 'submitters': [{'name': 'Dalar Nazarian Jeff Camp and David Sholl', 'email': 'dalar@gatech.edu jcamp6@gatech.edu'}], '_method': 'VASP DFT with PBE;DDEC'}
data_AlH5C8O5
_symmetry_space_group_name_H-M   'P 1'
_cell_length_a   6.60850013
_cell_length_b   11.02159403
_cell_length_c   11.02160000
_cell_angle_alpha   98.30814598
_cell_angle_beta   107.44529717
_cell_angle_gamma   107.44541112
_symmetry_Int_Tables_number   1
_chemical_formula_structural   AlH5C8O5
_chemical_formula_sum   'Al2 H10 C16 O10'
_cell_volume   705.978662076
_cell_formula_units_Z   2
loop_
 _symmetry_equiv_pos_site_id
 _symmetry_equiv_pos_as_xyz
  1  'x, y, z'
loop_
 _atom_site_label
 _atom_site_fract_x
 _atom_site_fract_y
 _atom_site_fract_z
 _atom_site_charge
 Al 0.00934 0.5029 0.99946   1.846856
 Al 0.50944 0.50188 0.99994   1.847811
 H 0.3835 0.11572 0.98912   0.111149
 H 0.73396 0.4921 0.61332   0.109942
 H 0.62676 0.50736 0.386   0.111491
 H 0.28118 0.89028 0.0104   0.110424
 H 0.62988 0.89002 0.00984   0.110331
 H 0.27896 0.50818 0.3857   0.110702
 H 0.3841 0.49156 0.61328   0.108943
 H 0.73308 0.1164 0.98976   0.111974
 H 0.38326 0.63006 0.11878   0.477072
 H 0.63694 0.38888 0.86842   0.476904
 C 0.21898 0.06828 0.99448   -0.071602
 C 0.8537 0.49406 0.56458   -0.071773
 C 0.79208 0.50272 0.43334   -0.072228
 C 0.16062 0.93852 0.0075   -0.072403
 C 0.79618 0.93828 0.00736   -0.073335
 C 0.15688 0.50296 0.43332   -0.071094
 C 0.21784 0.49382 0.56446   -0.068781
 C 0.85478 0.06844 0.99472   -0.071618
 C 0.06766 0.13578 0.98844   -0.10133
 C 0.13788 0.27754 0.98464   0.722405
 C 0.0682 0.49018 0.63276   -0.104771
 C 0.13934 0.4898 0.77548   0.724879
 C 0.94236 0.50668 0.36514   -0.101548
 C 0.87338 0.5099 0.22314   0.722115
 C 0.94814 0.8707 0.01378   -0.102592
 C 0.87996 0.72808 0.01612   0.724615
 O 0.9961 0.3365 0.98472   -0.650097
 O 0.34098 0.49058 0.83438   -0.652222
 O 0.01626 0.51086 0.1647   -0.649935
 O 0.67836 0.66868 0.01522   -0.650669
 O 0.02266 0.66982 0.01422   -0.650732
 O 0.67178 0.50908 0.16486   -0.647837
 O 0.99764 0.49178 0.83394   -0.648151
 O 0.34054 0.3359 0.98694   -0.648454
 O 0.31582 0.56012 0.05442   -1.122628
 O 0.70372 0.45014 0.94084   -1.123812
