{'_ref': 'TBD', '_srcid': 'CAKYAQ_clean', 'submitters': [{'name': 'Dalar Nazarian Jeff Camp and David Sholl', 'email': 'dalar@gatech.edu jcamp6@gatech.edu'}], '_method': 'VASP DFT with PBE;DDEC'}
data_AlH5C8O5
_symmetry_space_group_name_H-M   'P 1'
_cell_length_a   6.62840000
_cell_length_b   12.18160000
_cell_length_c   17.12900000
_cell_angle_alpha   90.00000000
_cell_angle_beta   90.00000000
_cell_angle_gamma   90.00000000
_symmetry_Int_Tables_number   1
_chemical_formula_structural   AlH5C8O5
_chemical_formula_sum   'Al4 H20 C32 O20'
_cell_volume   1383.07283923
_cell_formula_units_Z   4
loop_
 _symmetry_equiv_pos_site_id
 _symmetry_equiv_pos_as_xyz
  1  'x, y, z'
loop_
 _atom_site_label
 _atom_site_fract_x
 _atom_site_fract_y
 _atom_site_fract_z
 _atom_site_charge
 Al 0.00815 0.99891 0.00184   1.844671
 Al 0.007 0.49631 0.50246   1.845247
 Al 0.50804 0.99628 0.0018   1.846501
 Al 0.50826 0.49995 0.50149   1.845063
 H 0.07928 0.171 0.20344   0.110928
 H 0.07955 0.27542 0.32573   0.111585
 H 0.92886 0.67006 0.29906   0.112877
 H 0.92868 0.77357 0.1761   0.110388
 H 0.57957 0.83025 0.79674   0.112322
 H 0.57972 0.72493 0.67486   0.109771
 H 0.4286 0.32652 0.70477   0.111895
 H 0.42877 0.22221 0.82731   0.111884
 H 0.93047 0.82929 0.79709   0.112405
 H 0.93071 0.72384 0.67514   0.110155
 H 0.07746 0.32704 0.70489   0.110552
 H 0.07745 0.22321 0.82734   0.111732
 H 0.43077 0.17175 0.20314   0.110969
 H 0.43037 0.27655 0.32534   0.112006
 H 0.57742 0.66955 0.29897   0.111917
 H 0.57802 0.77264 0.17617   0.109961
 H 0.26019 0.36979 0.51416   0.476514
 H 0.76047 0.62887 0.50215   0.47878
 H 0.26004 0.12543 0.01841   0.4771
 H 0.76007 0.86745 0.99965   0.478663
 C 0.9367 0.19502 0.22872   -0.072944
 C 0.93681 0.25417 0.29944   -0.071589
 C 0.0714 0.69256 0.27318   -0.075849
 C 0.07178 0.75098 0.20192   -0.071811
 C 0.4367 0.80673 0.77142   -0.073817
 C 0.43685 0.74719 0.70082   -0.07125
 C 0.57114 0.30225 0.72987   -0.07499
 C 0.57158 0.24361 0.80087   -0.072674
 C 0.07344 0.80614 0.77155   -0.074097
 C 0.07362 0.74645 0.70097   -0.072341
 C 0.9345 0.30253 0.72994   -0.071445
 C 0.93487 0.2442 0.8009   -0.072244
 C 0.5734 0.19548 0.22857   -0.073049
 C 0.57338 0.25488 0.29926   -0.072835
 C 0.43452 0.69225 0.27313   -0.073872
 C 0.43507 0.75039 0.20191   -0.07027
 C 0.75581 0.36276 0.40499   0.721171
 C 0.75578 0.10647 0.1141   0.724972
 C 0.75518 0.28738 0.33504   -0.100429
 C 0.75512 0.16757 0.19073   -0.102128
 C 0.25525 0.85941 0.09648   0.726737
 C 0.25366 0.60574 0.38857   0.721056
 C 0.2539 0.78301 0.16579   -0.10527
 C 0.25317 0.6651 0.31116   -0.097761
 C 0.25599 0.63482 0.59727   0.726644
 C 0.25546 0.89295 0.8871   0.72018
 C 0.25545 0.713 0.66547   -0.104472
 C 0.25497 0.83393 0.80956   -0.098303
 C 0.75505 0.13439 0.90602   0.720225
 C 0.75373 0.38894 0.61417   0.724221
 C 0.75367 0.21089 0.83658   -0.100926
 C 0.75312 0.32891 0.69136   -0.101578
 O 0.92756 0.08189 0.08295   -0.650953
 O 0.92799 0.39387 0.43312   -0.651009
 O 0.0831 0.57835 0.41958   -0.646971
 O 0.08486 0.89497 0.07025   -0.64951
 O 0.42746 0.91654 0.91868   -0.649651
 O 0.42801 0.6031 0.56964   -0.653039
 O 0.58315 0.41688 0.58352   -0.647665
 O 0.58439 0.09914 0.9325   -0.64783
 O 0.08423 0.91904 0.91829   -0.648456
 O 0.08591 0.59858 0.57171   -0.648405
 O 0.92635 0.41246 0.58293   -0.654259
 O 0.92749 0.10242 0.93337   -0.650607
 O 0.585 0.079 0.08348   -0.650536
 O 0.58522 0.39797 0.43136   -0.648047
 O 0.42618 0.58233 0.41998   -0.652231
 O 0.42744 0.89141 0.06916   -0.653728
 O 0.75904 0.93824 0.000329999999998   -1.120555
 O 0.25915 0.43997 0.50752   -1.118968
 O 0.25908 0.05589 0.00901   -1.119821
 O 0.75932 0.55804 0.50121   -1.120909
