{'_ref': 'TBD', '_srcid': 'CAKYAQ_clean', 'submitters': [{'name': 'Dalar Nazarian Jeff Camp and David Sholl', 'email': 'dalar@gatech.edu jcamp6@gatech.edu'}], '_method': 'VASP DFT with PBE;DDEC'}
data_NdH3(C3O2)3
_symmetry_space_group_name_H-M   'P 1'
_cell_length_a   10.42780000
_cell_length_b   10.42780000
_cell_length_c   14.26020000
_cell_angle_alpha   90.00000000
_cell_angle_beta   90.00000000
_cell_angle_gamma   90.00000000
_symmetry_Int_Tables_number   1
_chemical_formula_structural   NdH3(C3O2)3
_chemical_formula_sum   'Nd4 H12 C36 O24'
_cell_volume   1550.6400709
_cell_formula_units_Z   4
loop_
 _symmetry_equiv_pos_site_id
 _symmetry_equiv_pos_as_xyz
  1  'x, y, z'
loop_
 _atom_site_label
 _atom_site_fract_x
 _atom_site_fract_y
 _atom_site_fract_z
 _atom_site_charge
 Nd 0.86886 0.13405 0.62473   2.3534
 Nd 0.13114 0.86595 0.12473   2.3534
 Nd 0.86595 0.86886 0.87473   2.353401
 Nd 0.13405 0.13114 0.37473   2.353401
 H 0.994 0.8778 0.5002   0.065368
 H 0.0827 0.5474 0.3781   0.107857
 H 0.9647 0.5513 0.6435   0.109391
 H 0.006 0.1222 0.0002   0.065368
 H 0.9173 0.4526 0.8781   0.107857
 H 0.0353 0.4487 0.1435   0.109391
 H 0.1222 0.994 0.7502   0.065368
 H 0.4526 0.0827 0.6281   0.107857
 H 0.4487 0.9647 0.8935   0.109391
 H 0.8778 0.006 0.2502   0.065368
 H 0.5474 0.9173 0.1281   0.107857
 H 0.5513 0.0353 0.3935   0.109391
 C 0.9439 0.8001 0.6755   0.782117
 C 0.9785 0.7292 0.5887   -0.182559
 C 0.0034 0.7893 0.5037   0.050842
 C 0.0407 0.7255 0.4259   -0.192465
 C 0.0531 0.5926 0.43   0.052054
 C 0.0216 0.5285 0.5106   -0.201675
 C 0.9852 0.5958 0.589   0.043444
 C 0.072 0.7958 0.3371   0.785512
 C 0.0284 0.3791 0.5131   0.833407
 C 0.0561 0.1999 0.1755   0.782117
 C 0.0215 0.2708 0.0887   -0.182559
 C 0.9966 0.2107 0.0037   0.050842
 C 0.9593 0.2745 0.9259   -0.192465
 C 0.9469 0.4074 0.93   0.052054
 C 0.9784 0.4715 0.0106   -0.201675
 C 0.0148 0.4042 0.089   0.043444
 C 0.928 0.2042 0.8371   0.785512
 C 0.9716 0.6209 0.0131   0.833407
 C 0.1999 0.9439 0.9255   0.782117
 C 0.2708 0.9785 0.8387   -0.182558
 C 0.2107 0.0034 0.7537   0.050841
 C 0.2745 0.0407 0.6759   -0.192465
 C 0.4074 0.0531 0.68   0.052053
 C 0.4715 0.0216 0.7606   -0.201675
 C 0.4042 0.9852 0.839   0.043444
 C 0.2042 0.072 0.5871   0.785512
 C 0.6209 0.0284 0.7631   0.833407
 C 0.8001 0.0561 0.4255   0.782117
 C 0.7292 0.0215 0.3387   -0.182558
 C 0.7893 0.9966 0.2537   0.050841
 C 0.7255 0.9593 0.1759   -0.192465
 C 0.5926 0.9469 0.18   0.052053
 C 0.5285 0.9784 0.2606   -0.201675
 C 0.5958 0.0148 0.339   0.043444
 C 0.7958 0.928 0.0871   0.785512
 C 0.3791 0.9716 0.2631   0.833407
 O 0.8986 0.9094 0.6726   -0.81219
 O 0.9598 0.7415 0.7521   -0.722398
 O 0.0757 0.9175 0.3371   -0.838487
 O 0.0951 0.732 0.2643   -0.700414
 O 0.0886 0.3268 0.4494   -0.767923
 O 0.972 0.327 0.5792   -0.76528
 O 0.1014 0.0906 0.1726   -0.81219
 O 0.0402 0.2585 0.2521   -0.722398
 O 0.9243 0.0825 0.8371   -0.838487
 O 0.9049 0.268 0.7643   -0.700414
 O 0.9114 0.6732 0.9494   -0.767923
 O 0.028 0.673 0.0792   -0.76528
 O 0.0906 0.8986 0.9226   -0.81219
 O 0.2585 0.9598 0.0021   -0.722398
 O 0.0825 0.0757 0.5871   -0.838487
 O 0.268 0.0951 0.5143   -0.700414
 O 0.6732 0.0886 0.6994   -0.767923
 O 0.673 0.972 0.8292   -0.76528
 O 0.9094 0.1014 0.4226   -0.81219
 O 0.7415 0.0402 0.5021   -0.722398
 O 0.9175 0.9243 0.0871   -0.838487
 O 0.732 0.9049 0.0143   -0.700414
 O 0.3268 0.9114 0.1994   -0.767923
 O 0.327 0.028 0.3292   -0.76528
