{'_ref': 'TBD', '_srcid': 'CAKYAQ_clean', 'submitters': [{'name': 'Dalar Nazarian Jeff Camp and David Sholl', 'email': 'dalar@gatech.edu jcamp6@gatech.edu'}], '_method': 'VASP DFT with PBE;DDEC'}
data_FeH4C8O5
_symmetry_space_group_name_H-M   'P 1'
_cell_length_a   6.88899984
_cell_length_b   11.10929977
_cell_length_c   11.10930000
_cell_angle_alpha   60.39599768
_cell_angle_beta   73.65399847
_cell_angle_gamma   73.65369746
_symmetry_Int_Tables_number   1
_chemical_formula_structural   FeH4C8O5
_chemical_formula_sum   'Fe2 H8 C16 O10'
_cell_volume   698.939550553
_cell_formula_units_Z   2
loop_
 _symmetry_equiv_pos_site_id
 _symmetry_equiv_pos_as_xyz
  1  'x, y, z'
loop_
 _atom_site_label
 _atom_site_fract_x
 _atom_site_fract_y
 _atom_site_fract_z
 _atom_site_charge
 Fe 0.0 0.0 0.0   1.339616
 Fe 0.5 0.0 0.0   1.339661
 H 0.7814 0.4009 0.9583   0.119135
 H 0.3438 0.3912 0.017   0.113852
 H 0.7186 0.0417 0.5991   0.119136
 H 0.1562 0.983 0.6088   0.11385
 H 0.2186 0.5991 0.0417   0.119135
 H 0.6562 0.6088 0.983   0.113853
 H 0.2814 0.9583 0.4009   0.119137
 H 0.8438 0.017 0.3912   0.11385
 C 0.073 0.3788 0.9856   -0.099272
 C 0.8725 0.4423 0.9757   -0.059794
 C 0.2005 0.4365 0.0099   -0.058346
 C 0.1513 0.2488 0.9702   0.696246
 C 0.427 0.0144 0.6212   -0.099265
 C 0.6275 0.0243 0.5577   -0.059801
 C 0.2995 0.9901 0.5635   -0.058347
 C 0.3487 0.0298 0.7512   0.696243
 C 0.927 0.6212 0.0144   -0.099268
 C 0.1275 0.5577 0.0243   -0.059809
 C 0.7995 0.5635 0.9901   -0.058362
 C 0.8487 0.7512 0.0298   0.696247
 C 0.573 0.9856 0.3788   -0.099261
 C 0.3725 0.9757 0.4423   -0.059816
 C 0.7005 0.0099 0.4365   -0.058361
 C 0.6513 0.9702 0.2488   0.696244
 O 0.0328 0.1948 0.9486   -0.550308
 O 0.3375 0.1904 0.9786   -0.547477
 O 0.4672 0.0514 0.8052   -0.550311
 O 0.1625 0.0214 0.8096   -0.547469
 O 0.9672 0.8052 0.0514   -0.550308
 O 0.6625 0.8096 0.0214   -0.547477
 O 0.5328 0.9486 0.1948   -0.550311
 O 0.8375 0.9786 0.1904   -0.547469
 O 0.25 0.9092 0.0908   -0.567687
 O 0.75 0.0908 0.9092   -0.567687
