{'_ref': 'TBD', '_srcid': 'CAKYAQ_clean', 'submitters': [{'name': 'Dalar Nazarian Jeff Camp and David Sholl', 'email': 'dalar@gatech.edu jcamp6@gatech.edu'}], '_method': 'VASP DFT with PBE;DDEC'}
data_CdH36C48N12ClO4
_symmetry_space_group_name_H-M   'P 1'
_cell_length_a   15.86380000
_cell_length_b   15.86380000
_cell_length_c   21.56800000
_cell_angle_alpha   90.00000000
_cell_angle_beta   90.00000000
_cell_angle_gamma   90.00000000
_symmetry_Int_Tables_number   1
_chemical_formula_structural   CdH36C48N12ClO4
_chemical_formula_sum   'Cd4 H144 C192 N48 Cl4 O16'
_cell_volume   5427.80612469
_cell_formula_units_Z   4
loop_
 _symmetry_equiv_pos_site_id
 _symmetry_equiv_pos_as_xyz
  1  'x, y, z'
loop_
 _atom_site_label
 _atom_site_fract_x
 _atom_site_fract_y
 _atom_site_fract_z
 _atom_site_charge
 Cd 0.05916 0.94084 0.75   0.783871
 Cd 0.94084 0.05916 0.25   0.783871
 Cd 0.55916 0.55916 0.5   0.783871
 Cd 0.44084 0.44084 0.0   0.783871
 H 0.9384 0.8427 0.8418   0.04691
 H 0.8444 0.7356 0.8573   0.117231
 H 0.8997 0.6504 0.6873   0.123123
 H 0.994 0.7614 0.6762   0.064335
 H 0.7211 0.676 0.8437   0.080875
 H 0.6195 0.4557 0.7896   0.102615
 H 0.7352 0.4322 0.7261   0.096006
 H 0.8345 0.5361 0.7112   0.099747
 H 0.5092 0.7048 0.0406   0.094301
 H 0.4154 0.7999 0.0852   0.092402
 H 0.2982 0.8512 0.0307   0.080141
 H 0.359 0.6954 0.8887   0.119179
 H 0.2383 0.713 0.8549   0.123141
 H 0.1395 0.7691 0.7911   0.071927
 H 0.1125 0.9641 0.9002   0.077128
 H 0.2137 0.915 0.9675   0.130825
 H 0.5276 0.7567 0.8551   0.327998
 H 0.5989 0.761 0.8997   0.306618
 H 0.0616 0.1573 0.3418   0.04691
 H 0.1556 0.2644 0.3573   0.117231
 H 0.1003 0.3496 0.1873   0.123123
 H 0.006 0.2386 0.1762   0.064335
 H 0.2789 0.324 0.3437   0.080875
 H 0.3805 0.5443 0.2896   0.102615
 H 0.2648 0.5678 0.2261   0.096006
 H 0.1655 0.4639 0.2112   0.099747
 H 0.4908 0.2952 0.5406   0.094301
 H 0.5846 0.2001 0.5852   0.092402
 H 0.7018 0.1488 0.5307   0.080141
 H 0.641 0.3046 0.3887   0.119179
 H 0.7617 0.287 0.3549   0.123141
 H 0.8605 0.2309 0.2911   0.071927
 H 0.8875 0.0359 0.4002   0.077128
 H 0.7863 0.085 0.4675   0.130825
 H 0.4724 0.2433 0.3551   0.327998
 H 0.4011 0.239 0.3997   0.306618
 H 0.6573 0.4384 0.5918   0.046909
 H 0.7644 0.3444 0.6073   0.117234
 H 0.8496 0.3997 0.4373   0.123123
 H 0.7386 0.494 0.4262   0.064335
 H 0.824 0.2211 0.5937   0.080875
 H 0.0443 0.1195 0.5396   0.102615
 H 0.0678 0.2352 0.4761   0.096008
 H 0.9639 0.3345 0.4612   0.099747
 H 0.7952 0.0092 0.7906   0.094301
 H 0.7001 0.9154 0.8352   0.092402
 H 0.6488 0.7982 0.7807   0.080141
 H 0.8046 0.859 0.6387   0.119179
 H 0.787 0.7383 0.6049   0.123141
 H 0.7309 0.6395 0.5411   0.071927
 H 0.5359 0.6125 0.6502   0.077128
 H 0.585 0.7137 0.7175   0.130825
 H 0.7433 0.0276 0.6051   0.327997
 H 0.739 0.0989 0.6497   0.306618
 H 0.3427 0.5616 0.0918   0.046909
 H 0.2356 0.6556 0.1073   0.117234
 H 0.1504 0.6003 0.9373   0.123123
 H 0.2614 0.506 0.9262   0.064335
 H 0.176 0.7789 0.0937   0.080875
 H 0.9557 0.8805 0.0396   0.102615
 H 0.9322 0.7648 0.9761   0.096008
 H 0.0361 0.6655 0.9612   0.099747
 H 0.2048 0.9908 0.2906   0.094301
 H 0.2999 0.0846 0.3352   0.092402
 H 0.3512 0.2018 0.2807   0.080141
 H 0.1954 0.141 0.1387   0.119179
 H 0.213 0.2617 0.1049   0.123141
 H 0.2691 0.3605 0.0411   0.071927
 H 0.4641 0.3875 0.1502   0.077128
 H 0.415 0.2863 0.2175   0.130825
 H 0.2567 0.9724 0.1051   0.327997
 H 0.261 0.9011 0.1497   0.306618
 H 0.5616 0.3427 0.9082   0.046909
 H 0.6556 0.2356 0.8927   0.117232
 H 0.6003 0.1504 0.0627   0.123123
 H 0.506 0.2614 0.0738   0.064335
 H 0.7789 0.176 0.9063   0.080875
 H 0.8805 0.9557 0.9604   0.102615
 H 0.7648 0.9322 0.0239   0.096009
 H 0.6655 0.0361 0.0388   0.099747
 H 0.9908 0.2048 0.7094   0.094302
 H 0.0846 0.2999 0.6648   0.092402
 H 0.2018 0.3512 0.7193   0.080141
 H 0.141 0.1954 0.8613   0.119179
 H 0.2617 0.213 0.8951   0.123141
 H 0.3605 0.2691 0.9589   0.071927
 H 0.3875 0.4641 0.8498   0.077128
 H 0.2863 0.415 0.7825   0.130825
 H 0.9724 0.2567 0.8949   0.327998
 H 0.9011 0.261 0.8503   0.30662
 H 0.4384 0.6573 0.4082   0.046909
 H 0.3444 0.7644 0.3927   0.117232
 H 0.3997 0.8496 0.5627   0.123123
 H 0.494 0.7386 0.5738   0.064335
 H 0.2211 0.824 0.4063   0.080875
 H 0.1195 0.0443 0.4604   0.102615
 H 0.2352 0.0678 0.5239   0.096009
 H 0.3345 0.9639 0.5388   0.099747
 H 0.0092 0.7952 0.2094   0.094302
 H 0.9154 0.7001 0.1648   0.092402
 H 0.7982 0.6488 0.2193   0.080141
 H 0.859 0.8046 0.3613   0.119179
 H 0.7383 0.787 0.3951   0.123141
 H 0.6395 0.7309 0.4589   0.071927
 H 0.6125 0.5359 0.3498   0.077128
 H 0.7137 0.585 0.2825   0.130825
 H 0.0276 0.7433 0.3949   0.327998
 H 0.0989 0.739 0.3503   0.30662
 H 0.8427 0.9384 0.1582   0.046909
 H 0.7356 0.8444 0.1427   0.117234
 H 0.6504 0.8997 0.3127   0.123123
 H 0.7614 0.994 0.3238   0.064335
 H 0.676 0.7211 0.1563   0.080875
 H 0.4557 0.6195 0.2104   0.102615
 H 0.4322 0.7352 0.2739   0.096011
 H 0.5361 0.8345 0.2888   0.099747
 H 0.7048 0.5092 0.9594   0.094302
 H 0.7999 0.4154 0.9148   0.092401
 H 0.8512 0.2982 0.9693   0.080141
 H 0.6954 0.359 0.1113   0.119179
 H 0.713 0.2383 0.1451   0.123141
 H 0.7691 0.1395 0.2089   0.071927
 H 0.9641 0.1125 0.0998   0.077128
 H 0.915 0.2137 0.0325   0.130825
 H 0.7567 0.5276 0.1449   0.327997
 H 0.761 0.5989 0.1003   0.30662
 H 0.1573 0.0616 0.6582   0.046909
 H 0.2644 0.1556 0.6427   0.117234
 H 0.3496 0.1003 0.8127   0.123123
 H 0.2386 0.006 0.8238   0.064335
 H 0.324 0.2789 0.6563   0.080875
 H 0.5443 0.3805 0.7104   0.102615
 H 0.5678 0.2648 0.7739   0.096011
 H 0.4639 0.1655 0.7888   0.099747
 H 0.2952 0.4908 0.4594   0.094302
 H 0.2001 0.5846 0.4148   0.092401
 H 0.1488 0.7018 0.4693   0.080141
 H 0.3046 0.641 0.6113   0.119179
 H 0.287 0.7617 0.6451   0.123141
 H 0.2309 0.8605 0.7089   0.071927
 H 0.0359 0.8875 0.5998   0.077128
 H 0.085 0.7863 0.5325   0.130825
 H 0.2433 0.4724 0.6449   0.327997
 H 0.239 0.4011 0.6003   0.30662
 C 0.9306 0.8031 0.8093   0.177237
 C 0.8733 0.7398 0.8188   -0.231895
 C 0.8578 0.6814 0.7717   0.101347
 C 0.9054 0.6902 0.72   -0.206437
 C 0.9629 0.7564 0.7136   0.15461
 C 0.7919 0.6161 0.7787   0.012649
 C 0.7238 0.6265 0.8191   -0.126272
 C 0.6608 0.5677 0.8245   -0.005826
 C 0.6637 0.4959 0.7877   -0.094632
 C 0.731 0.4835 0.7486   -0.089558
 C 0.7918 0.5435 0.7416   -0.117508
 C 0.5915 0.5749 0.8674   0.251209
 C 0.4951 0.6273 0.931   0.234318
 C 0.441 0.6895 0.9617   -0.035736
 C 0.4599 0.7218 0.019   -0.120214
 C 0.405 0.7799 0.0444   -0.089364
 C 0.3342 0.8104 0.0122   -0.092213
 C 0.3183 0.7805 0.954   0.027421
 C 0.3711 0.7181 0.9285   -0.141218
 C 0.2464 0.8099 0.9161   0.080721
 C 0.2162 0.7672 0.8642   -0.196646
 C 0.1564 0.8003 0.8266   0.140491
 C 0.1412 0.9135 0.8899   0.152146
 C 0.2018 0.8849 0.9304   -0.20247
 C 0.0694 0.1969 0.3093   0.177237
 C 0.1267 0.2602 0.3188   -0.231895
 C 0.1422 0.3186 0.2717   0.101347
 C 0.0946 0.3098 0.22   -0.206437
 C 0.0371 0.2436 0.2136   0.15461
 C 0.2081 0.3839 0.2787   0.012649
 C 0.2762 0.3735 0.3191   -0.126272
 C 0.3392 0.4323 0.3245   -0.005826
 C 0.3363 0.5041 0.2877   -0.094632
 C 0.269 0.5165 0.2486   -0.089558
 C 0.2082 0.4565 0.2416   -0.117508
 C 0.4085 0.4251 0.3674   0.251209
 C 0.5049 0.3727 0.431   0.234318
 C 0.559 0.3105 0.4617   -0.035736
 C 0.5401 0.2782 0.519   -0.120214
 C 0.595 0.2201 0.5444   -0.089364
 C 0.6658 0.1896 0.5122   -0.092213
 C 0.6817 0.2195 0.454   0.027421
 C 0.6289 0.2819 0.4285   -0.141218
 C 0.7536 0.1901 0.4161   0.080721
 C 0.7838 0.2328 0.3642   -0.196646
 C 0.8436 0.1997 0.3266   0.140491
 C 0.8588 0.0865 0.3899   0.152146
 C 0.7982 0.1151 0.4304   -0.20247
 C 0.6969 0.4306 0.5593   0.177238
 C 0.7602 0.3733 0.5688   -0.231896
 C 0.8186 0.3578 0.5217   0.101348
 C 0.8098 0.4054 0.47   -0.206437
 C 0.7436 0.4629 0.4636   0.15461
 C 0.8839 0.2919 0.5287   0.012649
 C 0.8735 0.2238 0.5691   -0.126272
 C 0.9323 0.1608 0.5745   -0.005826
 C 0.0041 0.1637 0.5377   -0.094632
 C 0.0165 0.231 0.4986   -0.089559
 C 0.9565 0.2918 0.4916   -0.117508
 C 0.9251 0.0915 0.6174   0.251209
 C 0.8727 0.9951 0.681   0.234318
 C 0.8105 0.941 0.7117   -0.035736
 C 0.7782 0.9599 0.769   -0.120214
 C 0.7201 0.905 0.7944   -0.089364
 C 0.6896 0.8342 0.7622   -0.092213
 C 0.7195 0.8183 0.704   0.027421
 C 0.7819 0.8711 0.6785   -0.141218
 C 0.6901 0.7464 0.6661   0.080721
 C 0.7328 0.7162 0.6142   -0.196646
 C 0.6997 0.6564 0.5766   0.140491
 C 0.5865 0.6412 0.6399   0.152146
 C 0.6151 0.7018 0.6804   -0.202469
 C 0.3031 0.5694 0.0593   0.177238
 C 0.2398 0.6267 0.0688   -0.231896
 C 0.1814 0.6422 0.0217   0.101348
 C 0.1902 0.5946 0.97   -0.206437
 C 0.2564 0.5371 0.9636   0.15461
 C 0.1161 0.7081 0.0287   0.012649
 C 0.1265 0.7762 0.0691   -0.126272
 C 0.0677 0.8392 0.0745   -0.005826
 C 0.9959 0.8363 0.0377   -0.094632
 C 0.9835 0.769 0.9986   -0.089559
 C 0.0435 0.7082 0.9916   -0.117508
 C 0.0749 0.9085 0.1174   0.251209
 C 0.1273 0.0049 0.181   0.234318
 C 0.1895 0.059 0.2117   -0.035736
 C 0.2218 0.0401 0.269   -0.120214
 C 0.2799 0.095 0.2944   -0.089364
 C 0.3104 0.1658 0.2622   -0.092213
 C 0.2805 0.1817 0.204   0.027421
 C 0.2181 0.1289 0.1785   -0.141218
 C 0.3099 0.2536 0.1661   0.080721
 C 0.2672 0.2838 0.1142   -0.196646
 C 0.3003 0.3436 0.0766   0.140491
 C 0.4135 0.3588 0.1399   0.152146
 C 0.3849 0.2982 0.1804   -0.202469
 C 0.5694 0.3031 0.9407   0.177238
 C 0.6267 0.2398 0.9312   -0.231895
 C 0.6422 0.1814 0.9783   0.101347
 C 0.5946 0.1902 0.03   -0.206437
 C 0.5371 0.2564 0.0364   0.15461
 C 0.7081 0.1161 0.9713   0.012649
 C 0.7762 0.1265 0.9309   -0.126272
 C 0.8392 0.0677 0.9255   -0.005826
 C 0.8363 0.9959 0.9623   -0.094632
 C 0.769 0.9835 0.0014   -0.089559
 C 0.7082 0.0435 0.0084   -0.117508
 C 0.9085 0.0749 0.8826   0.251209
 C 0.0049 0.1273 0.819   0.234318
 C 0.059 0.1895 0.7883   -0.035736
 C 0.0401 0.2218 0.731   -0.120215
 C 0.095 0.2799 0.7056   -0.089364
 C 0.1658 0.3104 0.7378   -0.092213
 C 0.1817 0.2805 0.796   0.027421
 C 0.1289 0.2181 0.8215   -0.141218
 C 0.2536 0.3099 0.8339   0.080721
 C 0.2838 0.2672 0.8858   -0.196646
 C 0.3436 0.3003 0.9234   0.140491
 C 0.3588 0.4135 0.8601   0.152146
 C 0.2982 0.3849 0.8196   -0.20247
 C 0.4306 0.6969 0.4407   0.177238
 C 0.3733 0.7602 0.4312   -0.231895
 C 0.3578 0.8186 0.4783   0.101347
 C 0.4054 0.8098 0.53   -0.206437
 C 0.4629 0.7436 0.5364   0.15461
 C 0.2919 0.8839 0.4713   0.012649
 C 0.2238 0.8735 0.4309   -0.126272
 C 0.1608 0.9323 0.4255   -0.005826
 C 0.1637 0.0041 0.4623   -0.094632
 C 0.231 0.0165 0.5014   -0.089559
 C 0.2918 0.9565 0.5084   -0.117508
 C 0.0915 0.9251 0.3826   0.251209
 C 0.9951 0.8727 0.319   0.234318
 C 0.941 0.8105 0.2883   -0.035736
 C 0.9599 0.7782 0.231   -0.120215
 C 0.905 0.7201 0.2056   -0.089364
 C 0.8342 0.6896 0.2378   -0.092213
 C 0.8183 0.7195 0.296   0.027421
 C 0.8711 0.7819 0.3215   -0.141218
 C 0.7464 0.6901 0.3339   0.080721
 C 0.7162 0.7328 0.3858   -0.196646
 C 0.6564 0.6997 0.4234   0.140491
 C 0.6412 0.5865 0.3601   0.152146
 C 0.7018 0.6151 0.3196   -0.20247
 C 0.8031 0.9306 0.1907   0.177238
 C 0.7398 0.8733 0.1812   -0.231896
 C 0.6814 0.8578 0.2283   0.101348
 C 0.6902 0.9054 0.28   -0.206437
 C 0.7564 0.9629 0.2864   0.15461
 C 0.6161 0.7919 0.2213   0.012649
 C 0.6265 0.7238 0.1809   -0.126272
 C 0.5677 0.6608 0.1755   -0.005827
 C 0.4959 0.6637 0.2123   -0.094632
 C 0.4835 0.731 0.2514   -0.08956
 C 0.5435 0.7918 0.2584   -0.117508
 C 0.5749 0.5915 0.1326   0.251209
 C 0.6273 0.4951 0.069   0.234318
 C 0.6895 0.441 0.0383   -0.035736
 C 0.7218 0.4599 0.981   -0.120215
 C 0.7799 0.405 0.9556   -0.089364
 C 0.8104 0.3342 0.9878   -0.092213
 C 0.7805 0.3183 0.046   0.027421
 C 0.7181 0.3711 0.0715   -0.141218
 C 0.8099 0.2464 0.0839   0.080721
 C 0.7672 0.2162 0.1358   -0.196646
 C 0.8003 0.1564 0.1734   0.140491
 C 0.9135 0.1412 0.1101   0.152146
 C 0.8849 0.2018 0.0696   -0.202469
 C 0.1969 0.0694 0.6907   0.177238
 C 0.2602 0.1267 0.6812   -0.231896
 C 0.3186 0.1422 0.7283   0.101348
 C 0.3098 0.0946 0.78   -0.206437
 C 0.2436 0.0371 0.7864   0.15461
 C 0.3839 0.2081 0.7213   0.012649
 C 0.3735 0.2762 0.6809   -0.126272
 C 0.4323 0.3392 0.6755   -0.005827
 C 0.5041 0.3363 0.7123   -0.094632
 C 0.5165 0.269 0.7514   -0.08956
 C 0.4565 0.2082 0.7584   -0.117508
 C 0.4251 0.4085 0.6326   0.251209
 C 0.3727 0.5049 0.569   0.234318
 C 0.3105 0.559 0.5383   -0.035736
 C 0.2782 0.5401 0.481   -0.120215
 C 0.2201 0.595 0.4556   -0.089364
 C 0.1896 0.6658 0.4878   -0.092213
 C 0.2195 0.6817 0.546   0.027421
 C 0.2819 0.6289 0.5715   -0.141218
 C 0.1901 0.7536 0.5839   0.080721
 C 0.2328 0.7838 0.6358   -0.196646
 C 0.1997 0.8436 0.6734   0.140491
 C 0.0865 0.8588 0.6101   0.152146
 C 0.1151 0.7982 0.5696   -0.202469
 N 0.9755 0.8133 0.7588   -0.360586
 N 0.4938 0.5443 0.9336   -0.22282
 N 0.5539 0.5122 0.8948   -0.287193
 N 0.5564 0.6485 0.8896   0.077826
 N 0.5758 0.7309 0.8681   -0.553896
 N 0.1201 0.8749 0.8372   -0.356792
 N 0.0245 0.1867 0.2588   -0.360586
 N 0.5062 0.4557 0.4336   -0.22282
 N 0.4461 0.4878 0.3948   -0.287193
 N 0.4436 0.3515 0.3896   0.077826
 N 0.4242 0.2691 0.3681   -0.553896
 N 0.8799 0.1251 0.3372   -0.356792
 N 0.6867 0.4755 0.5088   -0.360586
 N 0.9557 0.9938 0.6836   -0.22282
 N 0.9878 0.0539 0.6448   -0.287193
 N 0.8515 0.0564 0.6396   0.077826
 N 0.7691 0.0758 0.6181   -0.553895
 N 0.6251 0.6201 0.5872   -0.356791
 N 0.3133 0.5245 0.0088   -0.360586
 N 0.0443 0.0062 0.1836   -0.22282
 N 0.0122 0.9461 0.1448   -0.287193
 N 0.1485 0.9436 0.1396   0.077826
 N 0.2309 0.9242 0.1181   -0.553895
 N 0.3749 0.3799 0.0872   -0.356791
 N 0.5245 0.3133 0.9912   -0.360586
 N 0.0062 0.0443 0.8164   -0.222819
 N 0.9461 0.0122 0.8552   -0.287193
 N 0.9436 0.1485 0.8604   0.077826
 N 0.9242 0.2309 0.8819   -0.553896
 N 0.3799 0.3749 0.9128   -0.356792
 N 0.4755 0.6867 0.4912   -0.360586
 N 0.9938 0.9557 0.3164   -0.222819
 N 0.0539 0.9878 0.3552   -0.287193
 N 0.0564 0.8515 0.3604   0.077826
 N 0.0758 0.7691 0.3819   -0.553896
 N 0.6201 0.6251 0.4128   -0.356792
 N 0.8133 0.9755 0.2412   -0.360586
 N 0.5443 0.4938 0.0664   -0.222819
 N 0.5122 0.5539 0.1052   -0.287193
 N 0.6485 0.5564 0.1104   0.077826
 N 0.7309 0.5758 0.1319   -0.553896
 N 0.8749 0.1201 0.1628   -0.356791
 N 0.1867 0.0245 0.7412   -0.360586
 N 0.4557 0.5062 0.5664   -0.222819
 N 0.4878 0.4461 0.6052   -0.287193
 N 0.3515 0.4436 0.6104   0.077826
 N 0.2691 0.4242 0.6319   -0.553896
 N 0.1251 0.8799 0.6628   -0.356791
 Cl 0.6237 0.3763 0.25   2.003648
 Cl 0.3763 0.6237 0.75   2.003648
 Cl 0.1237 0.1237 0.0   2.003648
 Cl 0.8763 0.8763 0.5   2.003648
 O 0.6193 0.4335 0.211   -0.716635
 O 0.6143 0.3082 0.2224   -0.710328
 O 0.5665 0.3807 0.289   -0.716635
 O 0.6918 0.3857 0.2776   -0.710328
 O 0.3807 0.5665 0.711   -0.716635
 O 0.3857 0.6918 0.7224   -0.710328
 O 0.4335 0.6193 0.789   -0.716635
 O 0.3082 0.6143 0.7776   -0.710328
 O 0.0665 0.1193 0.961   -0.716635
 O 0.1918 0.1143 0.9724   -0.710328
 O 0.1193 0.0665 0.039   -0.716635
 O 0.1143 0.1918 0.0276   -0.710328
 O 0.9335 0.8807 0.461   -0.716635
 O 0.8082 0.8857 0.4724   -0.710328
 O 0.8807 0.9335 0.539   -0.716635
 O 0.8857 0.8082 0.5276   -0.710328
