{'_ref': 'TBD', '_srcid': 'CAKYAQ_clean', 'submitters': [{'name': 'Dalar Nazarian Jeff Camp and David Sholl', 'email': 'dalar@gatech.edu jcamp6@gatech.edu'}], '_method': 'VASP DFT with PBE;DDEC'}
data_CdH36C48N12(ClO4)2
_symmetry_space_group_name_H-M   'P 1'
_cell_length_a   15.86320000
_cell_length_b   15.86320000
_cell_length_c   21.76000000
_cell_angle_alpha   90.00000000
_cell_angle_beta   90.00000000
_cell_angle_gamma   90.00000000
_symmetry_Int_Tables_number   1
_chemical_formula_structural   CdH36C48N12(ClO4)2
_chemical_formula_sum   'Cd4 H144 C192 N48 Cl8 O32'
_cell_volume   5475.71064586
_cell_formula_units_Z   4
loop_
 _symmetry_equiv_pos_site_id
 _symmetry_equiv_pos_as_xyz
  1  'x, y, z'
loop_
 _atom_site_label
 _atom_site_fract_x
 _atom_site_fract_y
 _atom_site_fract_z
 _atom_site_charge
 Cd 0.44184 0.55816 0.25   0.795477
 Cd 0.55816 0.44184 0.75   0.795477
 Cd 0.94184 0.94184 0.0   0.795477
 Cd 0.05816 0.05816 0.5   0.795477
 H 0.2646 0.4913 0.3226   0.059658
 H 0.1536 0.3972 0.3132   0.131209
 H 0.2376 0.3426 0.1429   0.144095
 H 0.3422 0.4405 0.1566   0.06049
 H 0.0385 0.3336 0.2879   0.105197
 H 0.9373 0.2297 0.2788   0.116947
 H 0.9557 0.1186 0.2092   0.10832
 H 0.176 0.2221 0.1545   0.096147
 H 0.2022 0.0051 0.9593   0.096015
 H 0.3025 0.9138 0.9157   0.117186
 H 0.3522 0.7992 0.9704   0.078565
 H 0.1981 0.8597 0.1118   0.113762
 H 0.4156 0.7145 0.0343   0.133558
 H 0.4631 0.6088 0.0984   0.067722
 H 0.2702 0.6407 0.2091   0.0767
 H 0.2135 0.7392 0.1453   0.120407
 H 0.2525 0.026 0.1502   0.331173
 H 0.2601 0.0842 0.0997   0.304247
 H 0.7354 0.5087 0.8226   0.059658
 H 0.8464 0.6028 0.8132   0.131209
 H 0.7624 0.6574 0.6429   0.144095
 H 0.6578 0.5595 0.6566   0.06049
 H 0.9615 0.6664 0.7879   0.105197
 H 0.0627 0.7703 0.7788   0.116947
 H 0.0443 0.8814 0.7092   0.10832
 H 0.824 0.7779 0.6545   0.096147
 H 0.7978 0.9949 0.4593   0.096015
 H 0.6975 0.0862 0.4157   0.117186
 H 0.6478 0.2008 0.4704   0.078565
 H 0.8019 0.1403 0.6118   0.113762
 H 0.5844 0.2855 0.5343   0.133558
 H 0.5369 0.3912 0.5984   0.067722
 H 0.7298 0.3593 0.7091   0.0767
 H 0.7865 0.2608 0.6453   0.120407
 H 0.7475 0.974 0.6502   0.331173
 H 0.7399 0.9158 0.5997   0.304247
 H 0.0087 0.7646 0.0726   0.059658
 H 0.1028 0.6536 0.0632   0.131209
 H 0.1574 0.7376 0.8929   0.144095
 H 0.0595 0.8422 0.9066   0.06049
 H 0.1664 0.5385 0.0379   0.105197
 H 0.2703 0.4373 0.0288   0.116946
 H 0.3814 0.4557 0.9592   0.10832
 H 0.2779 0.676 0.9045   0.096147
 H 0.4949 0.7022 0.7093   0.096015
 H 0.5862 0.8025 0.6657   0.117186
 H 0.7008 0.8522 0.7204   0.078565
 H 0.6403 0.6981 0.8618   0.113762
 H 0.7855 0.9156 0.7843   0.133558
 H 0.8912 0.9631 0.8484   0.067722
 H 0.8593 0.7702 0.9591   0.076701
 H 0.7608 0.7135 0.8953   0.120407
 H 0.474 0.7525 0.9002   0.331172
 H 0.4158 0.7601 0.8497   0.304247
 H 0.9913 0.2354 0.5726   0.059658
 H 0.8972 0.3464 0.5632   0.131209
 H 0.8426 0.2624 0.3929   0.144095
 H 0.9405 0.1578 0.4066   0.06049
 H 0.8336 0.4615 0.5379   0.105197
 H 0.7297 0.5627 0.5288   0.116946
 H 0.6186 0.5443 0.4592   0.10832
 H 0.7221 0.324 0.4045   0.096147
 H 0.5051 0.2978 0.2093   0.096015
 H 0.4138 0.1975 0.1657   0.117186
 H 0.2992 0.1478 0.2204   0.078565
 H 0.3597 0.3019 0.3618   0.113762
 H 0.2145 0.0844 0.2843   0.133558
 H 0.1088 0.0369 0.3484   0.067722
 H 0.1407 0.2298 0.4591   0.076701
 H 0.2392 0.2865 0.3953   0.120407
 H 0.526 0.2475 0.4002   0.331172
 H 0.5842 0.2399 0.3497   0.304247
 H 0.2354 0.9913 0.4274   0.059658
 H 0.3464 0.8972 0.4368   0.131209
 H 0.2624 0.8426 0.6071   0.144095
 H 0.1578 0.9405 0.5934   0.06049
 H 0.4615 0.8336 0.4621   0.105197
 H 0.5627 0.7297 0.4712   0.116947
 H 0.5443 0.6186 0.5408   0.10832
 H 0.324 0.7221 0.5955   0.096147
 H 0.2978 0.5051 0.7907   0.096015
 H 0.1975 0.4138 0.8343   0.117186
 H 0.1478 0.2992 0.7796   0.078565
 H 0.3019 0.3597 0.6382   0.113762
 H 0.0844 0.2145 0.7157   0.133558
 H 0.0369 0.1088 0.6516   0.067722
 H 0.2298 0.1407 0.5409   0.0767
 H 0.2865 0.2392 0.6047   0.120407
 H 0.2475 0.526 0.5998   0.331173
 H 0.2399 0.5842 0.6503   0.304247
 H 0.7646 0.0087 0.9274   0.059658
 H 0.6536 0.1028 0.9368   0.131209
 H 0.7376 0.1574 0.1071   0.144095
 H 0.8422 0.0595 0.0934   0.06049
 H 0.5385 0.1664 0.9621   0.105197
 H 0.4373 0.2703 0.9712   0.116947
 H 0.4557 0.3814 0.0408   0.10832
 H 0.676 0.2779 0.0955   0.096147
 H 0.7022 0.4949 0.2907   0.096015
 H 0.8025 0.5862 0.3343   0.117186
 H 0.8522 0.7008 0.2796   0.078565
 H 0.6981 0.6403 0.1382   0.113762
 H 0.9156 0.7855 0.2157   0.133558
 H 0.9631 0.8912 0.1516   0.067722
 H 0.7702 0.8593 0.0409   0.0767
 H 0.7135 0.7608 0.1047   0.120407
 H 0.7525 0.474 0.0998   0.331173
 H 0.7601 0.4158 0.1503   0.304247
 H 0.4913 0.2646 0.6774   0.059658
 H 0.3972 0.1536 0.6868   0.131209
 H 0.3426 0.2376 0.8571   0.144095
 H 0.4405 0.3422 0.8434   0.06049
 H 0.3336 0.0385 0.7121   0.105197
 H 0.2297 0.9373 0.7212   0.116946
 H 0.1186 0.9557 0.7908   0.10832
 H 0.2221 0.176 0.8455   0.096147
 H 0.0051 0.2022 0.0407   0.096015
 H 0.9138 0.3025 0.0843   0.117186
 H 0.7992 0.3522 0.0296   0.078565
 H 0.8597 0.1981 0.8882   0.113762
 H 0.7145 0.4156 0.9657   0.133558
 H 0.6088 0.4631 0.9016   0.067722
 H 0.6407 0.2702 0.7909   0.076701
 H 0.7392 0.2135 0.8547   0.120407
 H 0.026 0.2525 0.8498   0.331172
 H 0.0842 0.2601 0.9003   0.304247
 H 0.5087 0.7354 0.1774   0.059658
 H 0.6028 0.8464 0.1868   0.131209
 H 0.6574 0.7624 0.3571   0.144095
 H 0.5595 0.6578 0.3434   0.06049
 H 0.6664 0.9615 0.2121   0.105197
 H 0.7703 0.0627 0.2212   0.116946
 H 0.8814 0.0443 0.2908   0.10832
 H 0.7779 0.824 0.3455   0.096147
 H 0.9949 0.7978 0.5407   0.096015
 H 0.0862 0.6975 0.5843   0.117186
 H 0.2008 0.6478 0.5296   0.078565
 H 0.1403 0.8019 0.3882   0.113762
 H 0.2855 0.5844 0.4657   0.133558
 H 0.3912 0.5369 0.4016   0.067722
 H 0.3593 0.7298 0.2909   0.076701
 H 0.2608 0.7865 0.3547   0.120407
 H 0.974 0.7475 0.3498   0.331172
 H 0.9158 0.7399 0.4003   0.304247
 C 0.259 0.4605 0.2854   0.174282
 C 0.1926 0.4036 0.2804   -0.219048
 C 0.1837 0.3564 0.2275   0.12017
 C 0.2415 0.3722 0.1807   -0.192083
 C 0.3041 0.4305 0.1894   0.17032
 C 0.1184 0.2895 0.222   0.008536
 C 0.0463 0.2897 0.2588   -0.100917
 C 0.9864 0.2276 0.2538   -0.073626
 C 0.997 0.1618 0.2126   -0.069528
 C 0.0694 0.16 0.1762   -0.022424
 C 0.1279 0.2233 0.1805   -0.101347
 C 0.0771 0.09 0.1318   0.254254
 C 0.1284 0.9954 0.0696   0.229879
 C 0.1902 0.9395 0.0393   -0.04989
 C 0.2214 0.9571 0.9814   -0.063034
 C 0.2816 0.9031 0.9559   -0.070332
 C 0.3108 0.8349 0.9883   -0.075736
 C 0.2803 0.8171 0.0474   0.010113
 C 0.2197 0.8706 0.0719   -0.11944
 C 0.3113 0.7449 0.0843   0.113635
 C 0.385 0.7014 0.0706   -0.198717
 C 0.4138 0.6391 0.1098   0.165151
 C 0.3011 0.6567 0.1736   0.147734
 C 0.2674 0.7165 0.1362   -0.182731
 C 0.741 0.5395 0.7854   0.174282
 C 0.8074 0.5964 0.7804   -0.219048
 C 0.8163 0.6436 0.7275   0.12017
 C 0.7585 0.6278 0.6807   -0.192083
 C 0.6959 0.5695 0.6894   0.17032
 C 0.8816 0.7105 0.722   0.008536
 C 0.9537 0.7103 0.7588   -0.100917
 C 0.0136 0.7724 0.7538   -0.073626
 C 0.003 0.8382 0.7126   -0.069528
 C 0.9306 0.84 0.6762   -0.022424
 C 0.8721 0.7767 0.6805   -0.101347
 C 0.9229 0.91 0.6318   0.254254
 C 0.8716 0.0046 0.5696   0.229879
 C 0.8098 0.0605 0.5393   -0.04989
 C 0.7786 0.0429 0.4814   -0.063034
 C 0.7184 0.0969 0.4559   -0.070332
 C 0.6892 0.1651 0.4883   -0.075736
 C 0.7197 0.1829 0.5474   0.010113
 C 0.7803 0.1294 0.5719   -0.11944
 C 0.6887 0.2551 0.5843   0.113635
 C 0.615 0.2986 0.5706   -0.198717
 C 0.5862 0.3609 0.6098   0.165151
 C 0.6989 0.3433 0.6736   0.147734
 C 0.7326 0.2835 0.6362   -0.182731
 C 0.0395 0.759 0.0354   0.174282
 C 0.0964 0.6926 0.0304   -0.219048
 C 0.1436 0.6837 0.9775   0.12017
 C 0.1278 0.7415 0.9307   -0.192083
 C 0.0695 0.8041 0.9394   0.17032
 C 0.2105 0.6184 0.972   0.008536
 C 0.2103 0.5463 0.0088   -0.100917
 C 0.2724 0.4864 0.0038   -0.073626
 C 0.3382 0.497 0.9626   -0.069528
 C 0.34 0.5694 0.9262   -0.022424
 C 0.2767 0.6279 0.9305   -0.101347
 C 0.41 0.5771 0.8818   0.254254
 C 0.5046 0.6284 0.8196   0.229879
 C 0.5605 0.6902 0.7893   -0.04989
 C 0.5429 0.7214 0.7314   -0.063034
 C 0.5969 0.7816 0.7059   -0.070332
 C 0.6651 0.8108 0.7383   -0.075736
 C 0.6829 0.7803 0.7974   0.010113
 C 0.6294 0.7197 0.8219   -0.11944
 C 0.7551 0.8113 0.8343   0.113635
 C 0.7986 0.885 0.8206   -0.198717
 C 0.8609 0.9138 0.8598   0.165151
 C 0.8433 0.8011 0.9236   0.147735
 C 0.7835 0.7674 0.8862   -0.182731
 C 0.9605 0.241 0.5354   0.174282
 C 0.9036 0.3074 0.5304   -0.219048
 C 0.8564 0.3163 0.4775   0.12017
 C 0.8722 0.2585 0.4307   -0.192083
 C 0.9305 0.1959 0.4394   0.17032
 C 0.7895 0.3816 0.472   0.008536
 C 0.7897 0.4537 0.5088   -0.100917
 C 0.7276 0.5136 0.5038   -0.073626
 C 0.6618 0.503 0.4626   -0.069528
 C 0.66 0.4306 0.4262   -0.022424
 C 0.7233 0.3721 0.4305   -0.101347
 C 0.59 0.4229 0.3818   0.254254
 C 0.4954 0.3716 0.3196   0.229879
 C 0.4395 0.3098 0.2893   -0.04989
 C 0.4571 0.2786 0.2314   -0.063034
 C 0.4031 0.2184 0.2059   -0.070332
 C 0.3349 0.1892 0.2383   -0.075736
 C 0.3171 0.2197 0.2974   0.010113
 C 0.3706 0.2803 0.3219   -0.11944
 C 0.2449 0.1887 0.3343   0.113635
 C 0.2014 0.115 0.3206   -0.198717
 C 0.1391 0.0862 0.3598   0.165151
 C 0.1567 0.1989 0.4236   0.147735
 C 0.2165 0.2326 0.3862   -0.182731
 C 0.241 0.9605 0.4646   0.174282
 C 0.3074 0.9036 0.4696   -0.219048
 C 0.3163 0.8564 0.5225   0.12017
 C 0.2585 0.8722 0.5693   -0.192083
 C 0.1959 0.9305 0.5606   0.17032
 C 0.3816 0.7895 0.528   0.008536
 C 0.4537 0.7897 0.4912   -0.100917
 C 0.5136 0.7276 0.4962   -0.073626
 C 0.503 0.6618 0.5374   -0.069528
 C 0.4306 0.66 0.5738   -0.022424
 C 0.3721 0.7233 0.5695   -0.101347
 C 0.4229 0.59 0.6182   0.254254
 C 0.3716 0.4954 0.6804   0.229879
 C 0.3098 0.4395 0.7107   -0.04989
 C 0.2786 0.4571 0.7686   -0.063034
 C 0.2184 0.4031 0.7941   -0.070332
 C 0.1892 0.3349 0.7617   -0.075736
 C 0.2197 0.3171 0.7026   0.010113
 C 0.2803 0.3706 0.6781   -0.11944
 C 0.1887 0.2449 0.6657   0.113635
 C 0.115 0.2014 0.6794   -0.198717
 C 0.0862 0.1391 0.6402   0.165151
 C 0.1989 0.1567 0.5764   0.147734
 C 0.2326 0.2165 0.6138   -0.182731
 C 0.759 0.0395 0.9646   0.174282
 C 0.6926 0.0964 0.9696   -0.219048
 C 0.6837 0.1436 0.0225   0.12017
 C 0.7415 0.1278 0.0693   -0.192083
 C 0.8041 0.0695 0.0606   0.17032
 C 0.6184 0.2105 0.028   0.008536
 C 0.5463 0.2103 0.9912   -0.100917
 C 0.4864 0.2724 0.9962   -0.073626
 C 0.497 0.3382 0.0374   -0.069528
 C 0.5694 0.34 0.0738   -0.022424
 C 0.6279 0.2767 0.0695   -0.101347
 C 0.5771 0.41 0.1182   0.254254
 C 0.6284 0.5046 0.1804   0.229879
 C 0.6902 0.5605 0.2107   -0.04989
 C 0.7214 0.5429 0.2686   -0.063034
 C 0.7816 0.5969 0.2941   -0.070332
 C 0.8108 0.6651 0.2617   -0.075736
 C 0.7803 0.6829 0.2026   0.010113
 C 0.7197 0.6294 0.1781   -0.11944
 C 0.8113 0.7551 0.1657   0.113635
 C 0.885 0.7986 0.1794   -0.198717
 C 0.9138 0.8609 0.1402   0.165151
 C 0.8011 0.8433 0.0764   0.147734
 C 0.7674 0.7835 0.1138   -0.182731
 C 0.4605 0.259 0.7146   0.174282
 C 0.4036 0.1926 0.7196   -0.219048
 C 0.3564 0.1837 0.7725   0.12017
 C 0.3722 0.2415 0.8193   -0.192083
 C 0.4305 0.3041 0.8106   0.17032
 C 0.2895 0.1184 0.778   0.008536
 C 0.2897 0.0463 0.7412   -0.100917
 C 0.2276 0.9864 0.7462   -0.073626
 C 0.1618 0.997 0.7874   -0.069528
 C 0.16 0.0694 0.8238   -0.022424
 C 0.2233 0.1279 0.8195   -0.101347
 C 0.09 0.0771 0.8682   0.254254
 C 0.9954 0.1284 0.9304   0.229879
 C 0.9395 0.1902 0.9607   -0.04989
 C 0.9571 0.2214 0.0186   -0.063034
 C 0.9031 0.2816 0.0441   -0.070332
 C 0.8349 0.3108 0.0117   -0.075736
 C 0.8171 0.2803 0.9526   0.010113
 C 0.8706 0.2197 0.9281   -0.11944
 C 0.7449 0.3113 0.9157   0.113635
 C 0.7014 0.385 0.9294   -0.198717
 C 0.6391 0.4138 0.8902   0.165151
 C 0.6567 0.3011 0.8264   0.147735
 C 0.7165 0.2674 0.8638   -0.182731
 C 0.5395 0.741 0.2146   0.174282
 C 0.5964 0.8074 0.2196   -0.219048
 C 0.6436 0.8163 0.2725   0.12017
 C 0.6278 0.7585 0.3193   -0.192083
 C 0.5695 0.6959 0.3106   0.17032
 C 0.7105 0.8816 0.278   0.008536
 C 0.7103 0.9537 0.2412   -0.100917
 C 0.7724 0.0136 0.2462   -0.073626
 C 0.8382 0.003 0.2874   -0.069528
 C 0.84 0.9306 0.3238   -0.022424
 C 0.7767 0.8721 0.3195   -0.101347
 C 0.91 0.9229 0.3682   0.254254
 C 0.0046 0.8716 0.4304   0.229879
 C 0.0605 0.8098 0.4607   -0.04989
 C 0.0429 0.7786 0.5186   -0.063034
 C 0.0969 0.7184 0.5441   -0.070332
 C 0.1651 0.6892 0.5117   -0.075736
 C 0.1829 0.7197 0.4526   0.010113
 C 0.1294 0.7803 0.4281   -0.11944
 C 0.2551 0.6887 0.4157   0.113635
 C 0.2986 0.615 0.4294   -0.198717
 C 0.3609 0.5862 0.3902   0.165151
 C 0.3433 0.6989 0.3264   0.147735
 C 0.2835 0.7326 0.3638   -0.182731
 N 0.3145 0.4739 0.2413   -0.359904
 N 0.0134 0.0546 0.1038   -0.297158
 N 0.0454 0.9941 0.0651   -0.229682
 N 0.1498 0.0548 0.1119   0.095991
 N 0.2315 0.0717 0.1333   -0.548171
 N 0.3758 0.619 0.163   -0.347849
 N 0.6855 0.5261 0.7413   -0.359904
 N 0.9866 0.9454 0.6038   -0.297158
 N 0.9546 0.0059 0.5651   -0.229682
 N 0.8502 0.9452 0.6119   0.095991
 N 0.7685 0.9283 0.6333   -0.548171
 N 0.6242 0.381 0.663   -0.347849
 N 0.0261 0.8145 0.9913   -0.359904
 N 0.4454 0.5134 0.8538   -0.297158
 N 0.5059 0.5454 0.8151   -0.229682
 N 0.4452 0.6498 0.8619   0.095991
 N 0.4283 0.7315 0.8833   -0.54817
 N 0.881 0.8758 0.913   -0.347849
 N 0.9739 0.1855 0.4913   -0.359904
 N 0.5546 0.4866 0.3538   -0.297158
 N 0.4941 0.4546 0.3151   -0.229682
 N 0.5548 0.3502 0.3619   0.095991
 N 0.5717 0.2685 0.3833   -0.54817
 N 0.119 0.1242 0.413   -0.347849
 N 0.1855 0.9739 0.5087   -0.359904
 N 0.4866 0.5546 0.6462   -0.297158
 N 0.4546 0.4941 0.6849   -0.229682
 N 0.3502 0.5548 0.6381   0.095991
 N 0.2685 0.5717 0.6167   -0.548171
 N 0.1242 0.119 0.587   -0.347849
 N 0.8145 0.0261 0.0087   -0.359904
 N 0.5134 0.4454 0.1462   -0.297158
 N 0.5454 0.5059 0.1849   -0.229682
 N 0.6498 0.4452 0.1381   0.095991
 N 0.7315 0.4283 0.1167   -0.548171
 N 0.8758 0.881 0.087   -0.347849
 N 0.4739 0.3145 0.7587   -0.359904
 N 0.0546 0.0134 0.8962   -0.297158
 N 0.9941 0.0454 0.9349   -0.229682
 N 0.0548 0.1498 0.8881   0.095991
 N 0.0717 0.2315 0.8667   -0.54817
 N 0.619 0.3758 0.837   -0.347849
 N 0.5261 0.6855 0.2587   -0.359904
 N 0.9454 0.9866 0.3962   -0.297158
 N 0.0059 0.9546 0.4349   -0.229682
 N 0.9452 0.8502 0.3881   0.095991
 N 0.9283 0.7685 0.3667   -0.54817
 N 0.381 0.6242 0.337   -0.347849
 Cl 0.87446 0.12554 0.75   1.718909
 Cl 0.12554 0.87446 0.25   1.718909
 Cl 0.37446 0.37446 0.5   1.718909
 Cl 0.62554 0.62554 0.0   1.718909
 Cl 0.23068 0.23068 0.0   1.059365
 Cl 0.76932 0.76932 0.5   1.059365
 Cl 0.26932 0.73068 0.75   1.059365
 Cl 0.73068 0.26932 0.25   1.059365
 O 0.8867 0.2122 0.7547   -0.686298
 O 0.9256 0.1136 0.7947   -0.592279
 O 0.7878 0.1133 0.7453   -0.686298
 O 0.8864 0.0744 0.7053   -0.592279
 O 0.1133 0.7878 0.2547   -0.686298
 O 0.0744 0.8864 0.2947   -0.592279
 O 0.2122 0.8867 0.2453   -0.686298
 O 0.1136 0.9256 0.2053   -0.592279
 O 0.2878 0.3867 0.5047   -0.686298
 O 0.3864 0.4256 0.5447   -0.592279
 O 0.3867 0.2878 0.4953   -0.686298
 O 0.4256 0.3864 0.4553   -0.592279
 O 0.7122 0.6133 0.0047   -0.686298
 O 0.6136 0.5744 0.0447   -0.592279
 O 0.6133 0.7122 0.9953   -0.686298
 O 0.5744 0.6136 0.9553   -0.592279
 O 0.2731 0.2543 0.0503   -0.433636
 O 0.2904 0.1633 0.9749   -0.50451
 O 0.2543 0.2731 0.9497   -0.433636
 O 0.1633 0.2904 0.0251   -0.50451
 O 0.7269 0.7457 0.5503   -0.433636
 O 0.7096 0.8367 0.4749   -0.50451
 O 0.7457 0.7269 0.4497   -0.433636
 O 0.8367 0.7096 0.5251   -0.50451
 O 0.2457 0.7731 0.8003   -0.433636
 O 0.3367 0.7904 0.7249   -0.50451
 O 0.2269 0.7543 0.6997   -0.433636
 O 0.2096 0.6633 0.7751   -0.50451
 O 0.7543 0.2269 0.3003   -0.433636
 O 0.6633 0.2096 0.2249   -0.50451
 O 0.7731 0.2457 0.1997   -0.433636
 O 0.7904 0.3367 0.2751   -0.50451
