{'_ref': 'TBD', '_srcid': 'CAKYAQ_clean', 'submitters': [{'name': 'Dalar Nazarian Jeff Camp and David Sholl', 'email': 'dalar@gatech.edu jcamp6@gatech.edu'}], '_method': 'VASP DFT with PBE;DDEC'}
data_CdH36C48N12ClO4
_symmetry_space_group_name_H-M   'P 1'
_cell_length_a   15.90140000
_cell_length_b   15.90140000
_cell_length_c   21.66600000
_cell_angle_alpha   90.00000000
_cell_angle_beta   90.00000000
_cell_angle_gamma   90.00000000
_symmetry_Int_Tables_number   1
_chemical_formula_structural   CdH36C48N12ClO4
_chemical_formula_sum   'Cd4 H144 C192 N48 Cl4 O16'
_cell_volume   5478.34607279
_cell_formula_units_Z   4
loop_
 _symmetry_equiv_pos_site_id
 _symmetry_equiv_pos_as_xyz
  1  'x, y, z'
loop_
 _atom_site_label
 _atom_site_fract_x
 _atom_site_fract_y
 _atom_site_fract_z
 _atom_site_charge
 Cd 0.94174 0.05826 0.75   0.792943
 Cd 0.05826 0.94174 0.25   0.792943
 Cd 0.44174 0.44174 0.5   0.792943
 Cd 0.55826 0.55826 0.0   0.792943
 H 0.0085 0.2359 0.6774   0.064857
 H 0.1036 0.3453 0.6867   0.129795
 H 0.1564 0.2622 0.8589   0.117072
 H 0.061 0.1555 0.8436   0.048303
 H 0.1661 0.459 0.7133   0.101637
 H 0.2694 0.5609 0.7224   0.097133
 H 0.3808 0.5429 0.7915   0.10492
 H 0.2779 0.3224 0.8466   0.085466
 H 0.4958 0.2976 0.0435   0.088721
 H 0.5881 0.1978 0.0869   0.095564
 H 0.7018 0.1471 0.0312   0.075894
 H 0.6394 0.3004 0.8892   0.123609
 H 0.7835 0.0819 0.9654   0.127726
 H 0.8899 0.0361 0.902   0.072036
 H 0.8584 0.2287 0.7911   0.073953
 H 0.7591 0.2854 0.8549   0.131896
 H 0.4751 0.2514 0.8592   0.337529
 H 0.3963 0.2404 0.8986   0.330836
 H 0.9915 0.7641 0.1774   0.064857
 H 0.8964 0.6547 0.1867   0.129795
 H 0.8436 0.7378 0.3589   0.117072
 H 0.939 0.8445 0.3436   0.048303
 H 0.8339 0.541 0.2133   0.101637
 H 0.7306 0.4391 0.2224   0.097133
 H 0.6192 0.4571 0.2915   0.10492
 H 0.7221 0.6776 0.3466   0.085466
 H 0.5042 0.7024 0.5435   0.088721
 H 0.4119 0.8022 0.5869   0.095564
 H 0.2982 0.8529 0.5312   0.075894
 H 0.3606 0.6996 0.3892   0.123609
 H 0.2165 0.9181 0.4654   0.127726
 H 0.1101 0.9639 0.402   0.072036
 H 0.1416 0.7713 0.2911   0.073953
 H 0.2409 0.7146 0.3549   0.131896
 H 0.5249 0.7486 0.3592   0.337529
 H 0.6037 0.7596 0.3986   0.330836
 H 0.2641 0.5085 0.4274   0.064857
 H 0.1547 0.6036 0.4367   0.129795
 H 0.2378 0.6564 0.6089   0.117073
 H 0.3445 0.561 0.5936   0.048303
 H 0.041 0.6661 0.4633   0.101637
 H 0.9391 0.7694 0.4724   0.097134
 H 0.9571 0.8808 0.5415   0.10492
 H 0.1776 0.7779 0.5966   0.085466
 H 0.2024 0.9958 0.7935   0.088721
 H 0.3022 0.0881 0.8369   0.095564
 H 0.3529 0.2018 0.7812   0.075894
 H 0.1996 0.1394 0.6392   0.123609
 H 0.4181 0.2835 0.7154   0.127726
 H 0.4639 0.3899 0.652   0.072036
 H 0.2713 0.3584 0.5411   0.073953
 H 0.2146 0.2591 0.6049   0.131896
 H 0.2486 0.9751 0.6092   0.337529
 H 0.2596 0.8963 0.6486   0.330836
 H 0.7359 0.4915 0.9274   0.064857
 H 0.8453 0.3964 0.9367   0.129795
 H 0.7622 0.3436 0.1089   0.117073
 H 0.6555 0.439 0.0936   0.048303
 H 0.959 0.3339 0.9633   0.101637
 H 0.0609 0.2306 0.9724   0.097134
 H 0.0429 0.1192 0.0415   0.10492
 H 0.8224 0.2221 0.0966   0.085466
 H 0.7976 0.0042 0.2935   0.088721
 H 0.6978 0.9119 0.3369   0.095564
 H 0.6471 0.7982 0.2812   0.075894
 H 0.8004 0.8606 0.1392   0.123609
 H 0.5819 0.7165 0.2154   0.127726
 H 0.5361 0.6101 0.152   0.072036
 H 0.7287 0.6416 0.0411   0.073953
 H 0.7854 0.7409 0.1049   0.131896
 H 0.7514 0.0249 0.1092   0.337529
 H 0.7404 0.1037 0.1486   0.330836
 H 0.4915 0.7359 0.0726   0.064857
 H 0.3964 0.8453 0.0633   0.129795
 H 0.3436 0.7622 0.8911   0.117072
 H 0.439 0.6555 0.9064   0.048303
 H 0.3339 0.959 0.0367   0.101637
 H 0.2306 0.0609 0.0276   0.097134
 H 0.1192 0.0429 0.9585   0.10492
 H 0.2221 0.8224 0.9034   0.085466
 H 0.0042 0.7976 0.7065   0.088722
 H 0.9119 0.6978 0.6631   0.095564
 H 0.7982 0.6471 0.7188   0.075894
 H 0.8606 0.8004 0.8608   0.123609
 H 0.7165 0.5819 0.7846   0.127726
 H 0.6101 0.5361 0.848   0.072036
 H 0.6416 0.7287 0.9589   0.073953
 H 0.7409 0.7854 0.8951   0.131896
 H 0.0249 0.7514 0.8908   0.337529
 H 0.1037 0.7404 0.8514   0.330837
 H 0.5085 0.2641 0.5726   0.064857
 H 0.6036 0.1547 0.5633   0.129795
 H 0.6564 0.2378 0.3911   0.117072
 H 0.561 0.3445 0.4064   0.048303
 H 0.6661 0.041 0.5367   0.101637
 H 0.7694 0.9391 0.5276   0.097134
 H 0.8808 0.9571 0.4585   0.10492
 H 0.7779 0.1776 0.4034   0.085466
 H 0.9958 0.2024 0.2065   0.088722
 H 0.0881 0.3022 0.1631   0.095564
 H 0.2018 0.3529 0.2188   0.075894
 H 0.1394 0.1996 0.3608   0.123609
 H 0.2835 0.4181 0.2846   0.127726
 H 0.3899 0.4639 0.348   0.072036
 H 0.3584 0.2713 0.4589   0.073953
 H 0.2591 0.2146 0.3951   0.131896
 H 0.9751 0.2486 0.3908   0.337529
 H 0.8963 0.2596 0.3514   0.330837
 H 0.2359 0.0085 0.3226   0.064857
 H 0.3453 0.1036 0.3133   0.129795
 H 0.2622 0.1564 0.1411   0.117074
 H 0.1555 0.061 0.1564   0.048303
 H 0.459 0.1661 0.2867   0.101637
 H 0.5609 0.2694 0.2776   0.097135
 H 0.5429 0.3808 0.2085   0.10492
 H 0.3224 0.2779 0.1534   0.085466
 H 0.2976 0.4958 0.9565   0.088722
 H 0.1978 0.5881 0.9131   0.095564
 H 0.1471 0.7018 0.9688   0.075894
 H 0.3004 0.6394 0.1108   0.123609
 H 0.0819 0.7835 0.0346   0.127726
 H 0.0361 0.8899 0.098   0.072036
 H 0.2287 0.8584 0.2089   0.073953
 H 0.2854 0.7591 0.1451   0.131896
 H 0.2514 0.4751 0.1408   0.337529
 H 0.2404 0.3963 0.1014   0.330837
 H 0.7641 0.9915 0.8226   0.064857
 H 0.6547 0.8964 0.8133   0.129795
 H 0.7378 0.8436 0.6411   0.117074
 H 0.8445 0.939 0.6564   0.048303
 H 0.541 0.8339 0.7867   0.101637
 H 0.4391 0.7306 0.7776   0.097135
 H 0.4571 0.6192 0.7085   0.10492
 H 0.6776 0.7221 0.6534   0.085466
 H 0.7024 0.5042 0.4565   0.088722
 H 0.8022 0.4119 0.4131   0.095564
 H 0.8529 0.2982 0.4688   0.075894
 H 0.6996 0.3606 0.6108   0.123609
 H 0.9181 0.2165 0.5346   0.127726
 H 0.9639 0.1101 0.598   0.072036
 H 0.7713 0.1416 0.7089   0.073953
 H 0.7146 0.2409 0.6451   0.131896
 H 0.7486 0.5249 0.6408   0.337529
 H 0.7596 0.6037 0.6014   0.330837
 C 0.0394 0.2414 0.7148   0.161826
 C 0.0965 0.3068 0.7198   -0.210829
 C 0.1434 0.3159 0.7738   0.092939
 C 0.1276 0.2581 0.8206   -0.230694
 C 0.0697 0.1948 0.8112   0.178904
 C 0.2105 0.3816 0.7799   0.022479
 C 0.2099 0.4519 0.7427   -0.116752
 C 0.2718 0.512 0.7476   -0.088312
 C 0.3376 0.5018 0.7887   -0.106511
 C 0.3394 0.4305 0.8258   -0.000275
 C 0.2762 0.371 0.8212   -0.131561
 C 0.409 0.4221 0.8696   0.221696
 C 0.5053 0.3715 0.9314   0.229066
 C 0.5608 0.3091 0.9618   -0.041554
 C 0.5433 0.2783 0.0211   -0.126094
 C 0.5981 0.2183 0.0464   -0.090418
 C 0.666 0.1884 0.0135   -0.09239
 C 0.6825 0.2194 0.9537   0.021948
 C 0.6288 0.2793 0.9295   -0.132286
 C 0.7546 0.1888 0.9164   0.083227
 C 0.7976 0.1133 0.9296   -0.202989
 C 0.8596 0.0852 0.8907   0.154192
 C 0.8422 0.1981 0.8268   0.138213
 C 0.7822 0.2318 0.8644   -0.194763
 C 0.9606 0.7586 0.2148   0.161826
 C 0.9035 0.6932 0.2198   -0.210829
 C 0.8566 0.6841 0.2738   0.092939
 C 0.8724 0.7419 0.3206   -0.230694
 C 0.9303 0.8052 0.3112   0.178904
 C 0.7895 0.6184 0.2799   0.022479
 C 0.7901 0.5481 0.2427   -0.116752
 C 0.7282 0.488 0.2476   -0.088312
 C 0.6624 0.4982 0.2887   -0.106511
 C 0.6606 0.5695 0.3258   -0.000275
 C 0.7238 0.629 0.3212   -0.131561
 C 0.591 0.5779 0.3696   0.221696
 C 0.4947 0.6285 0.4314   0.229066
 C 0.4392 0.6909 0.4618   -0.041554
 C 0.4567 0.7217 0.5211   -0.126094
 C 0.4019 0.7817 0.5464   -0.090418
 C 0.334 0.8116 0.5135   -0.09239
 C 0.3175 0.7806 0.4537   0.021948
 C 0.3712 0.7207 0.4295   -0.132286
 C 0.2454 0.8112 0.4164   0.083227
 C 0.2024 0.8867 0.4296   -0.202989
 C 0.1404 0.9148 0.3907   0.154192
 C 0.1578 0.8019 0.3268   0.138213
 C 0.2178 0.7682 0.3644   -0.194763
 C 0.2586 0.5394 0.4648   0.161826
 C 0.1932 0.5965 0.4698   -0.210829
 C 0.1841 0.6434 0.5238   0.092939
 C 0.2419 0.6276 0.5706   -0.230694
 C 0.3052 0.5697 0.5612   0.178905
 C 0.1184 0.7105 0.5299   0.022479
 C 0.0481 0.7099 0.4927   -0.116752
 C 0.988 0.7718 0.4976   -0.088312
 C 0.9982 0.8376 0.5387   -0.106511
 C 0.0695 0.8394 0.5758   -0.000275
 C 0.129 0.7762 0.5712   -0.13156
 C 0.0779 0.909 0.6196   0.221696
 C 0.1285 0.0053 0.6814   0.229066
 C 0.1909 0.0608 0.7118   -0.041553
 C 0.2217 0.0433 0.7711   -0.126094
 C 0.2817 0.0981 0.7964   -0.090417
 C 0.3116 0.166 0.7635   -0.09239
 C 0.2806 0.1825 0.7037   0.021948
 C 0.2207 0.1288 0.6795   -0.132286
 C 0.3112 0.2546 0.6664   0.083227
 C 0.3867 0.2976 0.6796   -0.202989
 C 0.4148 0.3596 0.6407   0.154191
 C 0.3019 0.3422 0.5768   0.138213
 C 0.2682 0.2822 0.6144   -0.194763
 C 0.7414 0.4606 0.9648   0.161826
 C 0.8068 0.4035 0.9698   -0.210829
 C 0.8159 0.3566 0.0238   0.092939
 C 0.7581 0.3724 0.0706   -0.230694
 C 0.6948 0.4303 0.0612   0.178905
 C 0.8816 0.2895 0.0299   0.022479
 C 0.9519 0.2901 0.9927   -0.116752
 C 0.012 0.2282 0.9976   -0.088312
 C 0.0018 0.1624 0.0387   -0.106511
 C 0.9305 0.1606 0.0758   -0.000275
 C 0.871 0.2238 0.0712   -0.13156
 C 0.9221 0.091 0.1196   0.221696
 C 0.8715 0.9947 0.1814   0.229066
 C 0.8091 0.9392 0.2118   -0.041553
 C 0.7783 0.9567 0.2711   -0.126094
 C 0.7183 0.9019 0.2964   -0.090417
 C 0.6884 0.834 0.2635   -0.09239
 C 0.7194 0.8175 0.2037   0.021948
 C 0.7793 0.8712 0.1795   -0.132286
 C 0.6888 0.7454 0.1664   0.083227
 C 0.6133 0.7024 0.1796   -0.202989
 C 0.5852 0.6404 0.1407   0.154191
 C 0.6981 0.6578 0.0768   0.138213
 C 0.7318 0.7178 0.1144   -0.194763
 C 0.4606 0.7414 0.0352   0.161825
 C 0.4035 0.8068 0.0302   -0.210829
 C 0.3566 0.8159 0.9762   0.092939
 C 0.3724 0.7581 0.9294   -0.230694
 C 0.4303 0.6948 0.9388   0.178904
 C 0.2895 0.8816 0.9701   0.022479
 C 0.2901 0.9519 0.0073   -0.116752
 C 0.2282 0.012 0.0024   -0.088312
 C 0.1624 0.0018 0.9613   -0.106511
 C 0.1606 0.9305 0.9242   -0.000275
 C 0.2238 0.871 0.9288   -0.131561
 C 0.091 0.9221 0.8804   0.221696
 C 0.9947 0.8715 0.8186   0.229066
 C 0.9392 0.8091 0.7882   -0.041553
 C 0.9567 0.7783 0.7289   -0.126094
 C 0.9019 0.7183 0.7036   -0.090417
 C 0.834 0.6884 0.7365   -0.09239
 C 0.8175 0.7194 0.7963   0.021948
 C 0.8712 0.7793 0.8205   -0.132286
 C 0.7454 0.6888 0.8336   0.083227
 C 0.7024 0.6133 0.8204   -0.202989
 C 0.6404 0.5852 0.8593   0.154192
 C 0.6578 0.6981 0.9232   0.138213
 C 0.7178 0.7318 0.8856   -0.194763
 C 0.5394 0.2586 0.5352   0.161825
 C 0.5965 0.1932 0.5302   -0.210829
 C 0.6434 0.1841 0.4762   0.092939
 C 0.6276 0.2419 0.4294   -0.230694
 C 0.5697 0.3052 0.4388   0.178904
 C 0.7105 0.1184 0.4701   0.022479
 C 0.7099 0.0481 0.5073   -0.116752
 C 0.7718 0.988 0.5024   -0.088312
 C 0.8376 0.9982 0.4613   -0.106511
 C 0.8394 0.0695 0.4242   -0.000275
 C 0.7762 0.129 0.4288   -0.131561
 C 0.909 0.0779 0.3804   0.221696
 C 0.0053 0.1285 0.3186   0.229066
 C 0.0608 0.1909 0.2882   -0.041553
 C 0.0433 0.2217 0.2289   -0.126094
 C 0.0981 0.2817 0.2036   -0.090417
 C 0.166 0.3116 0.2365   -0.09239
 C 0.1825 0.2806 0.2963   0.021948
 C 0.1288 0.2207 0.3205   -0.132286
 C 0.2546 0.3112 0.3336   0.083227
 C 0.2976 0.3867 0.3204   -0.202989
 C 0.3596 0.4148 0.3593   0.154192
 C 0.3422 0.3019 0.4232   0.138213
 C 0.2822 0.2682 0.3856   -0.194763
 C 0.2414 0.0394 0.2852   0.161826
 C 0.3068 0.0965 0.2802   -0.210829
 C 0.3159 0.1434 0.2262   0.092939
 C 0.2581 0.1276 0.1794   -0.230695
 C 0.1948 0.0697 0.1888   0.178905
 C 0.3816 0.2105 0.2201   0.022479
 C 0.4519 0.2099 0.2573   -0.116751
 C 0.512 0.2718 0.2524   -0.088313
 C 0.5018 0.3376 0.2113   -0.106511
 C 0.4305 0.3394 0.1742   -0.000275
 C 0.371 0.2762 0.1788   -0.131561
 C 0.4221 0.409 0.1304   0.221696
 C 0.3715 0.5053 0.0686   0.229066
 C 0.3091 0.5608 0.0382   -0.041553
 C 0.2783 0.5433 0.9789   -0.126094
 C 0.2183 0.5981 0.9536   -0.090417
 C 0.1884 0.666 0.9865   -0.09239
 C 0.2194 0.6825 0.0463   0.021948
 C 0.2793 0.6288 0.0705   -0.132286
 C 0.1888 0.7546 0.0836   0.083227
 C 0.1133 0.7976 0.0704   -0.202989
 C 0.0852 0.8596 0.1093   0.154191
 C 0.1981 0.8422 0.1732   0.138213
 C 0.2318 0.7822 0.1356   -0.194763
 C 0.7586 0.9606 0.7852   0.161826
 C 0.6932 0.9035 0.7802   -0.210829
 C 0.6841 0.8566 0.7262   0.092939
 C 0.7419 0.8724 0.6794   -0.230695
 C 0.8052 0.9303 0.6888   0.178905
 C 0.6184 0.7895 0.7201   0.022479
 C 0.5481 0.7901 0.7573   -0.116751
 C 0.488 0.7282 0.7524   -0.088313
 C 0.4982 0.6624 0.7113   -0.106511
 C 0.5695 0.6606 0.6742   -0.000275
 C 0.629 0.7238 0.6788   -0.131561
 C 0.5779 0.591 0.6304   0.221696
 C 0.6285 0.4947 0.5686   0.229066
 C 0.6909 0.4392 0.5382   -0.041553
 C 0.7217 0.4567 0.4789   -0.126094
 C 0.7817 0.4019 0.4536   -0.090417
 C 0.8116 0.334 0.4865   -0.09239
 C 0.7806 0.3175 0.5463   0.021948
 C 0.7207 0.3712 0.5705   -0.132286
 C 0.8112 0.2454 0.5836   0.083227
 C 0.8867 0.2024 0.5704   -0.202989
 C 0.9148 0.1404 0.6093   0.154191
 C 0.8019 0.1578 0.6732   0.138213
 C 0.7682 0.2178 0.6356   -0.194763
 N 0.0256 0.1852 0.7599   -0.363553
 N 0.447 0.4866 0.8966   -0.285429
 N 0.5067 0.4545 0.9353   -0.217613
 N 0.4442 0.349 0.8908   0.082273
 N 0.4243 0.2675 0.8704   -0.566636
 N 0.8798 0.1233 0.8376   -0.366157
 N 0.9744 0.8148 0.2599   -0.363553
 N 0.553 0.5134 0.3966   -0.285429
 N 0.4933 0.5455 0.4353   -0.217613
 N 0.5558 0.651 0.3908   0.082273
 N 0.5757 0.7325 0.3704   -0.566636
 N 0.1202 0.8767 0.3376   -0.366157
 N 0.3148 0.5256 0.5099   -0.363553
 N 0.0134 0.947 0.6466   -0.285429
 N 0.0455 0.0067 0.6853   -0.217613
 N 0.151 0.9442 0.6408   0.082273
 N 0.2325 0.9243 0.6204   -0.566636
 N 0.3767 0.3798 0.5876   -0.366157
 N 0.6852 0.4744 0.0099   -0.363553
 N 0.9866 0.053 0.1466   -0.285429
 N 0.9545 0.9933 0.1853   -0.217613
 N 0.849 0.0558 0.1408   0.082273
 N 0.7675 0.0757 0.1204   -0.566636
 N 0.6233 0.6202 0.0876   -0.366157
 N 0.4744 0.6852 0.9901   -0.363553
 N 0.053 0.9866 0.8534   -0.285429
 N 0.9933 0.9545 0.8147   -0.217613
 N 0.0558 0.849 0.8592   0.082273
 N 0.0757 0.7675 0.8796   -0.566636
 N 0.6202 0.6233 0.9124   -0.366157
 N 0.5256 0.3148 0.4901   -0.363553
 N 0.947 0.0134 0.3534   -0.285429
 N 0.0067 0.0455 0.3147   -0.217613
 N 0.9442 0.151 0.3592   0.082273
 N 0.9243 0.2325 0.3796   -0.566636
 N 0.3798 0.3767 0.4124   -0.366157
 N 0.1852 0.0256 0.2401   -0.363553
 N 0.4866 0.447 0.1034   -0.285429
 N 0.4545 0.5067 0.0647   -0.217613
 N 0.349 0.4442 0.1092   0.082273
 N 0.2675 0.4243 0.1296   -0.566636
 N 0.1233 0.8798 0.1624   -0.366157
 N 0.8148 0.9744 0.7401   -0.363553
 N 0.5134 0.553 0.6034   -0.285429
 N 0.5455 0.4933 0.5647   -0.217613
 N 0.651 0.5558 0.6092   0.082273
 N 0.7325 0.5757 0.6296   -0.566636
 N 0.8767 0.1202 0.6624   -0.366157
 Cl 0.87612 0.87612 0.0   1.927961
 Cl 0.12388 0.12388 0.5   1.927961
 Cl 0.62388 0.37612 0.75   1.927961
 Cl 0.37612 0.62388 0.25   1.927961
 O 0.8089 0.8824 0.9701   -0.72711
 O 0.9259 0.8656 0.9558   -0.662242
 O 0.8824 0.8089 0.0299   -0.72711
 O 0.8656 0.9259 0.0442   -0.662242
 O 0.1911 0.1176 0.4701   -0.72711
 O 0.0741 0.1344 0.4558   -0.662242
 O 0.1176 0.1911 0.5299   -0.72711
 O 0.1344 0.0741 0.5442   -0.662242
 O 0.6176 0.3089 0.7201   -0.72711
 O 0.6344 0.4259 0.7058   -0.662242
 O 0.6911 0.3824 0.7799   -0.72711
 O 0.5741 0.3656 0.7942   -0.662242
 O 0.3824 0.6911 0.2201   -0.72711
 O 0.3656 0.5741 0.2058   -0.662242
 O 0.3089 0.6176 0.2799   -0.72711
 O 0.4259 0.6344 0.2942   -0.662242
