{'_ref': 'TBD', '_srcid': 'CAKYAQ_clean', 'submitters': [{'name': 'Dalar Nazarian Jeff Camp and David Sholl', 'email': 'dalar@gatech.edu jcamp6@gatech.edu'}], '_method': 'VASP DFT with PBE;DDEC'}
data_Zn2H8C11O7
_symmetry_space_group_name_H-M   'P 1'
_cell_length_a   10.33700000
_cell_length_b   11.64900000
_cell_length_c   20.46400000
_cell_angle_alpha   90.00000000
_cell_angle_beta   90.00000000
_cell_angle_gamma   90.00000000
_symmetry_Int_Tables_number   1
_chemical_formula_structural   Zn2H8C11O7
_chemical_formula_sum   'Zn8 H32 C44 O28'
_cell_volume   2464.18715083
_cell_formula_units_Z   4
loop_
 _symmetry_equiv_pos_site_id
 _symmetry_equiv_pos_as_xyz
  1  'x, y, z'
loop_
 _atom_site_label
 _atom_site_fract_x
 _atom_site_fract_y
 _atom_site_fract_z
 _atom_site_charge
 Zn 0.95646 0.57766 0.00678   1.105528
 Zn 0.643 0.67521 0.00728   1.07671
 Zn 0.54354 0.42234 0.50678   1.105528
 Zn 0.857 0.32479 0.50728   1.07671
 Zn 0.04354 0.07766 0.49322   1.105528
 Zn 0.357 0.17521 0.49272   1.07671
 Zn 0.45646 0.92234 0.99322   1.105528
 Zn 0.143 0.82479 0.99272   1.07671
 H 0.9404 0.4726 0.8116   0.11067
 H 0.5654 0.5615 0.815   0.112492
 H 0.9227 0.4257 0.7014   0.111399
 H 0.5469 0.5156 0.7053   0.105927
 H 0.7364 0.9746 0.9927   0.066335
 H 0.6499 0.9608 0.8864   0.119943
 H 0.8014 0.9615 0.8835   0.128093
 H 0.7257 0.8459 0.8753   0.123426
 H 0.5596 0.5274 0.3116   0.11067
 H 0.9346 0.4385 0.315   0.112492
 H 0.5773 0.5743 0.2014   0.111399
 H 0.9531 0.4844 0.2053   0.105927
 H 0.7636 0.0254 0.4927   0.066335
 H 0.8501 0.0392 0.3864   0.119943
 H 0.6986 0.0385 0.3835   0.128093
 H 0.7743 0.1541 0.3753   0.123426
 H 0.0596 0.9726 0.6884   0.110671
 H 0.4346 0.0615 0.685   0.112492
 H 0.0773 0.9257 0.7986   0.1114
 H 0.4531 0.0156 0.7947   0.105927
 H 0.2636 0.4746 0.5073   0.066335
 H 0.3501 0.4608 0.6136   0.119943
 H 0.1986 0.4615 0.6165   0.128094
 H 0.2743 0.3459 0.6247   0.123426
 H 0.4404 0.0274 0.1884   0.110671
 H 0.0654 0.9385 0.185   0.112492
 H 0.4227 0.0743 0.2986   0.1114
 H 0.0469 0.9844 0.2947   0.105927
 H 0.2364 0.5254 0.0073   0.066335
 H 0.1499 0.5392 0.1136   0.119943
 H 0.3014 0.5385 0.1165   0.128094
 H 0.2257 0.6541 0.1247   0.123426
 C 0.7671 0.5533 0.89532   0.722988
 C 0.7546 0.5222 0.82425   -0.133334
 C 0.8616 0.4813 0.79025   -0.059483
 C 0.6371 0.5346 0.79227   -0.060313
 C 0.8511 0.4533 0.72395   -0.060123
 C 0.626 0.5071 0.72644   -0.061212
 C 0.7334 0.4668 0.69191   -0.130495
 C 0.7228 0.438 0.62061   0.727015
 C 0.854 0.833 0.9879   0.665007
 C 0.7324 0.8996 0.97104   0.166206
 C 0.7268 0.9187 0.8972   -0.372685
 C 0.7329 0.4467 0.39532   0.722988
 C 0.7454 0.4778 0.32425   -0.133334
 C 0.6384 0.5187 0.29025   -0.059483
 C 0.8629 0.4654 0.29227   -0.060313
 C 0.6489 0.5467 0.22395   -0.060123
 C 0.874 0.4929 0.22644   -0.061212
 C 0.7666 0.5332 0.19191   -0.130495
 C 0.7772 0.562 0.12061   0.727015
 C 0.646 0.167 0.4879   0.665008
 C 0.7676 0.1004 0.47104   0.166206
 C 0.7732 0.0813 0.3972   -0.372685
 C 0.2329 0.0533 0.60468   0.722988
 C 0.2454 0.0222 0.67575   -0.133334
 C 0.1384 0.9813 0.70975   -0.059483
 C 0.3629 0.0346 0.70773   -0.060313
 C 0.1489 0.9533 0.77605   -0.060123
 C 0.374 0.0071 0.77356   -0.061212
 C 0.2666 0.9668 0.80809   -0.130495
 C 0.2772 0.938 0.87939   0.727015
 C 0.146 0.333 0.5121   0.665008
 C 0.2676 0.3996 0.52896   0.166206
 C 0.2732 0.4187 0.6028   -0.372686
 C 0.2671 0.9467 0.10468   0.722988
 C 0.2546 0.9778 0.17575   -0.133334
 C 0.3616 0.0187 0.20975   -0.059483
 C 0.1371 0.9654 0.20773   -0.060313
 C 0.3511 0.0467 0.27605   -0.060123
 C 0.126 0.9929 0.27356   -0.061212
 C 0.2334 0.0332 0.30809   -0.130495
 C 0.2228 0.062 0.37939   0.727015
 C 0.354 0.667 0.0121   0.665008
 C 0.2324 0.6004 0.02896   0.166206
 C 0.2268 0.5813 0.1028   -0.372686
 O 0.6671 0.5859 0.92447   -0.610015
 O 0.8781 0.5421 0.9201   -0.647474
 O 0.6182 0.4647 0.59275   -0.647354
 O 0.82 0.3912 0.59509   -0.599581
 O 0.8414 0.7292 0.00535   -0.647086
 O 0.9597 0.8844 0.98152   -0.576137
 O 0.6199 0.8412 0.99294   -0.736447
 O 0.8329 0.4141 0.42447   -0.610015
 O 0.6219 0.4579 0.4201   -0.647474
 O 0.8818 0.5353 0.09275   -0.647354
 O 0.68 0.6088 0.09509   -0.599581
 O 0.6586 0.2708 0.50535   -0.647086
 O 0.5403 0.1156 0.48152   -0.576137
 O 0.8801 0.1588 0.49294   -0.736447
 O 0.3329 0.0859 0.57553   -0.610015
 O 0.1219 0.0421 0.5799   -0.647474
 O 0.3818 0.9647 0.90725   -0.647354
 O 0.18 0.8912 0.90491   -0.599582
 O 0.1586 0.2292 0.49465   -0.647087
 O 0.0403 0.3844 0.51848   -0.576137
 O 0.3801 0.3412 0.50706   -0.736447
 O 0.1671 0.9141 0.07553   -0.610015
 O 0.3781 0.9579 0.0799   -0.647474
 O 0.1182 0.0353 0.40725   -0.647354
 O 0.32 0.1088 0.40491   -0.599582
 O 0.3414 0.7708 0.99465   -0.647087
 O 0.4597 0.6156 0.01848   -0.576137
 O 0.1199 0.6588 0.00706   -0.736447
