{'_ref': 'TBD', '_srcid': 'CAKYAQ_clean', 'submitters': [{'name': 'Dalar Nazarian Jeff Camp and David Sholl', 'email': 'dalar@gatech.edu jcamp6@gatech.edu'}], '_method': 'VASP DFT with PBE;DDEC'}
data_ErH12(C7O2)3
_symmetry_space_group_name_H-M   'P 1'
_cell_length_a   15.20400039
_cell_length_b   15.20400019
_cell_length_c   18.53540000
_cell_angle_alpha   76.27240139
_cell_angle_beta   76.27240158
_cell_angle_gamma   68.39320100
_symmetry_Int_Tables_number   1
_chemical_formula_structural   ErH12(C7O2)3
_chemical_formula_sum   'Er4 H48 C84 O24'
_cell_volume   3816.12245732
_cell_formula_units_Z   4
loop_
 _symmetry_equiv_pos_site_id
 _symmetry_equiv_pos_as_xyz
  1  'x, y, z'
loop_
 _atom_site_label
 _atom_site_fract_x
 _atom_site_fract_y
 _atom_site_fract_z
 _atom_site_charge
 Er 0.04343 0.96215 0.10455   1.505485
 Er 0.03785 0.95657 0.39545   1.505485
 Er 0.95657 0.03785 0.89545   1.505485
 Er 0.96215 0.04343 0.60455   1.505485
 H 0.0775 0.6543 0.0933   0.099363
 H 0.0686 0.507 0.0913   0.102471
 H 0.9533 0.6171 0.9041   0.104257
 H 0.9736 0.7608 0.9022   0.111557
 H 0.2929 0.9701 0.005   0.090472
 H 0.4541 0.9561 0.9724   0.096254
 H 0.4406 0.9788 0.7572   0.097736
 H 0.2826 0.9874 0.7889   0.108857
 H 0.7659 0.8921 0.9064   0.103152
 H 0.613 0.8844 0.9362   0.112424
 H 0.555 0.0452 0.7353   0.110216
 H 0.711 0.0486 0.7053   0.094911
 H 0.3457 0.9225 0.4067   0.099363
 H 0.493 0.9314 0.4087   0.102471
 H 0.3829 0.0467 0.5959   0.104256
 H 0.2392 0.0264 0.5978   0.111556
 H 0.0299 0.7071 0.495   0.090472
 H 0.0439 0.5459 0.5276   0.096254
 H 0.0212 0.5594 0.7428   0.097736
 H 0.0126 0.7174 0.7111   0.108857
 H 0.1079 0.2341 0.5936   0.103152
 H 0.1156 0.387 0.5638   0.112424
 H 0.9548 0.445 0.7647   0.110216
 H 0.9514 0.289 0.7947   0.094911
 H 0.9225 0.3457 0.9067   0.099363
 H 0.9314 0.493 0.9087   0.102472
 H 0.0467 0.3829 0.0959   0.104257
 H 0.0264 0.2392 0.0978   0.111557
 H 0.7071 0.0299 0.995   0.090472
 H 0.5459 0.0439 0.0276   0.096254
 H 0.5594 0.0212 0.2428   0.097736
 H 0.7174 0.0126 0.2111   0.108857
 H 0.2341 0.1079 0.0936   0.103152
 H 0.387 0.1156 0.0638   0.112425
 H 0.445 0.9548 0.2647   0.110217
 H 0.289 0.9514 0.2947   0.094911
 H 0.6543 0.0775 0.5933   0.099363
 H 0.507 0.0686 0.5913   0.102472
 H 0.6171 0.9533 0.4041   0.104257
 H 0.7608 0.9736 0.4022   0.111556
 H 0.9701 0.2929 0.505   0.090472
 H 0.9561 0.4541 0.4724   0.096254
 H 0.9788 0.4406 0.2572   0.097736
 H 0.9874 0.2826 0.2889   0.108857
 H 0.8921 0.7659 0.4064   0.103152
 H 0.8844 0.613 0.4362   0.112425
 H 0.0452 0.555 0.2353   0.110217
 H 0.0486 0.711 0.2053   0.094911
 C 0.031 0.82 0.9997   0.694951
 C 0.025 0.724 0.9988   -0.102919
 C 0.0531 0.6471 0.0544   -0.040109
 C 0.0461 0.5585 0.0541   -0.133201
 C 0.006 0.5462 0.9993   0.054412
 C 0.9791 0.6235 0.9425   -0.131442
 C 0.9902 0.7108 0.9419   -0.0343
 C 0.167 0.992 0.9208   0.709812
 C 0.2703 0.9817 0.9003   -0.123137
 C 0.3222 0.9718 0.9548   -0.034476
 C 0.4194 0.9644 0.9348   -0.13327
 C 0.4647 0.9691 0.8603   0.054346
 C 0.4116 0.9772 0.8075   -0.132155
 C 0.3162 0.9828 0.8263   -0.029728
 C 0.8514 0.9834 0.7851   0.712584
 C 0.7537 0.9741 0.8032   -0.141877
 C 0.7236 0.9232 0.8723   -0.029619
 C 0.6315 0.9191 0.8902   -0.135924
 C 0.5663 0.9655 0.841   0.058051
 C 0.5968 0.0148 0.7699   -0.147474
 C 0.6906 0.0172 0.7523   -0.016538
 C 0.18 0.969 0.5003   0.694951
 C 0.276 0.975 0.5012   -0.102919
 C 0.3529 0.9469 0.4456   -0.040109
 C 0.4415 0.9539 0.4459   -0.133201
 C 0.4538 0.994 0.5007   0.054412
 C 0.3765 0.0209 0.5575   -0.131441
 C 0.2892 0.0098 0.5581   -0.0343
 C 0.008 0.833 0.5792   0.709812
 C 0.0183 0.7297 0.5997   -0.123137
 C 0.0282 0.6778 0.5452   -0.034476
 C 0.0356 0.5806 0.5652   -0.13327
 C 0.0309 0.5353 0.6397   0.054346
 C 0.0228 0.5884 0.6925   -0.132155
 C 0.0172 0.6838 0.6737   -0.029727
 C 0.0166 0.1486 0.7149   0.712584
 C 0.0259 0.2463 0.6968   -0.141877
 C 0.0768 0.2764 0.6277   -0.029619
 C 0.0809 0.3685 0.6098   -0.135924
 C 0.0345 0.4337 0.659   0.058051
 C 0.9852 0.4032 0.7301   -0.147474
 C 0.9828 0.3094 0.7477   -0.016538
 C 0.969 0.18 0.000300000000003   0.694951
 C 0.975 0.276 0.0012   -0.102919
 C 0.9469 0.3529 0.9456   -0.040109
 C 0.9539 0.4415 0.9459   -0.133201
 C 0.994 0.4538 0.000700000000002   0.054413
 C 0.0209 0.3765 0.0575   -0.131442
 C 0.0098 0.2892 0.0581   -0.0343
 C 0.833 0.008 0.0792   0.709812
 C 0.7297 0.0183 0.0997   -0.123137
 C 0.6778 0.0282 0.0452   -0.034476
 C 0.5806 0.0356 0.0652   -0.13327
 C 0.5353 0.0309 0.1397   0.054346
 C 0.5884 0.0228 0.1925   -0.132155
 C 0.6838 0.0172 0.1737   -0.029728
 C 0.1486 0.0166 0.2149   0.712584
 C 0.2463 0.0259 0.1968   -0.141877
 C 0.2764 0.0768 0.1277   -0.029619
 C 0.3685 0.0809 0.1098   -0.135924
 C 0.4337 0.0345 0.159   0.058051
 C 0.4032 0.9852 0.2301   -0.147474
 C 0.3094 0.9828 0.2477   -0.016538
 C 0.82 0.031 0.4997   0.694951
 C 0.724 0.025 0.4988   -0.102919
 C 0.6471 0.0531 0.5544   -0.040109
 C 0.5585 0.0461 0.5541   -0.133201
 C 0.5462 0.006 0.4993   0.054413
 C 0.6235 0.9791 0.4425   -0.131442
 C 0.7108 0.9902 0.4419   -0.034299
 C 0.992 0.167 0.4208   0.709812
 C 0.9817 0.2703 0.4003   -0.123137
 C 0.9718 0.3222 0.4548   -0.034476
 C 0.9644 0.4194 0.4348   -0.13327
 C 0.9691 0.4647 0.3603   0.054346
 C 0.9772 0.4116 0.3075   -0.132155
 C 0.9828 0.3162 0.3263   -0.029727
 C 0.9834 0.8514 0.2851   0.712584
 C 0.9741 0.7537 0.3032   -0.141877
 C 0.9232 0.7236 0.3723   -0.029619
 C 0.9191 0.6315 0.3902   -0.135924
 C 0.9655 0.5663 0.341   0.058051
 C 0.0148 0.5968 0.2699   -0.147474
 C 0.0172 0.6906 0.2523   -0.016538
 O 0.0428 0.8336 0.0604   -0.630408
 O 0.9759 0.1209 0.0596   -0.551443
 O 0.1291 0.9871 0.9892   -0.672275
 O 0.1214 0.0098 0.8686   -0.568017
 O 0.90032 0.95792 0.8379   -0.623282
 O 0.8785 0.0173 0.719   -0.609719
 O 0.1664 0.9572 0.4396   -0.630408
 O 0.8791 0.0241 0.4404   -0.551443
 O 0.0129 0.8709 0.5108   -0.672275
 O 0.9902 0.8786 0.6314   -0.568017
 O 0.04208 0.09968 0.6621   -0.623282
 O 0.9827 0.1215 0.781   -0.609719
 O 0.9572 0.1664 0.9396   -0.630408
 O 0.0241 0.8791 0.9404   -0.551443
 O 0.8709 0.0129 0.0108   -0.672275
 O 0.8786 0.9902 0.1314   -0.568017
 O 0.09968 0.04208 0.1621   -0.623282
 O 0.1215 0.9827 0.281   -0.609719
 O 0.8336 0.0428 0.5604   -0.630408
 O 0.1209 0.9759 0.5596   -0.551443
 O 0.9871 0.1291 0.4892   -0.672275
 O 0.0098 0.1214 0.3686   -0.568017
 O 0.95792 0.90032 0.3379   -0.623282
 O 0.0173 0.8785 0.219   -0.609719
