{'_ref': 'TBD', '_srcid': 'CAKYAQ_clean', 'submitters': [{'name': 'Dalar Nazarian Jeff Camp and David Sholl', 'email': 'dalar@gatech.edu jcamp6@gatech.edu'}], '_method': 'VASP DFT with PBE;DDEC'}
data_Cu4H24WC36S4(N9Cl)2
_symmetry_space_group_name_H-M   'P 1'
_cell_length_a   13.82940000
_cell_length_b   20.40320028
_cell_length_c   20.40320000
_cell_angle_alpha   104.02809840
_cell_angle_beta   90.00000000
_cell_angle_gamma   90.00000000
_symmetry_Int_Tables_number   1
_chemical_formula_structural   Cu4H24WC36S4(N9Cl)2
_chemical_formula_sum   'Cu16 H96 W4 C144 S16 N72 Cl8'
_cell_volume   5585.35624197
_cell_formula_units_Z   4
loop_
 _symmetry_equiv_pos_site_id
 _symmetry_equiv_pos_as_xyz
  1  'x, y, z'
loop_
 _atom_site_label
 _atom_site_fract_x
 _atom_site_fract_y
 _atom_site_fract_z
 _atom_site_charge
 Cu 0.82926 0.22488 0.11336   0.351567
 Cu 0.81792 0.11702 0.2435   0.31073
 Cu 0.82926 0.27512 0.38664   0.351567
 Cu 0.81792 0.38298 0.2565   0.31073
 Cu 0.67074 0.88664 0.77512   0.351567
 Cu 0.68208 0.7565 0.88298   0.31073
 Cu 0.67074 0.61336 0.72488   0.351567
 Cu 0.68208 0.7435 0.61702   0.31073
 Cu 0.17074 0.77512 0.88664   0.351567
 Cu 0.18208 0.88298 0.7565   0.31073
 Cu 0.17074 0.72488 0.61336   0.351567
 Cu 0.18208 0.61702 0.7435   0.31073
 Cu 0.32926 0.11336 0.22488   0.351567
 Cu 0.31792 0.2435 0.11702   0.31073
 Cu 0.32926 0.38664 0.27512   0.351567
 Cu 0.31792 0.2565 0.38298   0.31073
 H 0.8226 0.2737 0.9867   0.071086
 H 0.732 0.3343 0.9303   0.12406
 H 0.5272 0.3497 0.0727   0.113559
 H 0.6246 0.2848 0.1238   0.0666
 H 0.4899 0.5136 0.7966   0.107354
 H 0.3886 0.5705 0.7403   0.078028
 H 0.1737 0.5536 0.8584   0.06402
 H 0.2664 0.4887 0.9123   0.097613
 H 0.9103 0.9748 0.2336   0.07407
 H 0.0475 0.9217 0.1879   0.11947
 H 0.0774 0.0579 0.0805   0.12119
 H 0.9404 0.109 0.13   0.03647
 H 0.8226 0.2263 0.5133   0.071086
 H 0.732 0.1657 0.5697   0.12406
 H 0.5272 0.1503 0.4273   0.113559
 H 0.6246 0.2152 0.3762   0.0666
 H 0.4899 0.9864 0.7034   0.107354
 H 0.3886 0.9295 0.7597   0.078028
 H 0.1737 0.9464 0.6416   0.06402
 H 0.2664 0.0113 0.5877   0.097613
 H 0.9103 0.5252 0.2664   0.07407
 H 0.0475 0.5783 0.3121   0.11947
 H 0.0774 0.4421 0.4195   0.12119
 H 0.9404 0.391 0.37   0.03647
 H 0.6774 0.0133 0.7263   0.071086
 H 0.768 0.0697 0.6657   0.124062
 H 0.9728 0.9273 0.6503   0.113559
 H 0.8754 0.8762 0.7152   0.0666
 H 0.0101 0.2034 0.4864   0.107354
 H 0.1114 0.2597 0.4295   0.078028
 H 0.3263 0.1416 0.4464   0.06402
 H 0.2336 0.0877 0.5113   0.097613
 H 0.5897 0.7664 0.0252   0.07407
 H 0.4525 0.8121 0.0783   0.11947
 H 0.4226 0.9195 0.9421   0.121189
 H 0.5596 0.87 0.891   0.03647
 H 0.6774 0.4867 0.7737   0.071086
 H 0.768 0.4303 0.8343   0.124062
 H 0.9728 0.5727 0.8497   0.113559
 H 0.8754 0.6238 0.7848   0.0666
 H 0.0101 0.2966 0.0136   0.107354
 H 0.1114 0.2403 0.0705   0.078028
 H 0.3263 0.3584 0.0536   0.06402
 H 0.2336 0.4123 0.9887   0.097613
 H 0.5897 0.7336 0.4748   0.07407
 H 0.4525 0.6879 0.4217   0.11947
 H 0.4226 0.5805 0.5579   0.121189
 H 0.5596 0.63 0.609   0.03647
 H 0.1774 0.7263 0.0133   0.071086
 H 0.268 0.6657 0.0697   0.124061
 H 0.4728 0.6503 0.9273   0.113559
 H 0.3754 0.7152 0.8762   0.0666
 H 0.5101 0.4864 0.2034   0.107354
 H 0.6114 0.4295 0.2597   0.078028
 H 0.8263 0.4464 0.1416   0.06402
 H 0.7336 0.5113 0.0877   0.097613
 H 0.0897 0.0252 0.7664   0.07407
 H 0.9525 0.0783 0.8121   0.119471
 H 0.9226 0.9421 0.9195   0.12119
 H 0.0596 0.891 0.87   0.03647
 H 0.1774 0.7737 0.4867   0.071086
 H 0.268 0.8343 0.4303   0.124061
 H 0.4728 0.8497 0.5727   0.113559
 H 0.3754 0.7848 0.6238   0.0666
 H 0.5101 0.0136 0.2966   0.107354
 H 0.6114 0.0705 0.2403   0.078028
 H 0.8263 0.0536 0.3584   0.06402
 H 0.7336 0.9887 0.4123   0.097613
 H 0.0897 0.4748 0.7336   0.07407
 H 0.9525 0.4217 0.6879   0.119471
 H 0.9226 0.5579 0.5805   0.12119
 H 0.0596 0.609 0.63   0.03647
 H 0.3226 0.9867 0.2737   0.071086
 H 0.232 0.9303 0.3343   0.124062
 H 0.0272 0.0727 0.3497   0.113558
 H 0.1246 0.1238 0.2848   0.0666
 H 0.9899 0.7966 0.5136   0.107354
 H 0.8886 0.7403 0.5705   0.078028
 H 0.6737 0.8584 0.5536   0.06402
 H 0.7664 0.9123 0.4887   0.097613
 H 0.4103 0.2336 0.9748   0.07407
 H 0.5475 0.1879 0.9217   0.11947
 H 0.5774 0.0805 0.0579   0.121189
 H 0.4404 0.13 0.109   0.03647
 H 0.3226 0.5133 0.2263   0.071086
 H 0.232 0.5697 0.1657   0.124062
 H 0.0272 0.4273 0.1503   0.113558
 H 0.1246 0.3762 0.2152   0.0666
 H 0.9899 0.7034 0.9864   0.107354
 H 0.8886 0.7597 0.9295   0.078028
 H 0.6737 0.6416 0.9464   0.06402
 H 0.7664 0.5877 0.0113   0.097613
 H 0.4103 0.2664 0.5252   0.07407
 H 0.5475 0.3121 0.5783   0.11947
 H 0.5774 0.4195 0.4421   0.121189
 H 0.4404 0.37 0.391   0.03647
 W 0.82547 0.25 0.25   0.489863
 W 0.67453 0.75 0.75   0.489863
 W 0.17453 0.75 0.75   0.489863
 W 0.32547 0.25 0.25   0.489863
 C 0.7625 0.2892 0.0042   0.161333
 C 0.7095 0.3254 0.9702   -0.139965
 C 0.619 0.3494 0.997   0.011084
 C 0.587 0.3346 0.0544   -0.176346
 C 0.6469 0.296 0.0848   0.15427
 C 0.5581 0.3906 0.9618   0.33217
 C 0.4514 0.4581 0.8985   0.3461
 C 0.3895 0.4938 0.8618   -0.003687
 C 0.4253 0.5198 0.8092   -0.124166
 C 0.3644 0.5548 0.7762   0.141934
 C 0.2374 0.5442 0.8446   0.145187
 C 0.2938 0.506 0.8784   -0.137606
 C 0.9449 0.9924 0.2026   0.137304
 C 0.0266 0.96 0.175   -0.154789
 C 0.0784 0.9835 0.1283   0.031294
 C 0.0447 0.0399 0.1119   -0.131266
 C 0.9624 0.0704 0.142   0.182741
 C 0.1716 0.9526 0.0988   0.35058
 C 0.7625 0.2108 0.4958   0.161333
 C 0.7095 0.1746 0.5298   -0.139965
 C 0.619 0.1506 0.503   0.011084
 C 0.587 0.1654 0.4456   -0.176346
 C 0.6469 0.204 0.4152   0.15427
 C 0.5581 0.1094 0.5382   0.33217
 C 0.4514 0.0419 0.6015   0.346099
 C 0.3895 0.0062 0.6382   -0.003687
 C 0.4253 0.9802 0.6908   -0.124166
 C 0.3644 0.9452 0.7238   0.141934
 C 0.2374 0.9558 0.6554   0.145187
 C 0.2938 0.994 0.6216   -0.137606
 C 0.9449 0.5076 0.2974   0.137304
 C 0.0266 0.54 0.325   -0.154789
 C 0.0784 0.5165 0.3717   0.031294
 C 0.0447 0.4601 0.3881   -0.131266
 C 0.9624 0.4296 0.358   0.182741
 C 0.1716 0.5474 0.4012   0.35058
 C 0.7375 0.9958 0.7108   0.161334
 C 0.7905 0.0298 0.6746   -0.139965
 C 0.881 0.003 0.6506   0.011084
 C 0.913 0.9456 0.6654   -0.176346
 C 0.8531 0.9152 0.704   0.15427
 C 0.9419 0.0382 0.6094   0.33217
 C 0.0486 0.1015 0.5419   0.346099
 C 0.1105 0.1382 0.5062   -0.003686
 C 0.0747 0.1908 0.4802   -0.124166
 C 0.1356 0.2238 0.4452   0.141934
 C 0.2626 0.1554 0.4558   0.145187
 C 0.2062 0.1216 0.494   -0.137607
 C 0.5551 0.7974 0.0076   0.137304
 C 0.4734 0.825 0.04   -0.154789
 C 0.4216 0.8717 0.0165   0.031294
 C 0.4553 0.8881 0.9601   -0.131267
 C 0.5376 0.858 0.9296   0.182741
 C 0.3284 0.9012 0.0474   0.350571
 C 0.7375 0.5042 0.7892   0.161334
 C 0.7905 0.4702 0.8254   -0.139965
 C 0.881 0.497 0.8494   0.011084
 C 0.913 0.5544 0.8346   -0.176346
 C 0.8531 0.5848 0.796   0.15427
 C 0.9419 0.4618 0.8906   0.33217
 C 0.0486 0.3985 0.9581   0.346099
 C 0.1105 0.3618 0.9938   -0.003686
 C 0.0747 0.3092 0.0198   -0.124166
 C 0.1356 0.2762 0.0548   0.141934
 C 0.2626 0.3446 0.0442   0.145187
 C 0.2062 0.3784 0.006   -0.137607
 C 0.5551 0.7026 0.4924   0.137305
 C 0.4734 0.675 0.46   -0.154789
 C 0.4216 0.6283 0.4835   0.031294
 C 0.4553 0.6119 0.5399   -0.131267
 C 0.5376 0.642 0.5704   0.182741
 C 0.3284 0.5988 0.4526   0.350571
 C 0.2375 0.7108 0.9958   0.161333
 C 0.2905 0.6746 0.0298   -0.139965
 C 0.381 0.6506 0.003   0.011084
 C 0.413 0.6654 0.9456   -0.176346
 C 0.3531 0.704 0.9152   0.15427
 C 0.4419 0.6094 0.0382   0.33217
 C 0.5486 0.5419 0.1015   0.3461
 C 0.6105 0.5062 0.1382   -0.003687
 C 0.5747 0.4802 0.1908   -0.124165
 C 0.6356 0.4452 0.2238   0.141935
 C 0.7626 0.4558 0.1554   0.145187
 C 0.7062 0.494 0.1216   -0.137606
 C 0.0551 0.0076 0.7974   0.137304
 C 0.9734 0.04 0.825   -0.154789
 C 0.9216 0.0165 0.8717   0.031294
 C 0.9553 0.9601 0.8881   -0.131267
 C 0.0376 0.9296 0.858   0.182741
 C 0.8284 0.0474 0.9012   0.35058
 C 0.2375 0.7892 0.5042   0.161333
 C 0.2905 0.8254 0.4702   -0.139965
 C 0.381 0.8494 0.497   0.011084
 C 0.413 0.8346 0.5544   -0.176346
 C 0.3531 0.796 0.5848   0.15427
 C 0.4419 0.8906 0.4618   0.33217
 C 0.5486 0.9581 0.3985   0.346099
 C 0.6105 0.9938 0.3618   -0.003687
 C 0.5747 0.0198 0.3092   -0.124165
 C 0.6356 0.0548 0.2762   0.141935
 C 0.7626 0.0442 0.3446   0.145187
 C 0.7062 0.006 0.3784   -0.137606
 C 0.0551 0.4924 0.7026   0.137304
 C 0.9734 0.46 0.675   -0.154789
 C 0.9216 0.4835 0.6283   0.031294
 C 0.9553 0.5399 0.6119   -0.131267
 C 0.0376 0.5704 0.642   0.182741
 C 0.8284 0.4526 0.5988   0.35058
 C 0.2625 0.0042 0.2892   0.161334
 C 0.2095 0.9702 0.3254   -0.139966
 C 0.119 0.997 0.3494   0.011084
 C 0.087 0.0544 0.3346   -0.176346
 C 0.1469 0.0848 0.296   0.15427
 C 0.0581 0.9618 0.3906   0.33217
 C 0.9514 0.8985 0.4581   0.346099
 C 0.8895 0.8618 0.4938   -0.003686
 C 0.9253 0.8092 0.5198   -0.124166
 C 0.8644 0.7762 0.5548   0.141935
 C 0.7374 0.8446 0.5442   0.145187
 C 0.7938 0.8784 0.506   -0.137607
 C 0.4449 0.2026 0.9924   0.137305
 C 0.5266 0.175 0.96   -0.154789
 C 0.5784 0.1283 0.9835   0.031294
 C 0.5447 0.1119 0.0399   -0.131267
 C 0.4624 0.142 0.0704   0.182741
 C 0.6716 0.0988 0.9526   0.350571
 C 0.2625 0.4958 0.2108   0.161334
 C 0.2095 0.5298 0.1746   -0.139966
 C 0.119 0.503 0.1506   0.011084
 C 0.087 0.4456 0.1654   -0.176346
 C 0.1469 0.4152 0.204   0.15427
 C 0.0581 0.5382 0.1094   0.33217
 C 0.9514 0.6015 0.0419   0.346099
 C 0.8895 0.6382 0.0062   -0.003686
 C 0.9253 0.6908 0.9802   -0.124166
 C 0.8644 0.7238 0.9452   0.141935
 C 0.7374 0.6554 0.9558   0.145187
 C 0.7938 0.6216 0.994   -0.137607
 C 0.4449 0.2974 0.5076   0.137305
 C 0.5266 0.325 0.54   -0.154789
 C 0.5784 0.3717 0.5165   0.031294
 C 0.5447 0.3881 0.4601   -0.131267
 C 0.4624 0.358 0.4296   0.182741
 C 0.6716 0.4012 0.5474   0.350571
 S 0.73293 0.17466 0.17964   -0.328513
 S 0.9179 0.30336 0.18992   -0.34402
 S 0.73293 0.32534 0.32036   -0.328513
 S 0.9179 0.19664 0.31008   -0.34402
 S 0.76707 0.82036 0.82534   -0.328512
 S 0.5821 0.81008 0.69664   -0.34402
 S 0.76707 0.67964 0.67466   -0.328512
 S 0.5821 0.68992 0.80336   -0.34402
 S 0.26707 0.82534 0.82036   -0.328513
 S 0.0821 0.69664 0.81008   -0.344021
 S 0.26707 0.67466 0.67964   -0.328513
 S 0.0821 0.80336 0.68992   -0.344021
 S 0.23293 0.17964 0.17466   -0.328513
 S 0.4179 0.18992 0.30336   -0.344021
 S 0.23293 0.32036 0.32534   -0.328513
 S 0.4179 0.31008 0.19664   -0.344021
 N 0.7343 0.27375 0.06185   -0.272423
 N 0.5963 0.4083 0.9077   -0.185016
 N 0.541 0.445 0.8762   -0.175759
 N 0.4699 0.4067 0.9855   -0.203642
 N 0.4156 0.4433 0.9523   -0.197698
 N 0.2706 0.56731 0.79429   -0.261026
 N 0.9127 0.0474 0.1872   -0.273887
 N 0.2092 0.9762 0.05   -0.16667
 N 0.2082 0.9037 0.1227   -0.191415
 N 0.7343 0.22625 0.43815   -0.272423
 N 0.5963 0.0917 0.5923   -0.185016
 N 0.541 0.055 0.6238   -0.175759
 N 0.4699 0.0933 0.5145   -0.203643
 N 0.4156 0.0567 0.5477   -0.197698
 N 0.2706 0.93269 0.70571   -0.261026
 N 0.9127 0.4526 0.3128   -0.273887
 N 0.2092 0.5238 0.45   -0.16667
 N 0.2082 0.5963 0.3773   -0.191415
 N 0.7657 0.93815 0.72625   -0.272424
 N 0.9037 0.0923 0.5917   -0.185016
 N 0.959 0.1238 0.555   -0.175759
 N 0.0301 0.0145 0.5933   -0.203643
 N 0.0844 0.0477 0.5567   -0.197698
 N 0.2294 0.20571 0.43269   -0.261027
 N 0.5873 0.8128 0.9526   -0.273888
 N 0.2908 0.95 0.0238   -0.166628
 N 0.2918 0.8773 0.0963   -0.191386
 N 0.7657 0.56185 0.77375   -0.272424
 N 0.9037 0.4077 0.9083   -0.185016
 N 0.959 0.3762 0.945   -0.175759
 N 0.0301 0.4855 0.9067   -0.203643
 N 0.0844 0.4523 0.9433   -0.197698
 N 0.2294 0.29429 0.06731   -0.261027
 N 0.5873 0.6872 0.5474   -0.273888
 N 0.2908 0.55 0.4762   -0.166628
 N 0.2918 0.6227 0.4037   -0.191386
 N 0.2657 0.72625 0.93815   -0.272423
 N 0.4037 0.5917 0.0923   -0.185016
 N 0.459 0.555 0.1238   -0.175759
 N 0.5301 0.5933 0.0145   -0.203643
 N 0.5844 0.5567 0.0477   -0.197698
 N 0.7294 0.43269 0.20571   -0.261027
 N 0.0873 0.9526 0.8128   -0.273887
 N 0.7908 0.0238 0.95   -0.16667
 N 0.7918 0.0963 0.8773   -0.191415
 N 0.2657 0.77375 0.56185   -0.272423
 N 0.4037 0.9083 0.4077   -0.185016
 N 0.459 0.945 0.3762   -0.175759
 N 0.5301 0.9067 0.4855   -0.203643
 N 0.5844 0.9433 0.4523   -0.197698
 N 0.7294 0.06731 0.29429   -0.261027
 N 0.0873 0.5474 0.6872   -0.273887
 N 0.7908 0.4762 0.55   -0.16667
 N 0.7918 0.4037 0.6227   -0.191415
 N 0.2343 0.06185 0.27375   -0.272424
 N 0.0963 0.9077 0.4083   -0.185017
 N 0.041 0.8762 0.445   -0.175759
 N 0.9699 0.9855 0.4067   -0.203643
 N 0.9156 0.9523 0.4433   -0.197698
 N 0.7706 0.79429 0.56731   -0.261027
 N 0.4127 0.1872 0.0474   -0.273888
 N 0.7092 0.05 0.9762   -0.166628
 N 0.7082 0.1227 0.9037   -0.191386
 N 0.2343 0.43815 0.22625   -0.272424
 N 0.0963 0.5923 0.0917   -0.185017
 N 0.041 0.6238 0.055   -0.175759
 N 0.9699 0.5145 0.0933   -0.203643
 N 0.9156 0.5477 0.0567   -0.197698
 N 0.7706 0.70571 0.93269   -0.261027
 N 0.4127 0.3128 0.4526   -0.273888
 N 0.7092 0.45 0.5238   -0.166628
 N 0.7082 0.3773 0.5963   -0.191386
 Cl 0.92324 0.16847 0.02595   -0.506881
 Cl 0.92324 0.33153 0.47405   -0.506881
 Cl 0.57676 0.97405 0.83153   -0.506882
 Cl 0.57676 0.52595 0.66847   -0.506882
 Cl 0.07676 0.83153 0.97405   -0.506881
 Cl 0.07676 0.66847 0.52595   -0.506881
 Cl 0.42324 0.02595 0.16847   -0.506882
 Cl 0.42324 0.47405 0.33153   -0.506882
