{'_ref': 'TBD', '_srcid': 'CAKYAQ_clean', 'submitters': [{'name': 'Dalar Nazarian Jeff Camp and David Sholl', 'email': 'dalar@gatech.edu jcamp6@gatech.edu'}], '_method': 'VASP DFT with PBE;DDEC'}
data_YbH3(C3O2)3
_symmetry_space_group_name_H-M   'P 1'
_cell_length_a   10.78200000
_cell_length_b   10.88100017
_cell_length_c   15.51000000
_cell_angle_alpha   90.00000000
_cell_angle_beta   90.00000000
_cell_angle_gamma   100.25999730
_symmetry_Int_Tables_number   1
_chemical_formula_structural   YbH3(C3O2)3
_chemical_formula_sum   'Yb4 H12 C36 O24'
_cell_volume   1790.5204808
_cell_formula_units_Z   4
loop_
 _symmetry_equiv_pos_site_id
 _symmetry_equiv_pos_as_xyz
  1  'x, y, z'
loop_
 _atom_site_label
 _atom_site_fract_x
 _atom_site_fract_y
 _atom_site_fract_z
 _atom_site_charge
 Yb 0.14397 0.39856 0.898   1.487596
 Yb 0.35603 0.10144 0.398   1.487593
 Yb 0.85603 0.60144 0.102   1.487596
 Yb 0.64397 0.89856 0.602   1.487593
 H 0.4482 0.1835 0.765   0.110751
 H 0.8187 0.2229 0.8136   0.098538
 H 0.6014 0.4122 0.9542   0.110978
 H 0.0518 0.3165 0.265   0.110751
 H 0.6813 0.2771 0.3136   0.098538
 H 0.8986 0.0878 0.4542   0.110978
 H 0.5518 0.8165 0.235   0.110751
 H 0.1813 0.7771 0.1864   0.098538
 H 0.3986 0.5878 0.0458   0.110978
 H 0.9482 0.6835 0.735   0.110751
 H 0.3187 0.7229 0.6864   0.098538
 H 0.1014 0.9122 0.5458   0.110978
 C 0.3786 0.3362 0.8776   0.64612
 C 0.5052 0.3029 0.8622   -0.156959
 C 0.5183 0.2198 0.7968   0.032619
 C 0.636 0.1897 0.7781   -0.154401
 C 0.7403 0.2431 0.8257   0.035449
 C 0.7281 0.3269 0.8917   -0.185395
 C 0.6099 0.3565 0.91   0.046625
 C 0.6445 0.0978 0.7076   0.624677
 C 0.842 0.3855 0.943   0.769505
 C 0.1214 0.1638 0.3776   0.64612
 C 0.9948 0.1971 0.3622   -0.156959
 C 0.9817 0.2802 0.2968   0.032619
 C 0.864 0.3103 0.2781   -0.154401
 C 0.7597 0.2569 0.3257   0.035449
 C 0.7719 0.1731 0.3917   -0.185396
 C 0.8901 0.1435 0.41   0.046625
 C 0.8555 0.4022 0.2076   0.624677
 C 0.658 0.1145 0.443   0.769505
 C 0.6214 0.6638 0.1224   0.64612
 C 0.4948 0.6971 0.1378   -0.156959
 C 0.4817 0.7802 0.2032   0.032619
 C 0.364 0.8103 0.2219   -0.154401
 C 0.2597 0.7569 0.1743   0.035449
 C 0.2719 0.6731 0.1083   -0.185395
 C 0.3901 0.6435 0.09   0.046625
 C 0.3555 0.9022 0.2924   0.624677
 C 0.158 0.6145 0.057   0.769505
 C 0.8786 0.8362 0.6224   0.64612
 C 0.0052 0.8029 0.6378   -0.156959
 C 0.0183 0.7198 0.7032   0.032619
 C 0.136 0.6897 0.7219   -0.154401
 C 0.2403 0.7431 0.6743   0.035449
 C 0.2281 0.8269 0.6083   -0.185396
 C 0.1099 0.8565 0.59   0.046625
 C 0.1445 0.5978 0.7924   0.624677
 C 0.342 0.8855 0.557   0.769505
 O 0.2883 0.2903 0.8299   -0.594204
 O 0.364 0.4118 0.9368   -0.515393
 O 0.7453 0.055 0.6971   -0.555326
 O 0.55 0.0611 0.6614   -0.548527
 O 0.8309 0.4772 0.9889   -0.596803
 O 0.9396 0.3382 0.9368   -0.655846
 O 0.2117 0.2097 0.3299   -0.594204
 O 0.136 0.0882 0.4368   -0.515393
 O 0.7547 0.445 0.1971   -0.555327
 O 0.95 0.4389 0.1614   -0.548527
 O 0.6691 0.0228 0.4889   -0.596803
 O 0.5604 0.1618 0.4368   -0.655846
 O 0.7117 0.7097 0.1701   -0.594204
 O 0.636 0.5882 0.0632   -0.515393
 O 0.2547 0.945 0.3029   -0.555326
 O 0.45 0.9389 0.3386   -0.548527
 O 0.1691 0.5228 0.0111   -0.596803
 O 0.0604 0.6618 0.0632   -0.655846
 O 0.7883 0.7903 0.6701   -0.594204
 O 0.864 0.9118 0.5632   -0.515393
 O 0.2453 0.555 0.8029   -0.555327
 O 0.05 0.5611 0.8386   -0.548527
 O 0.3309 0.9772 0.5111   -0.596803
 O 0.4396 0.8382 0.5632   -0.655846
