{'_ref': 'TBD', '_srcid': 'CAKYAQ_clean', 'submitters': [{'name': 'Dalar Nazarian Jeff Camp and David Sholl', 'email': 'dalar@gatech.edu jcamp6@gatech.edu'}], '_method': 'VASP DFT with PBE;DDEC'}
data_Co2H22C36N4O9
_symmetry_space_group_name_H-M   'P 1'
_cell_length_a   8.31999996
_cell_length_b   11.37499984
_cell_length_c   12.93465193
_cell_angle_alpha   104.39505327
_cell_angle_beta   108.76037424
_cell_angle_gamma   90.00000249
_symmetry_Int_Tables_number   1
_chemical_formula_structural   Co2H22C36N4O9
_chemical_formula_sum   'Co2 H22 C36 N4 O9'
_cell_volume   1118.43470166
_cell_formula_units_Z   1
loop_
 _symmetry_equiv_pos_site_id
 _symmetry_equiv_pos_as_xyz
  1  'x, y, z'
loop_
 _atom_site_label
 _atom_site_fract_x
 _atom_site_fract_y
 _atom_site_fract_z
 _atom_site_charge
 Co 0.69331 0.93656 0.3704   0.929293
 Co 0.32291 0.06344 0.6296   0.928256
 H 0.0994 0.8137 0.9596   0.143455
 H 0.8861 0.7181 0.7884   0.086274
 H 0.8282 0.7949 0.6364   0.078493
 H 0.675 0.1978 0.5284   0.07963
 H 0.668 0.3932 0.5222   0.103935
 H 0.701 0.3011 0.2138   0.140129
 H 0.7157 0.0988 0.2224   0.109394
 H 0.4914 0.5254 0.4252   0.122382
 H 0.4613 0.7261 0.4172   0.084236
 H 0.8731 0.7258 0.319   0.098526
 H 0.9028 0.5251 0.3268   0.128384
 H 0.1398 0.1863 0.0404   0.142985
 H 0.0977 0.2819 0.2116   0.085879
 H 0.1918 0.2051 0.3636   0.079116
 H 0.1466 0.8022 0.4716   0.079529
 H 0.1458 0.6068 0.4778   0.103951
 H 0.4872 0.6989 0.7862   0.140441
 H 0.4933 0.9012 0.7776   0.109814
 H 0.0662 0.4746 0.5748   0.122272
 H 0.0441 0.2739 0.5828   0.084405
 H 0.5541 0.2742 0.681   0.098757
 H 0.576 0.4749 0.6732   0.128133
 C 0.9503 0.9943 0.6098   0.718947
 C 0.9924 0.9477 0.7124   -0.109927
 C 0.1236 0.9987 0.8076   -0.176606
 C 0.1584 0.9508 0.9036   0.247073
 C 0.0742 0.8467 0.8978   -0.188111
 C 0.9463 0.7897 0.7944   -0.084051
 C 0.9093 0.8364 0.7044   -0.095742
 C 0.6827 0.2175 0.4644   0.192058
 C 0.6784 0.3345 0.4608   -0.211587
 C 0.6888 0.3707 0.3682   0.098514
 C 0.6987 0.2811 0.2788   -0.181758
 C 0.7055 0.1585 0.2834   0.181557
 C 0.7001 0.5053 0.3768   0.097227
 C 0.5678 0.5655 0.4038   -0.201954
 C 0.5499 0.6858 0.3992   0.204048
 C 0.7965 0.6856 0.3402   0.143501
 C 0.8143 0.5654 0.345   -0.188162
 C 0.2232 0.1173 0.829   0.69867
 C 0.3405 0.0057 0.3902   0.718055
 C 0.28 0.0523 0.2876   -0.107925
 C 0.316 0.0013 0.1924   -0.176844
 C 0.2548 0.0492 0.0964   0.245785
 C 0.1764 0.1533 0.1022   -0.185988
 C 0.1519 0.2103 0.2056   -0.085319
 C 0.2049 0.1636 0.2956   -0.096012
 C 0.2183 0.7825 0.5356   0.191739
 C 0.2176 0.6655 0.5392   -0.212097
 C 0.3206 0.6293 0.6318   0.099421
 C 0.4199 0.7189 0.7212   -0.182523
 C 0.4221 0.8415 0.7166   0.181147
 C 0.3233 0.4947 0.6232   0.096826
 C 0.164 0.4345 0.5962   -0.200979
 C 0.1507 0.3142 0.6008   0.202205
 C 0.4563 0.3144 0.6598   0.143269
 C 0.4693 0.4346 0.655   -0.188493
 C 0.3942 0.8827 0.171   0.699177
 N 0.6641 0.7458 0.3674   -0.319078
 N 0.6977 0.1283 0.379   -0.37464
 N 0.2967 0.2542 0.6326   -0.317134
 N 0.3187 0.8717 0.621   -0.373907
 O 0.81052 0.9652 0.54324   -0.604932
 O 0.06021 0.0505 0.59562   -0.604614
 O 0.15807 0.21 0.86354   -0.565988
 O 0.35947 0.1112 0.80254   -0.643892
 O 0.26728 0.0348 0.45676   -0.605273
 O 0.46459 0.9495 0.40438   -0.604344
 O 0.29453 0.79 0.13646   -0.565879
 O 0.55693 0.8888 0.19746   -0.644557
 O 0.2982 0.0 0.0   -0.268571
