{'_ref': 'TBD', '_srcid': 'CAKYAQ_clean', 'submitters': [{'name': 'Dalar Nazarian Jeff Camp and David Sholl', 'email': 'dalar@gatech.edu jcamp6@gatech.edu'}], '_method': 'VASP DFT with PBE;DDEC'}
data_Zn2H3(C3O2)3
_symmetry_space_group_name_H-M   'P 1'
_cell_length_a   13.38500000
_cell_length_b   14.71200000
_cell_length_c   15.57300000
_cell_angle_alpha   90.00000000
_cell_angle_beta   90.00000000
_cell_angle_gamma   90.00000000
_symmetry_Int_Tables_number   1
_chemical_formula_structural   Zn2H3(C3O2)3
_chemical_formula_sum   'Zn8 H12 C36 O24'
_cell_volume   3066.63702876
_cell_formula_units_Z   4
loop_
 _symmetry_equiv_pos_site_id
 _symmetry_equiv_pos_as_xyz
  1  'x, y, z'
loop_
 _atom_site_label
 _atom_site_fract_x
 _atom_site_fract_y
 _atom_site_fract_z
 _atom_site_charge
 Zn 0.21248 0.7027 0.79077   1.123531
 Zn 0.04996 0.55194 0.90672   0.387666
 Zn 0.28752 0.2973 0.29077   1.123532
 Zn 0.45004 0.44806 0.40672   0.387666
 Zn 0.78752 0.2027 0.70923   1.123532
 Zn 0.95004 0.05194 0.59328   0.387667
 Zn 0.71248 0.7973 0.20923   1.123533
 Zn 0.54996 0.94806 0.09328   0.387667
 H 0.9034 0.776 0.9918   0.101625
 H 0.7567 0.0043 0.9234   0.102023
 H 0.9818 0.9089 0.7745   0.091548
 H 0.5966 0.224 0.4918   0.101625
 H 0.7433 0.9957 0.4234   0.102023
 H 0.5182 0.0911 0.2745   0.091548
 H 0.0966 0.276 0.5082   0.101625
 H 0.2433 0.5043 0.5766   0.102023
 H 0.0182 0.4089 0.7255   0.091548
 H 0.4034 0.724 0.0082   0.101625
 H 0.2567 0.4957 0.0766   0.102023
 H 0.4818 0.5911 0.2255   0.091548
 C 0.9561 0.8312 0.8801   -0.182332
 C 0.8952 0.8256 0.9534   0.045698
 C 0.8245 0.8899 0.9706   -0.178592
 C 0.8083 0.9613 0.913   0.030174
 C 0.8685 0.9691 0.8399   -0.177733
 C 0.9413 0.9038 0.8244   0.044379
 C 0.0331 0.7608 0.8632   0.709415
 C 0.7612 0.8857 0.0495   0.711157
 C 0.8563 0.0466 0.7792   0.695038
 C 0.5439 0.1688 0.3801   -0.182332
 C 0.6048 0.1744 0.4534   0.045698
 C 0.6755 0.1101 0.4706   -0.178592
 C 0.6917 0.0387 0.413   0.030174
 C 0.6315 0.0309 0.3399   -0.177733
 C 0.5587 0.0962 0.3244   0.044379
 C 0.4669 0.2392 0.3632   0.709415
 C 0.7388 0.1143 0.5495   0.711158
 C 0.6437 0.9534 0.2792   0.695038
 C 0.0439 0.3312 0.6199   -0.182332
 C 0.1048 0.3256 0.5466   0.045698
 C 0.1755 0.3899 0.5294   -0.178592
 C 0.1917 0.4613 0.587   0.030174
 C 0.1315 0.4691 0.6601   -0.177733
 C 0.0587 0.4038 0.6756   0.044379
 C 0.9669 0.2608 0.6368   0.709415
 C 0.2388 0.3857 0.4505   0.711157
 C 0.1437 0.5466 0.7208   0.695038
 C 0.4561 0.6688 0.1199   -0.182332
 C 0.3952 0.6744 0.0466   0.045698
 C 0.3245 0.6101 0.0294   -0.178592
 C 0.3083 0.5387 0.087   0.030174
 C 0.3685 0.5309 0.1601   -0.177733
 C 0.4413 0.5962 0.1756   0.044379
 C 0.5331 0.7392 0.1368   0.709415
 C 0.2612 0.6143 0.9505   0.711158
 C 0.3563 0.4534 0.2208   0.695038
 O 0.0932 0.7759 0.8026   -0.626511
 O 0.0343 0.6927 0.9129   -0.535292
 O 0.7767 0.8158 0.0977   -0.655392
 O 0.6994 0.9458 0.0647   -0.518073
 O 0.7808 0.0976 0.7844   -0.61519
 O 0.9261 0.0593 0.725   -0.553142
 O 0.4068 0.2241 0.3026   -0.626511
 O 0.4657 0.3073 0.4129   -0.535292
 O 0.7233 0.1842 0.5977   -0.655392
 O 0.8006 0.0542 0.5647   -0.518073
 O 0.7192 0.9024 0.2844   -0.61519
 O 0.5739 0.9407 0.225   -0.553142
 O 0.9068 0.2759 0.6974   -0.626511
 O 0.9657 0.1927 0.5871   -0.535292
 O 0.2233 0.3158 0.4023   -0.655391
 O 0.3006 0.4458 0.4353   -0.518073
 O 0.2192 0.5976 0.7156   -0.61519
 O 0.0739 0.5593 0.775   -0.553142
 O 0.5932 0.7241 0.1974   -0.626511
 O 0.5343 0.8073 0.0871   -0.535292
 O 0.2767 0.6842 0.9023   -0.655392
 O 0.1994 0.5542 0.9353   -0.518073
 O 0.2808 0.4024 0.2156   -0.61519
 O 0.4261 0.4407 0.275   -0.553142
