{'_ref': 'TBD', '_srcid': 'CAKYAQ_clean', 'submitters': [{'name': 'Dalar Nazarian Jeff Camp and David Sholl', 'email': 'dalar@gatech.edu jcamp6@gatech.edu'}], '_method': 'VASP DFT with PBE;DDEC'}
data_Zn2H3(C3O2)3
_symmetry_space_group_name_H-M   'P 1'
_cell_length_a   12.66200000
_cell_length_b   14.66200000
_cell_length_c   15.43400000
_cell_angle_alpha   90.00000000
_cell_angle_beta   90.00000000
_cell_angle_gamma   90.00000000
_symmetry_Int_Tables_number   1
_chemical_formula_structural   Zn2H3(C3O2)3
_chemical_formula_sum   'Zn8 H12 C36 O24'
_cell_volume   2865.3258659
_cell_formula_units_Z   4
loop_
 _symmetry_equiv_pos_site_id
 _symmetry_equiv_pos_as_xyz
  1  'x, y, z'
loop_
 _atom_site_label
 _atom_site_fract_x
 _atom_site_fract_y
 _atom_site_fract_z
 _atom_site_charge
 Zn 0.48863 0.97589 0.04708   1.128006
 Zn 0.29826 0.831 0.15983   0.38659
 Zn 0.01137 0.02411 0.54708   1.128007
 Zn 0.20174 0.169 0.65983   0.386591
 Zn 0.51137 0.47589 0.45292   1.128007
 Zn 0.70174 0.331 0.34017   0.386591
 Zn 0.98863 0.52411 0.95292   1.128007
 Zn 0.79826 0.669 0.84017   0.386591
 H 0.5403 0.6886 0.2629   0.102991
 H 0.7701 0.5191 0.1764   0.102864
 H 0.6928 0.7458 0.0382   0.094714
 H 0.9597 0.3114 0.7629   0.102991
 H 0.7299 0.4809 0.6764   0.102864
 H 0.8072 0.2542 0.5382   0.094714
 H 0.4597 0.1886 0.2371   0.102991
 H 0.2299 0.0191 0.3236   0.102864
 H 0.3072 0.2458 0.4618   0.094714
 H 0.0403 0.8114 0.7371   0.102991
 H 0.2701 0.9809 0.8236   0.102864
 H 0.1928 0.7542 0.9618   0.094714
 C 0.6069 0.7297 0.1496   -0.176302
 C 0.5921 0.6733 0.2208   0.036709
 C 0.6519 0.5948 0.2315   -0.178025
 C 0.7282 0.5724 0.1693   0.034148
 C 0.743 0.628 0.0969   -0.181275
 C 0.6825 0.7074 0.087   0.036171
 C 0.5403 0.8136 0.1391   0.71283
 C 0.6351 0.5325 0.3072   0.719788
 C 0.8239 0.6048 0.0307   0.68974
 C 0.8931 0.2703 0.6496   -0.176302
 C 0.9079 0.3267 0.7208   0.036709
 C 0.8481 0.4052 0.7315   -0.178025
 C 0.7718 0.4276 0.6693   0.034149
 C 0.757 0.372 0.5969   -0.181275
 C 0.8175 0.2926 0.587   0.036171
 C 0.9597 0.1864 0.6391   0.71283
 C 0.8649 0.4675 0.8072   0.719788
 C 0.6761 0.3952 0.5307   0.68974
 C 0.3931 0.2297 0.3504   -0.176302
 C 0.4079 0.1733 0.2792   0.036709
 C 0.3481 0.0948 0.2685   -0.178025
 C 0.2718 0.0724 0.3307   0.034148
 C 0.257 0.128 0.4031   -0.181275
 C 0.3175 0.2074 0.413   0.036171
 C 0.4597 0.3136 0.3609   0.71283
 C 0.3649 0.0325 0.1928   0.719788
 C 0.1761 0.1048 0.4693   0.68974
 C 0.1069 0.7703 0.8504   -0.176302
 C 0.0921 0.8267 0.7792   0.036709
 C 0.1519 0.9052 0.7685   -0.178025
 C 0.2282 0.9276 0.8307   0.034149
 C 0.243 0.872 0.9031   -0.181275
 C 0.1825 0.7926 0.913   0.036171
 C 0.0403 0.6864 0.8609   0.71283
 C 0.1351 0.9675 0.6928   0.719788
 C 0.3239 0.8952 0.9693   0.68974
 O 0.57084 0.8703 0.08211   -0.643158
 O 0.46136 0.82292 0.18711   -0.531435
 O 0.55447 0.55002 0.3537   -0.650546
 O 0.69942 0.47075 0.31993   -0.525499
 O 0.87521 0.5309 0.04004   -0.614192
 O 0.84081 0.66027 0.97045   -0.544121
 O 0.92916 0.1297 0.58211   -0.643158
 O 0.03864 0.17708 0.68711   -0.531435
 O 0.94553 0.44998 0.8537   -0.650546
 O 0.80058 0.52925 0.81993   -0.525499
 O 0.62479 0.4691 0.54004   -0.614192
 O 0.65919 0.33973 0.47045   -0.544121
 O 0.42916 0.3703 0.41789   -0.643158
 O 0.53864 0.32292 0.31289   -0.531435
 O 0.44553 0.05002 0.1463   -0.650546
 O 0.30058 0.97075 0.18007   -0.525499
 O 0.12479 0.0309 0.45996   -0.614192
 O 0.15919 0.16027 0.52955   -0.544121
 O 0.07084 0.6297 0.91789   -0.643158
 O 0.96136 0.67708 0.81289   -0.531435
 O 0.05447 0.94998 0.6463   -0.650546
 O 0.19942 0.02925 0.68007   -0.525499
 O 0.37521 0.9691 0.95996   -0.614192
 O 0.34081 0.83973 0.02955   -0.544121
