{'_ref': 'TBD', '_srcid': 'CAKYAQ_clean', 'submitters': [{'name': 'Dalar Nazarian Jeff Camp and David Sholl', 'email': 'dalar@gatech.edu jcamp6@gatech.edu'}], '_method': 'VASP DFT with PBE;DDEC'}
data_Zn2H3(C3O2)3
_symmetry_space_group_name_H-M   'P 1'
_cell_length_a   13.79800000
_cell_length_b   14.37500000
_cell_length_c   15.22800000
_cell_angle_alpha   90.00000000
_cell_angle_beta   90.00000000
_cell_angle_gamma   90.00000000
_symmetry_Int_Tables_number   1
_chemical_formula_structural   Zn2H3(C3O2)3
_chemical_formula_sum   'Zn8 H12 C36 O24'
_cell_volume   3020.416695
_cell_formula_units_Z   4
loop_
 _symmetry_equiv_pos_site_id
 _symmetry_equiv_pos_as_xyz
  1  'x, y, z'
loop_
 _atom_site_label
 _atom_site_fract_x
 _atom_site_fract_y
 _atom_site_fract_z
 _atom_site_charge
 Zn 0.54834 0.52427 0.96002   1.16151
 Zn 0.70857 0.65621 0.82153   0.37501
 Zn 0.95166 0.47573 0.46002   1.161511
 Zn 0.79143 0.34379 0.32153   0.375011
 Zn 0.45166 0.02427 0.53998   1.16151
 Zn 0.29143 0.15621 0.67847   0.375011
 Zn 0.04834 0.97573 0.03998   1.161511
 Zn 0.20857 0.84379 0.17847   0.375012
 H 0.8477 0.7525 0.0323   0.0951
 H 0.9748 0.6865 0.2616   0.101627
 H 0.7487 0.5361 0.1754   0.093129
 H 0.6523 0.2475 0.5323   0.0951
 H 0.5252 0.3135 0.7616   0.101627
 H 0.7513 0.4639 0.6754   0.093129
 H 0.1523 0.2525 0.4677   0.0951
 H 0.0252 0.1865 0.2384   0.101627
 H 0.2513 0.0361 0.3246   0.093129
 H 0.3477 0.7475 0.9677   0.0951
 H 0.4748 0.8135 0.7384   0.101627
 H 0.2487 0.9639 0.8246   0.093129
 C 0.7881 0.6426 0.0922   -0.185607
 C 0.8518 0.7146 0.0832   0.045195
 C 0.9225 0.7345 0.1452   -0.185145
 C 0.9265 0.6765 0.2182   0.041823
 C 0.8601 0.6036 0.2285   -0.17667
 C 0.7929 0.5862 0.1678   0.039756
 C 0.7129 0.6187 0.0218   0.715826
 C 0.9875 0.8118 0.133   0.734077
 C 0.8662 0.544 0.3097   0.709431
 C 0.7119 0.3574 0.5922   -0.185607
 C 0.6482 0.2854 0.5832   0.045195
 C 0.5775 0.2655 0.6452   -0.185145
 C 0.5735 0.3235 0.7182   0.041823
 C 0.6399 0.3964 0.7285   -0.17667
 C 0.7071 0.4138 0.6678   0.039756
 C 0.7871 0.3813 0.5218   0.715826
 C 0.5125 0.1882 0.633   0.734077
 C 0.6338 0.456 0.8097   0.709431
 C 0.2119 0.1426 0.4078   -0.185607
 C 0.1482 0.2146 0.4168   0.045195
 C 0.0775 0.2345 0.3548   -0.185145
 C 0.0735 0.1765 0.2818   0.041823
 C 0.1399 0.1036 0.2715   -0.17667
 C 0.2071 0.0862 0.3322   0.039756
 C 0.2871 0.1187 0.4782   0.715826
 C 0.0125 0.3118 0.367   0.734077
 C 0.1338 0.044 0.1903   0.709431
 C 0.2881 0.8574 0.9078   -0.185607
 C 0.3518 0.7854 0.9168   0.045195
 C 0.4225 0.7655 0.8548   -0.185145
 C 0.4265 0.8235 0.7818   0.041823
 C 0.3601 0.8964 0.7715   -0.17667
 C 0.2929 0.9138 0.8322   0.039756
 C 0.2129 0.8813 0.9782   0.715826
 C 0.4875 0.6882 0.867   0.734077
 C 0.3662 0.956 0.6903   0.709431
 O 0.6525 0.5542 0.0362   -0.653748
 O 0.715 0.6697 0.957   -0.511516
 O 0.9754 0.8657 0.0678   -0.668234
 O 0.0567 0.8219 0.1861   -0.552892
 O 0.9397 0.5559 0.3609   -0.658915
 O 0.8031 0.4869 0.3227   -0.519758
 O 0.8475 0.4458 0.5362   -0.653748
 O 0.785 0.3303 0.457   -0.511516
 O 0.5246 0.1343 0.5678   -0.668234
 O 0.4433 0.1781 0.6861   -0.552892
 O 0.5603 0.4441 0.8609   -0.658915
 O 0.6969 0.5131 0.8227   -0.519758
 O 0.3475 0.0542 0.4638   -0.653748
 O 0.285 0.1697 0.543   -0.511516
 O 0.0246 0.3657 0.4322   -0.668234
 O 0.9433 0.3219 0.3139   -0.552892
 O 0.0603 0.0559 0.1391   -0.658915
 O 0.1969 0.9869 0.1773   -0.519758
 O 0.1525 0.9458 0.9638   -0.653748
 O 0.215 0.8303 0.043   -0.511516
 O 0.4754 0.6343 0.9322   -0.668234
 O 0.5567 0.6781 0.8139   -0.552892
 O 0.4397 0.9441 0.6391   -0.658915
 O 0.3031 0.0131 0.6773   -0.519758
