{'_ref': 'TBD', '_srcid': 'CAKYAQ_clean', 'submitters': [{'name': 'Dalar Nazarian Jeff Camp and David Sholl', 'email': 'dalar@gatech.edu jcamp6@gatech.edu'}], '_method': 'VASP DFT with PBE;DDEC'}
data_Y2H9C21(NO4)3
_symmetry_space_group_name_H-M   'P 1'
_cell_length_a   8.50830000
_cell_length_b   15.70400000
_cell_length_c   28.45200000
_cell_angle_alpha   90.00000000
_cell_angle_beta   90.00000000
_cell_angle_gamma   90.00000000
_symmetry_Int_Tables_number   1
_chemical_formula_structural   Y2H9C21(NO4)3
_chemical_formula_sum   'Y8 H36 C84 N12 O48'
_cell_volume   3801.59529273
_cell_formula_units_Z   4
loop_
 _symmetry_equiv_pos_site_id
 _symmetry_equiv_pos_as_xyz
  1  'x, y, z'
loop_
 _atom_site_label
 _atom_site_fract_x
 _atom_site_fract_y
 _atom_site_fract_z
 _atom_site_charge
 Y 0.97378 0.80142 0.58486   2.101669
 Y 0.52622 0.30142 0.41514   2.101669
 Y 0.02622 0.19858 0.08486   2.101669
 Y 0.47378 0.69858 0.91514   2.101669
 Y 0.02622 0.19858 0.41514   2.101669
 Y 0.47378 0.69858 0.58486   2.101669
 Y 0.97378 0.80142 0.91514   2.101669
 Y 0.52622 0.30142 0.08486   2.101669
 H 0.8987 0.4643 0.3984   0.067881
 H 0.2773 0.5264 0.4763   0.106519
 H 0.9024 0.6818 0.4647   0.079918
 H 0.3263 0.5955 0.6807   0.068726
 H 0.6013 0.9643 0.6016   0.067881
 H 0.2227 0.0264 0.5237   0.106519
 H 0.5976 0.1818 0.5353   0.079918
 H 0.1737 0.0955 0.3193   0.068726
 H 0.1013 0.5357 0.8984   0.067881
 H 0.7227 0.4736 0.9763   0.106519
 H 0.0976 0.3182 0.9647   0.079918
 H 0.6737 0.4045 0.1807   0.068726
 H 0.3987 0.0357 0.1016   0.067881
 H 0.7773 0.9736 0.0237   0.106519
 H 0.4024 0.8182 0.0353   0.079918
 H 0.8263 0.9045 0.8193   0.068726
 H 0.1013 0.5357 0.6016   0.067881
 H 0.7227 0.4736 0.5237   0.106519
 H 0.0976 0.3182 0.5353   0.079918
 H 0.6737 0.4045 0.3193   0.068726
 H 0.3987 0.0357 0.3984   0.067881
 H 0.7773 0.9736 0.4763   0.106519
 H 0.4024 0.8182 0.4647   0.079918
 H 0.8263 0.9045 0.6807   0.068726
 H 0.8987 0.4643 0.1016   0.067881
 H 0.2773 0.5264 0.0237   0.106519
 H 0.9024 0.6818 0.0353   0.079918
 H 0.3263 0.5955 0.8193   0.068726
 H 0.6013 0.9643 0.8984   0.067881
 H 0.2227 0.0264 0.9763   0.106519
 H 0.5976 0.1818 0.9647   0.079918
 H 0.1737 0.0955 0.1807   0.068726
 H 0.1032 0.7829 0.75   0.106306
 H 0.3968 0.2829 0.25   0.106306
 H 0.8968 0.2171 0.25   0.106306
 H 0.6032 0.7171 0.75   0.106306
 C 0.9514 0.5038 0.41816   0.24518
 C 0.0992 0.4822 0.43478   -0.277814
 C 0.1757 0.5391 0.46433   0.100849
 C 0.1021 0.614 0.47595   -0.276107
 C 0.9531 0.6298 0.45673   0.256548
 C 0.1727 0.6764 0.51058   0.795278
 C 0.1708 0.398 0.42396   0.805266
 C 0.2952 0.6205 0.70964   0.25968
 C 0.2105 0.6955 0.70796   -0.263034
 C 0.1665 0.7333 0.66201   0.785071
 C 0.5486 0.0038 0.58184   0.24518
 C 0.4008 0.9822 0.56522   -0.277814
 C 0.3243 0.0391 0.53567   0.100849
 C 0.3979 0.114 0.52405   -0.276107
 C 0.5469 0.1298 0.54327   0.256548
 C 0.3273 0.1764 0.48942   0.795278
 C 0.3292 0.898 0.57604   0.805266
 C 0.2048 0.1205 0.29036   0.25968
 C 0.2895 0.1955 0.29204   -0.263034
 C 0.3335 0.2333 0.33799   0.785071
 C 0.0486 0.4962 0.91816   0.24518
 C 0.9008 0.5178 0.93478   -0.277814
 C 0.8243 0.4609 0.96433   0.100849
 C 0.8979 0.386 0.97595   -0.276107
 C 0.0469 0.3702 0.95673   0.256548
 C 0.8273 0.3236 0.01058   0.795278
 C 0.8292 0.602 0.92396   0.805266
 C 0.7048 0.3795 0.20964   0.25968
 C 0.7895 0.3045 0.20796   -0.263034
 C 0.8335 0.2667 0.16201   0.785071
 C 0.4514 0.9962 0.08184   0.24518
 C 0.5992 0.0178 0.06522   -0.277814
 C 0.6757 0.9609 0.03567   0.100849
 C 0.6021 0.886 0.02405   -0.276107
 C 0.4531 0.8702 0.04327   0.256548
 C 0.6727 0.8236 0.98942   0.795278
 C 0.6708 0.102 0.07604   0.805266
 C 0.7952 0.8795 0.79036   0.25968
 C 0.7105 0.8045 0.79204   -0.263034
 C 0.6665 0.7667 0.83799   0.785071
 C 0.0486 0.4962 0.58184   0.245179
 C 0.9008 0.5178 0.56522   -0.277813
 C 0.8243 0.4609 0.53567   0.100849
 C 0.8979 0.386 0.52405   -0.276107
 C 0.0469 0.3702 0.54327   0.256548
 C 0.8273 0.3236 0.48942   0.795278
 C 0.8292 0.602 0.57604   0.805266
 C 0.7048 0.3795 0.29036   0.25968
 C 0.7895 0.3045 0.29204   -0.263034
 C 0.8335 0.2667 0.33799   0.785071
 C 0.4514 0.9962 0.41816   0.245179
 C 0.5992 0.0178 0.43478   -0.277813
 C 0.6757 0.9609 0.46433   0.100849
 C 0.6021 0.886 0.47595   -0.276107
 C 0.4531 0.8702 0.45673   0.256548
 C 0.6727 0.8236 0.51058   0.795278
 C 0.6708 0.102 0.42396   0.805266
 C 0.7952 0.8795 0.70964   0.25968
 C 0.7105 0.8045 0.70796   -0.263034
 C 0.6665 0.7667 0.66201   0.785071
 C 0.9514 0.5038 0.08184   0.245179
 C 0.0992 0.4822 0.06522   -0.277813
 C 0.1757 0.5391 0.03567   0.100849
 C 0.1021 0.614 0.02405   -0.276107
 C 0.9531 0.6298 0.04327   0.256548
 C 0.1727 0.6764 0.98942   0.795278
 C 0.1708 0.398 0.07604   0.805266
 C 0.2952 0.6205 0.79036   0.25968
 C 0.2105 0.6955 0.79204   -0.263034
 C 0.1665 0.7333 0.83799   0.785071
 C 0.5486 0.0038 0.91816   0.245179
 C 0.4008 0.9822 0.93478   -0.277813
 C 0.3243 0.0391 0.96433   0.100849
 C 0.3979 0.114 0.97595   -0.276107
 C 0.5469 0.1298 0.95673   0.256548
 C 0.3273 0.1764 0.01058   0.795278
 C 0.3292 0.898 0.92396   0.805266
 C 0.2048 0.1205 0.20964   0.25968
 C 0.2895 0.1955 0.20796   -0.263034
 C 0.3335 0.2333 0.16201   0.785071
 C 0.165 0.7326 0.75   0.098771
 C 0.335 0.2326 0.25   0.098771
 C 0.835 0.2674 0.25   0.098771
 C 0.665 0.7674 0.75   0.098771
 N 0.8789 0.5768 0.42825   -0.439817
 N 0.6211 0.0768 0.57175   -0.439817
 N 0.1211 0.4232 0.92825   -0.439817
 N 0.3789 0.9232 0.07175   -0.439817
 N 0.1211 0.4232 0.57175   -0.439817
 N 0.3789 0.9232 0.42825   -0.439817
 N 0.8789 0.5768 0.07175   -0.439817
 N 0.6211 0.0768 0.92825   -0.439817
 N 0.3368 0.5801 0.75   -0.425796
 N 0.1632 0.0801 0.25   -0.425796
 N 0.6632 0.4199 0.25   -0.425796
 N 0.8368 0.9199 0.75   -0.425796
 O 0.0609 0.7897 0.66135   -0.683606
 O 0.2292 0.7077 0.6243   -0.781445
 O 0.093 0.7407 0.52072   -0.694236
 O 0.3086 0.6588 0.5258   -0.711343
 O 0.0813 0.3408 0.40826   -0.704938
 O 0.3161 0.3887 0.43153   -0.729886
 O 0.4391 0.2897 0.33865   -0.683606
 O 0.2708 0.2077 0.3757   -0.781445
 O 0.407 0.2407 0.47928   -0.694236
 O 0.1914 0.1588 0.4742   -0.711343
 O 0.4187 0.8408 0.59174   -0.704938
 O 0.1839 0.8887 0.56847   -0.729886
 O 0.9391 0.2103 0.16135   -0.683606
 O 0.7708 0.2923 0.1243   -0.781445
 O 0.907 0.2593 0.02072   -0.694236
 O 0.6914 0.3412 0.0258   -0.711343
 O 0.9187 0.6592 0.90826   -0.704938
 O 0.6839 0.6113 0.93153   -0.729886
 O 0.5609 0.7103 0.83865   -0.683606
 O 0.7292 0.7923 0.8757   -0.781445
 O 0.593 0.7593 0.97928   -0.694236
 O 0.8086 0.8412 0.9742   -0.711343
 O 0.5813 0.1592 0.09174   -0.704938
 O 0.8161 0.1113 0.06847   -0.729886
 O 0.9391 0.2103 0.33865   -0.683606
 O 0.7708 0.2923 0.3757   -0.781445
 O 0.907 0.2593 0.47928   -0.694236
 O 0.6914 0.3412 0.4742   -0.711343
 O 0.9187 0.6592 0.59174   -0.704938
 O 0.6839 0.6113 0.56847   -0.729886
 O 0.5609 0.7103 0.66135   -0.683606
 O 0.7292 0.7923 0.6243   -0.781445
 O 0.593 0.7593 0.52072   -0.694236
 O 0.8086 0.8412 0.5258   -0.711343
 O 0.5813 0.1592 0.40826   -0.704938
 O 0.8161 0.1113 0.43153   -0.729886
 O 0.0609 0.7897 0.83865   -0.683606
 O 0.2292 0.7077 0.8757   -0.781445
 O 0.093 0.7407 0.97928   -0.694236
 O 0.3086 0.6588 0.9742   -0.711343
 O 0.0813 0.3408 0.09174   -0.704938
 O 0.3161 0.3887 0.06847   -0.729886
 O 0.4391 0.2897 0.16135   -0.683606
 O 0.2708 0.2077 0.1243   -0.781445
 O 0.407 0.2407 0.02072   -0.694236
 O 0.1914 0.1588 0.0258   -0.711343
 O 0.4187 0.8408 0.90826   -0.704938
 O 0.1839 0.8887 0.93153   -0.729886
