{'_ref': 'TBD', '_srcid': 'CAKYAQ_clean', 'submitters': [{'name': 'Dalar Nazarian Jeff Camp and David Sholl', 'email': 'dalar@gatech.edu jcamp6@gatech.edu'}], '_method': 'VASP DFT with PBE;DDEC'}
data_Er2H9C21(NO4)3
_symmetry_space_group_name_H-M   'P 1'
_cell_length_a   7.41200000
_cell_length_b   16.22399987
_cell_length_c   16.22400000
_cell_angle_alpha   120.00000027
_cell_angle_beta   90.00000000
_cell_angle_gamma   90.00000000
_symmetry_Int_Tables_number   1
_chemical_formula_structural   Er2H9C21(NO4)3
_chemical_formula_sum   'Er4 H18 C42 N6 O24'
_cell_volume   1689.59226631
_cell_formula_units_Z   2
loop_
 _symmetry_equiv_pos_site_id
 _symmetry_equiv_pos_as_xyz
  1  'x, y, z'
loop_
 _atom_site_label
 _atom_site_fract_x
 _atom_site_fract_y
 _atom_site_fract_z
 _atom_site_charge
 Er 0.13 0.66667 0.33334   1.410833
 Er 0.63 0.33333 0.66666   1.410833
 Er 0.63 0.66667 0.33334   1.410833
 Er 0.13 0.33333 0.66666   1.410833
 H 0.6242 0.8596 0.5671   0.081557
 H 0.6242 0.7075 0.1404   0.081558
 H 0.6242 0.4329 0.2925   0.081555
 H 0.1242 0.1404 0.4329   0.081557
 H 0.1242 0.2925 0.8596   0.081558
 H 0.1242 0.5671 0.7075   0.081555
 H 0.1242 0.7075 0.5671   0.081557
 H 0.1242 0.4329 0.1404   0.081558
 H 0.1242 0.8596 0.2925   0.081555
 H 0.6242 0.2925 0.4329   0.081557
 H 0.6242 0.5671 0.8596   0.081558
 H 0.6242 0.1404 0.7075   0.081555
 H 0.0636 0.0 0.5557   0.103004
 H 0.0636 0.5557 0.0   0.103001
 H 0.0636 0.4443 0.4443   0.103004
 H 0.5636 0.0 0.4443   0.103004
 H 0.5636 0.4443 0.0   0.103001
 H 0.5636 0.5557 0.5557   0.103004
 C 0.685 0.9179 0.5859   0.258251
 C 0.854 0.9156 0.5494   -0.262165
 C 0.9426 0.8263 0.4824   0.767579
 C 0.685 0.668 0.0821   0.258249
 C 0.854 0.6338 0.0844   -0.262165
 C 0.9426 0.6561 0.1737   0.767552
 C 0.685 0.4141 0.332   0.258255
 C 0.854 0.4506 0.3662   -0.262168
 C 0.9426 0.5176 0.3439   0.767576
 C 0.185 0.0821 0.4141   0.258251
 C 0.354 0.0844 0.4506   -0.262165
 C 0.4426 0.1737 0.5176   0.767579
 C 0.185 0.332 0.9179   0.258249
 C 0.354 0.3662 0.9156   -0.262165
 C 0.4426 0.3439 0.8263   0.767552
 C 0.185 0.5859 0.668   0.258255
 C 0.354 0.5494 0.6338   -0.262168
 C 0.4426 0.4824 0.6561   0.767576
 C 0.185 0.668 0.5859   0.25825
 C 0.354 0.6338 0.5494   -0.262164
 C 0.4426 0.6561 0.4824   0.767579
 C 0.185 0.4141 0.0821   0.258248
 C 0.354 0.4506 0.0844   -0.262164
 C 0.4426 0.5176 0.1737   0.767552
 C 0.185 0.9179 0.332   0.258254
 C 0.354 0.9156 0.3662   -0.262168
 C 0.4426 0.8263 0.3439   0.767576
 C 0.685 0.332 0.4141   0.25825
 C 0.854 0.3662 0.4506   -0.262164
 C 0.9426 0.3439 0.5176   0.767579
 C 0.685 0.5859 0.9179   0.258248
 C 0.854 0.5494 0.9156   -0.262164
 C 0.9426 0.4824 0.8263   0.767552
 C 0.685 0.0821 0.668   0.258254
 C 0.854 0.0844 0.6338   -0.262168
 C 0.9426 0.1737 0.6561   0.767576
 C 0.944 0.0 0.5762   0.110776
 C 0.944 0.5762 0.0   0.110771
 C 0.944 0.4238 0.4238   0.110776
 C 0.444 0.0 0.4238   0.110776
 C 0.444 0.4238 0.0   0.110771
 C 0.444 0.5762 0.5762   0.110776
 N 0.604 0.0 0.6471   -0.431793
 N 0.604 0.6471 0.0   -0.431788
 N 0.604 0.3529 0.3529   -0.431793
 N 0.104 0.0 0.3529   -0.431793
 N 0.104 0.3529 0.0   -0.431788
 N 0.104 0.6471 0.6471   -0.431793
 O 0.9053 0.744 0.4465   -0.634216
 O 0.0905 0.8258 0.4515   -0.572322
 O 0.9053 0.7025 0.256   -0.634174
 O 0.0905 0.6257 0.1742   -0.572238
 O 0.9053 0.5535 0.2975   -0.634203
 O 0.0905 0.5485 0.3743   -0.572293
 O 0.4053 0.256 0.5535   -0.634216
 O 0.5905 0.1742 0.5485   -0.572322
 O 0.4053 0.2975 0.744   -0.634174
 O 0.5905 0.3743 0.8258   -0.572238
 O 0.4053 0.4465 0.7025   -0.634203
 O 0.5905 0.4515 0.6257   -0.572293
 O 0.4053 0.7025 0.4465   -0.634216
 O 0.5905 0.6257 0.4515   -0.572323
 O 0.4053 0.5535 0.256   -0.634174
 O 0.5905 0.5485 0.1742   -0.572238
 O 0.4053 0.744 0.2975   -0.634203
 O 0.5905 0.8258 0.3743   -0.572293
 O 0.9053 0.2975 0.5535   -0.634216
 O 0.0905 0.3743 0.5485   -0.572323
 O 0.9053 0.4465 0.744   -0.634174
 O 0.0905 0.4515 0.8258   -0.572238
 O 0.9053 0.256 0.7025   -0.634203
 O 0.0905 0.1742 0.6257   -0.572293
