{'_ref': 'TBD', '_srcid': 'CAKYAQ_clean', 'submitters': [{'name': 'Dalar Nazarian Jeff Camp and David Sholl', 'email': 'dalar@gatech.edu jcamp6@gatech.edu'}], '_method': 'VASP DFT with PBE;DDEC'}
data_CdH6(C3O)4
_symmetry_space_group_name_H-M   'P 1'
_cell_length_a   6.87110000
_cell_length_b   14.01000000
_cell_length_c   14.91500000
_cell_angle_alpha   90.00000000
_cell_angle_beta   90.00000000
_cell_angle_gamma   90.00000000
_symmetry_Int_Tables_number   1
_chemical_formula_structural   CdH6(C3O)4
_chemical_formula_sum   'Cd4 H24 C48 O16'
_cell_volume   1435.77921556
_cell_formula_units_Z   4
loop_
 _symmetry_equiv_pos_site_id
 _symmetry_equiv_pos_as_xyz
  1  'x, y, z'
loop_
 _atom_site_label
 _atom_site_fract_x
 _atom_site_fract_y
 _atom_site_fract_z
 _atom_site_charge
 Cd 0.60896 0.29978 0.9606   1.21566
 Cd 0.89104 0.70022 0.4606   1.21566
 Cd 0.39104 0.79978 0.5394   1.215661
 Cd 0.10896 0.20022 0.0394   1.215661
 H 0.8519 0.2446 0.7145   0.104853
 H 0.8511 0.2905 0.5669   0.102858
 H 0.8621 0.1777 0.453   0.101274
 H 0.8666 0.0189 0.4859   0.110412
 H 0.8549 0.8389 0.7467   0.108653
 H 0.8816 0.9501 0.8616   0.099622
 H 0.6481 0.7554 0.2145   0.104853
 H 0.6489 0.7095 0.0669   0.102858
 H 0.6379 0.8223 0.953   0.101274
 H 0.6334 0.9811 0.9859   0.110412
 H 0.6451 0.1611 0.2467   0.108654
 H 0.6184 0.0499 0.3616   0.099622
 H 0.1481 0.7446 0.7855   0.104853
 H 0.1489 0.7905 0.9331   0.102859
 H 0.1379 0.6777 0.047   0.101274
 H 0.1334 0.5189 0.0141   0.110412
 H 0.1451 0.3389 0.7533   0.108653
 H 0.1184 0.4501 0.6384   0.099623
 H 0.3519 0.2554 0.2855   0.104853
 H 0.3511 0.2095 0.4331   0.102859
 H 0.3621 0.3223 0.547   0.101274
 H 0.3666 0.4811 0.5141   0.110412
 H 0.3549 0.6611 0.2533   0.108653
 H 0.3816 0.5499 0.1384   0.099623
 C 0.8768 0.1346 0.865   0.738564
 C 0.8711 0.0677 0.7853   -0.142169
 C 0.8618 0.0997 0.6939   0.061683
 C 0.8557 0.1984 0.6698   -0.127537
 C 0.8552 0.2259 0.5813   -0.082049
 C 0.861 0.1579 0.5125   -0.084436
 C 0.865 0.0633 0.5322   -0.123011
 C 0.8669 0.0308 0.6231   0.0518
 C 0.865 0.9317 0.6446   -0.158752
 C 0.8729 0.8546 0.5745   0.692438
 C 0.863 0.9035 0.7329   -0.074148
 C 0.8733 0.9711 0.8026   -0.053124
 C 0.6232 0.8654 0.365   0.738564
 C 0.6289 0.9323 0.2853   -0.142169
 C 0.6382 0.9003 0.1939   0.061683
 C 0.6443 0.8016 0.1698   -0.127537
 C 0.6448 0.7741 0.0813   -0.082049
 C 0.639 0.8421 0.0125   -0.084436
 C 0.635 0.9367 0.0322   -0.123011
 C 0.6331 0.9692 0.1231   0.0518
 C 0.635 0.0683 0.1446   -0.158752
 C 0.6271 0.1454 0.0745   0.692438
 C 0.637 0.0965 0.2329   -0.074148
 C 0.6267 0.0289 0.3026   -0.053124
 C 0.1232 0.6346 0.635   0.738564
 C 0.1289 0.5677 0.7147   -0.142169
 C 0.1382 0.5997 0.8061   0.061683
 C 0.1443 0.6984 0.8302   -0.127537
 C 0.1448 0.7259 0.9187   -0.08205
 C 0.139 0.6579 0.9875   -0.084436
 C 0.135 0.5633 0.9678   -0.123011
 C 0.1331 0.5308 0.8769   0.0518
 C 0.135 0.4317 0.8554   -0.158752
 C 0.1271 0.3546 0.9255   0.692438
 C 0.137 0.4035 0.7671   -0.074148
 C 0.1267 0.4711 0.6974   -0.053124
 C 0.3768 0.3654 0.135   0.738564
 C 0.3711 0.4323 0.2147   -0.142169
 C 0.3618 0.4003 0.3061   0.061683
 C 0.3557 0.3016 0.3302   -0.127537
 C 0.3552 0.2741 0.4187   -0.08205
 C 0.361 0.3421 0.4875   -0.084436
 C 0.365 0.4367 0.4678   -0.123011
 C 0.3669 0.4692 0.3769   0.0518
 C 0.365 0.5683 0.3554   -0.158752
 C 0.3729 0.6454 0.4255   0.692438
 C 0.363 0.5965 0.2671   -0.074148
 C 0.3733 0.5289 0.1974   -0.053124
 O 0.7769 0.2091 0.86122   -0.635053
 O 0.9835 0.10789 0.9295   -0.628062
 O 0.0056 0.85484 0.51661   -0.618644
 O 0.7462 0.7886 0.57882   -0.660833
 O 0.7231 0.7909 0.36122   -0.635053
 O 0.5165 0.89211 0.4295   -0.628062
 O 0.4944 0.14516 0.01661   -0.618644
 O 0.7538 0.2114 0.07882   -0.660833
 O 0.2231 0.7091 0.63878   -0.635053
 O 0.0165 0.60789 0.5705   -0.628062
 O 0.9944 0.35484 0.98339   -0.618644
 O 0.2538 0.2886 0.92118   -0.660833
 O 0.2769 0.2909 0.13878   -0.635053
 O 0.4835 0.39211 0.0705   -0.628062
 O 0.5056 0.64516 0.48339   -0.618644
 O 0.2462 0.7114 0.42118   -0.660833
