{'_ref': 'TBD', '_srcid': 'CAKYAQ_clean', 'submitters': [{'name': 'Dalar Nazarian Jeff Camp and David Sholl', 'email': 'dalar@gatech.edu jcamp6@gatech.edu'}], '_method': 'VASP DFT with PBE;DDEC'}
data_Zn3Cr3H30C54N6O25
_symmetry_space_group_name_H-M   'P 1'
_cell_length_a   14.45800000
_cell_length_b   16.91530042
_cell_length_c   16.91530000
_cell_angle_alpha   119.99999917
_cell_angle_beta   90.00000000
_cell_angle_gamma   90.00000000
_symmetry_Int_Tables_number   1
_chemical_formula_structural   Zn3Cr3H30C54N6O25
_chemical_formula_sum   'Zn3 Cr3 H30 C54 N6 O25'
_cell_volume   3582.59962192
_cell_formula_units_Z   1
loop_
 _symmetry_equiv_pos_site_id
 _symmetry_equiv_pos_as_xyz
  1  'x, y, z'
loop_
 _atom_site_label
 _atom_site_fract_x
 _atom_site_fract_y
 _atom_site_fract_z
 _atom_site_charge
 Zn 0.0 0.0 0.65265   0.817108
 Zn 0.0 0.65265 0.0   0.817108
 Zn 0.0 0.34735 0.34735   0.817107
 Cr 0.5 0.11341 0.0   1.515994
 Cr 0.5 0.88659 0.88659   1.515995
 Cr 0.5 0.0 0.11341   1.515994
 H 0.7126 0.1304 0.8294   0.13953
 H 0.846 0.1263 0.7581   0.097867
 H 0.7126 0.699 0.8696   0.13953
 H 0.846 0.6318 0.8737   0.097867
 H 0.7126 0.1706 0.301   0.13953
 H 0.846 0.2419 0.3682   0.09787
 H 0.2874 0.1304 0.8294   0.139529
 H 0.154 0.1263 0.7581   0.097867
 H 0.2874 0.699 0.8696   0.139529
 H 0.154 0.6318 0.8737   0.097867
 H 0.2874 0.1706 0.301   0.139529
 H 0.154 0.2419 0.3682   0.09787
 H 0.2874 0.301 0.1706   0.139531
 H 0.154 0.3682 0.2419   0.097867
 H 0.2874 0.8294 0.1304   0.139531
 H 0.154 0.7581 0.1263   0.09787
 H 0.2874 0.8696 0.699   0.139531
 H 0.154 0.8737 0.6318   0.097867
 H 0.7126 0.301 0.1706   0.13953
 H 0.846 0.3682 0.2419   0.097867
 H 0.7126 0.8294 0.1304   0.13953
 H 0.846 0.7581 0.1263   0.09787
 H 0.7126 0.8696 0.699   0.13953
 H 0.846 0.8737 0.6318   0.097867
 H 0.0 0.1845 0.544   0.104005
 H 0.0 0.3595 0.8155   0.104005
 H 0.0 0.456 0.6405   0.104005
 H 0.0 0.6405 0.456   0.104004
 H 0.0 0.544 0.1845   0.104005
 H 0.0 0.8155 0.3595   0.104005
 C 0.7478 0.0765 0.8013   -0.160737
 C 0.8272 0.0736 0.759   0.15861
 C 0.7478 0.7248 0.9235   -0.160737
 C 0.8272 0.6854 0.9264   0.158609
 C 0.7478 0.1987 0.2752   -0.160737
 C 0.8272 0.241 0.3146   0.158607
 C 0.2522 0.0765 0.8013   -0.160737
 C 0.1728 0.0736 0.759   0.158609
 C 0.2522 0.7248 0.9235   -0.160737
 C 0.1728 0.6854 0.9264   0.158609
 C 0.2522 0.1987 0.2752   -0.160737
 C 0.1728 0.241 0.3146   0.158606
 C 0.2522 0.2752 0.1987   -0.160738
 C 0.1728 0.3146 0.241   0.158609
 C 0.2522 0.8013 0.0765   -0.160739
 C 0.1728 0.759 0.0736   0.158607
 C 0.2522 0.9235 0.7248   -0.160738
 C 0.1728 0.9264 0.6854   0.158609
 C 0.7478 0.2752 0.1987   -0.160738
 C 0.8272 0.3146 0.241   0.158609
 C 0.7478 0.8013 0.0765   -0.160739
 C 0.8272 0.759 0.0736   0.158606
 C 0.7478 0.9235 0.7248   -0.160738
 C 0.8272 0.9264 0.6854   0.158609
 C 0.0 0.18138 0.70118   0.652543
 C 0.0 0.2597 0.68225   -0.181422
 C 0.0 0.24455 0.5935   0.007969
 C 0.0 0.5198 0.81862   0.652543
 C 0.0 0.42255 0.7403   -0.181423
 C 0.0 0.34895 0.75545   0.007966
 C 0.0 0.29882 0.4802   0.652543
 C 0.0 0.31775 0.57745   -0.181425
 C 0.0 0.4065 0.65105   0.007967
 C 0.0 0.4802 0.29882   0.652543
 C 0.0 0.57745 0.31775   -0.181423
 C 0.0 0.65105 0.4065   0.007969
 C 0.0 0.70118 0.18138   0.652543
 C 0.0 0.68225 0.2597   -0.181423
 C 0.0 0.5935 0.24455   0.007967
 C 0.0 0.81862 0.5198   0.652544
 C 0.0 0.7403 0.42255   -0.181425
 C 0.0 0.75545 0.34895   0.007967
 C 0.6305 0.0 0.85171   0.729739
 C 0.7178 0.0 0.80332   -0.017086
 C 0.6305 0.85171 0.0   0.729738
 C 0.7178 0.80332 0.0   -0.017087
 C 0.6305 0.14829 0.14829   0.729738
 C 0.7178 0.19668 0.19668   -0.017088
 C 0.3695 0.0 0.85171   0.729738
 C 0.2822 0.0 0.80332   -0.017086
 C 0.3695 0.85171 0.0   0.729738
 C 0.2822 0.80332 0.0   -0.017087
 C 0.3695 0.14829 0.14829   0.729738
 C 0.2822 0.19668 0.19668   -0.017088
 N 0.88065 0.0 0.71833   -0.281321
 N 0.88065 0.71833 0.0   -0.281321
 N 0.88065 0.28167 0.28167   -0.281321
 N 0.11935 0.0 0.71833   -0.281321
 N 0.11935 0.71833 0.0   -0.281321
 N 0.11935 0.28167 0.28167   -0.281321
 O 0.59865 0.0764 0.9077   -0.631969
 O 0.59865 0.8313 0.9236   -0.631969
 O 0.59865 0.0923 0.1687   -0.631969
 O 0.40135 0.0764 0.9077   -0.631969
 O 0.40135 0.8313 0.9236   -0.631969
 O 0.40135 0.0923 0.1687   -0.631969
 O 0.40135 0.1687 0.0923   -0.631969
 O 0.40135 0.9077 0.0764   -0.631969
 O 0.40135 0.9236 0.8313   -0.631969
 O 0.59865 0.1687 0.0923   -0.631969
 O 0.59865 0.9077 0.0764   -0.631969
 O 0.59865 0.9236 0.8313   -0.631969
 O 0.5 0.0 0.0   -1.120135
 O 0.0 0.19722 0.78012   -0.60941
 O 0.0 0.10266 0.63027   -0.591473
 O 0.0 0.5829 0.80278   -0.60941
 O 0.0 0.52761 0.89734   -0.591473
 O 0.0 0.21988 0.4171   -0.60941
 O 0.0 0.36973 0.47239   -0.591473
 O 0.0 0.4171 0.21988   -0.60941
 O 0.0 0.47239 0.36973   -0.591473
 O 0.0 0.78012 0.19722   -0.60941
 O 0.0 0.63027 0.10266   -0.591473
 O 0.0 0.80278 0.5829   -0.60941
 O 0.0 0.89734 0.52761   -0.591473
