{'_ref': 'TBD', '_srcid': 'CAKYAQ_clean', 'submitters': [{'name': 'Dalar Nazarian Jeff Camp and David Sholl', 'email': 'dalar@gatech.edu jcamp6@gatech.edu'}], '_method': 'VASP DFT with PBE;DDEC'}
data_CoMo4H12C12N9O7
_symmetry_space_group_name_H-M   'P 1'
_cell_length_a   12.11299960
_cell_length_b   12.22600008
_cell_length_c   12.28900000
_cell_angle_alpha   102.17799827
_cell_angle_beta   100.54499813
_cell_angle_gamma   119.66299886
_symmetry_Int_Tables_number   1
_chemical_formula_structural   CoMo4H12C12N9O7
_chemical_formula_sum   'Co2 Mo8 H24 C24 N18 O14'
_cell_volume   1454.65520567
_cell_formula_units_Z   2
loop_
 _symmetry_equiv_pos_site_id
 _symmetry_equiv_pos_as_xyz
  1  'x, y, z'
loop_
 _atom_site_label
 _atom_site_fract_x
 _atom_site_fract_y
 _atom_site_fract_z
 _atom_site_charge
 Co 0.68803 0.99432 0.3361   0.527225
 Co 0.31197 0.00568 0.6639   0.527225
 Mo 0.59832 0.51295 0.21558   0.748214
 Mo 0.38993 0.37824 0.36334   1.284832
 Mo 0.46054 0.6837 0.40733   1.338883
 Mo 0.29381 0.58133 0.58683   0.730791
 Mo 0.40168 0.48705 0.78442   0.748214
 Mo 0.61007 0.62176 0.63666   1.284832
 Mo 0.53946 0.3163 0.59267   1.338883
 Mo 0.70619 0.41867 0.41317   0.730791
 H 0.008 0.24 0.8628   0.122425
 H 0.9838 0.2187 0.9795   0.130039
 H 0.3147 0.513 0.0917   0.090153
 H 0.3622 0.2187 0.0285   0.085799
 H 0.1031 0.3706 0.1731   0.036751
 H 0.08 0.4671 0.2567   0.040982
 H 0.971 0.2631 0.3424   0.0839
 H 0.6378 0.0341 0.0849   0.080607
 H 0.9257 0.5074 0.2488   0.057309
 H 0.8949 0.6047 0.2068   0.051325
 H 0.0444 0.6879 0.4659   0.029202
 H 0.3361 0.9695 0.4067   0.108391
 H 0.992 0.76 0.1372   0.122425
 H 0.0162 0.7813 0.0205   0.130039
 H 0.6853 0.487 0.9083   0.090153
 H 0.6378 0.7813 0.9715   0.0858
 H 0.8969 0.6294 0.8269   0.036751
 H 0.92 0.5329 0.7433   0.040982
 H 0.029 0.7369 0.6576   0.083899
 H 0.3622 0.9659 0.9151   0.080609
 H 0.0743 0.4926 0.7512   0.057309
 H 0.1051 0.3953 0.7932   0.051325
 H 0.9556 0.3121 0.5341   0.029202
 H 0.6639 0.0305 0.5933   0.108391
 C 0.0295 0.4044 0.9776   -0.006049
 C 0.0144 0.4438 0.0854   -0.004025
 C 0.9833 0.5422 0.1093   0.008471
 C 0.0417 0.2831 0.9481   -0.078177
 C 0.2993 0.428 0.0646   0.081383
 C 0.3207 0.2655 0.0293   0.249581
 C 0.0388 0.3942 0.1814   -0.034534
 C 0.903 0.2257 0.2701   0.144152
 C 0.7257 0.1051 0.131   0.272024
 C 0.9621 0.5833 0.222   -0.041627
 C 0.1019 0.7384 0.4299   0.170182
 C 0.2575 0.8887 0.3955   0.295665
 C 0.9705 0.5956 0.0224   -0.006048
 C 0.9856 0.5562 0.9146   -0.004026
 C 0.0167 0.4578 0.8907   0.008472
 C 0.9583 0.7169 0.0519   -0.078178
 C 0.7007 0.572 0.9354   0.081383
 C 0.6793 0.7345 0.9707   0.24958
 C 0.9612 0.6058 0.8186   -0.034534
 C 0.097 0.7743 0.7299   0.144152
 C 0.2743 0.8949 0.869   0.272024
 C 0.0379 0.4167 0.778   -0.041627
 C 0.8981 0.2616 0.5701   0.170182
 C 0.7425 0.1113 0.6045   0.295665
 N 0.3901 0.4008 0.089   -0.426524
 N 0.179 0.3141 0.9938   0.12911
 N 0.1927 0.2066 0.9738   -0.372115
 N 0.7832 0.1176 0.2414   -0.442884
 N 0.9166 0.2761 0.1848   0.160684
 N 0.8003 0.1984 0.0921   -0.377556
 N 0.2123 0.8587 0.4875   -0.405553
 N 0.0812 0.6967 0.3158   0.162774
 N 0.1808 0.7942 0.2916   -0.410763
 N 0.6099 0.5992 0.911   -0.426524
 N 0.821 0.6859 0.0062   0.12911
 N 0.8073 0.7934 0.0262   -0.372114
 N 0.2168 0.8824 0.7586   -0.442884
 N 0.0834 0.7239 0.8152   0.160684
 N 0.1997 0.8016 0.9079   -0.377555
 N 0.7877 0.1413 0.5125   -0.405553
 N 0.9188 0.3033 0.6842   0.162774
 N 0.8192 0.2058 0.7084   -0.410763
 O 0.7386 0.5665 0.3525   -0.622458
 O 0.5002 0.351 0.2846   -0.640625
 O 0.498 0.5604 0.3264   -0.725196
 O 0.3569 0.2626 0.4369   -0.567563
 O 0.3924 0.5158 0.4794   -0.733265
 O 0.5784 0.8375 0.402   -0.653709
 O 0.406 0.7303 0.539   -0.678234
 O 0.2614 0.4335 0.6475   -0.622458
 O 0.4998 0.649 0.7154   -0.640625
 O 0.502 0.4396 0.6736   -0.725196
 O 0.6431 0.7374 0.5631   -0.567563
 O 0.6076 0.4842 0.5206   -0.733265
 O 0.4216 0.1625 0.598   -0.653709
 O 0.594 0.2697 0.461   -0.678234
