{'_ref': 'TBD', '_srcid': 'CAKYAQ_clean', 'submitters': [{'name': 'Dalar Nazarian Jeff Camp and David Sholl', 'email': 'dalar@gatech.edu jcamp6@gatech.edu'}], '_method': 'VASP DFT with PBE;DDEC'}
data_YPH7C5NO7
_symmetry_space_group_name_H-M   'P 1'
_cell_length_a   8.91080000
_cell_length_b   9.02230000
_cell_length_c   15.68370000
_cell_angle_alpha   90.00000000
_cell_angle_beta   90.00000000
_cell_angle_gamma   90.00000000
_symmetry_Int_Tables_number   1
_chemical_formula_structural   YPH7C5NO7
_chemical_formula_sum   'Y4 P4 H28 C20 N4 O28'
_cell_volume   1260.90534684
_cell_formula_units_Z   4
loop_
 _symmetry_equiv_pos_site_id
 _symmetry_equiv_pos_as_xyz
  1  'x, y, z'
loop_
 _atom_site_label
 _atom_site_fract_x
 _atom_site_fract_y
 _atom_site_fract_z
 _atom_site_charge
 Y 0.39073 0.03133 0.39609   2.060489
 Y 0.60927 0.46867 0.89609   2.060489
 Y 0.89073 0.96867 0.10391   2.060487
 Y 0.10927 0.53133 0.60391   2.060487
 P 0.06799 0.12751 0.29399   1.566836
 P 0.93201 0.37249 0.79399   1.566836
 P 0.56799 0.87249 0.20601   1.566836
 P 0.43201 0.62751 0.70601   1.566836
 H 0.2524 0.1441 0.1896   0.18536
 H 0.1775 0.3 0.2032   0.157052
 H 0.2212 0.4407 0.3128   0.124136
 H 0.3914 0.4599 0.3346   0.143286
 H 0.4807 0.3765 0.2163   0.119587
 H 0.4881 0.2057 0.1972   0.153036
 H 0.9039 0.2692 0.3224   0.414865
 H 0.7476 0.3559 0.6896   0.18536
 H 0.8225 0.2 0.7032   0.157052
 H 0.7788 0.0593 0.8128   0.124136
 H 0.6086 0.0401 0.8346   0.143286
 H 0.5193 0.1235 0.7163   0.119587
 H 0.5119 0.2943 0.6972   0.153036
 H 0.0961 0.2308 0.8224   0.414865
 H 0.7524 0.8559 0.3104   0.18536
 H 0.6775 0.7 0.2968   0.157052
 H 0.7212 0.5593 0.1872   0.124137
 H 0.8914 0.5401 0.1654   0.143287
 H 0.9807 0.6235 0.2837   0.119587
 H 0.9881 0.7943 0.3028   0.153037
 H 0.4039 0.7308 0.1776   0.414865
 H 0.2476 0.6441 0.8104   0.18536
 H 0.3225 0.8 0.7968   0.157052
 H 0.2788 0.9407 0.6872   0.124137
 H 0.1086 0.9599 0.6654   0.143287
 H 0.0193 0.8765 0.7837   0.119587
 H 0.0119 0.7057 0.8028   0.153037
 H 0.5961 0.7692 0.6776   0.414865
 C 0.2162 0.2132 0.2323   -0.50487
 C 0.3069 0.3925 0.339   -0.240592
 C 0.2733 0.3687 0.4305   0.778232
 C 0.4808 0.2789 0.2423   -0.232337
 C 0.615 0.2644 0.3022   0.708305
 C 0.7838 0.2868 0.7323   -0.50487
 C 0.6931 0.1075 0.839   -0.240592
 C 0.7267 0.1313 0.9305   0.778232
 C 0.5192 0.2211 0.7423   -0.232337
 C 0.385 0.2356 0.8022   0.708305
 C 0.7162 0.7868 0.2677   -0.50487
 C 0.8069 0.6075 0.161   -0.240593
 C 0.7733 0.6313 0.0695   0.778232
 C 0.9808 0.7211 0.2577   -0.232337
 C 0.115 0.7356 0.1978   0.708305
 C 0.2838 0.7132 0.7677   -0.50487
 C 0.1931 0.8925 0.661   -0.240593
 C 0.2267 0.8687 0.5695   0.778232
 C 0.0192 0.7789 0.7577   -0.232337
 C 0.885 0.7644 0.6978   0.708305
 N 0.3421 0.257 0.2898   -0.155935
 N 0.6579 0.243 0.7898   -0.155935
 N 0.8421 0.743 0.2102   -0.155935
 N 0.1579 0.757 0.7102   -0.155935
 O 0.3137 0.2449 0.46521   -0.720274
 O 0.208 0.4684 0.47071   -0.68831
 O 0.7394 0.3165 0.2764   -0.602553
 O 0.5992 0.1879 0.37018   -0.734654
 O 0.9832 0.249 0.3463   -0.701747
 O 0.9649 0.051 0.23265   -0.943685
 O 0.1458 0.0257 0.35531   -0.886229
 O 0.6863 0.2551 0.96521   -0.720274
 O 0.792 0.0316 0.97071   -0.68831
 O 0.2606 0.1835 0.7764   -0.602553
 O 0.4008 0.3121 0.87018   -0.734654
 O 0.0168 0.251 0.8463   -0.701747
 O 0.0351 0.449 0.73265   -0.943685
 O 0.8542 0.4743 0.85531   -0.886229
 O 0.8137 0.7551 0.03479   -0.720273
 O 0.708 0.5316 0.02929   -0.68831
 O 0.2394 0.6835 0.2236   -0.602553
 O 0.0992 0.8121 0.12982   -0.734654
 O 0.4832 0.751 0.1537   -0.701747
 O 0.4649 0.949 0.26735   -0.943685
 O 0.6458 0.9743 0.14469   -0.886228
 O 0.1863 0.7449 0.53479   -0.720273
 O 0.292 0.9684 0.52929   -0.68831
 O 0.7606 0.8165 0.7236   -0.602553
 O 0.9008 0.6879 0.62982   -0.734654
 O 0.5168 0.749 0.6537   -0.701747
 O 0.5351 0.551 0.76735   -0.943685
 O 0.3542 0.5257 0.64469   -0.886228
