{'_ref': 'TBD', '_srcid': 'CAKYAQ_clean', 'submitters': [{'name': 'Dalar Nazarian Jeff Camp and David Sholl', 'email': 'dalar@gatech.edu jcamp6@gatech.edu'}], '_method': 'VASP DFT with PBE;DDEC'}
data_Cd5H18C42(NO5)4
_symmetry_space_group_name_H-M   'P 1'
_cell_length_a   13.63280000
_cell_length_b   14.40829992
_cell_length_c   25.84600000
_cell_angle_alpha   90.00000000
_cell_angle_beta   90.00000000
_cell_angle_gamma   109.81900092
_symmetry_Int_Tables_number   1
_chemical_formula_structural   Cd5H18C42(NO5)4
_chemical_formula_sum   'Cd20 H72 C168 N16 O80'
_cell_volume   4776.10489411
_cell_formula_units_Z   4
loop_
 _symmetry_equiv_pos_site_id
 _symmetry_equiv_pos_as_xyz
  1  'x, y, z'
loop_
 _atom_site_label
 _atom_site_fract_x
 _atom_site_fract_y
 _atom_site_fract_z
 _atom_site_charge
 Cd 0.63487 0.14435 0.92826   0.992832
 Cd 0.63141 0.85379 0.00358   1.216327
 Cd 0.73484 0.75313 0.90081   1.137229
 Cd 0.75769 0.76013 0.09973   1.147538
 Cd 0.35733 0.35191 0.24865   0.996917
 Cd 0.86513 0.35565 0.42826   0.992832
 Cd 0.86859 0.64621 0.50358   1.216327
 Cd 0.76516 0.74687 0.40081   1.137229
 Cd 0.74231 0.73987 0.59973   1.147538
 Cd 0.14267 0.14809 0.74865   0.996917
 Cd 0.36513 0.85565 0.07174   0.992832
 Cd 0.36859 0.14621 0.99642   1.216327
 Cd 0.26516 0.24687 0.09919   1.137229
 Cd 0.24231 0.23987 0.90027   1.147538
 Cd 0.64267 0.64809 0.75135   0.996917
 Cd 0.13487 0.64435 0.57174   0.992832
 Cd 0.13141 0.35379 0.49642   1.216327
 Cd 0.23484 0.25313 0.59919   1.137229
 Cd 0.25769 0.26013 0.40027   1.147538
 Cd 0.85733 0.85191 0.25135   0.996917
 H 0.9498 0.1373 0.9821   0.094578
 H 0.66 0.4716 0.9782   0.090169
 H 0.7337 0.5373 0.8993   0.083051
 H 0.8333 0.4377 0.9076   0.138163
 H 0.1462 0.5517 0.8453   0.140107
 H 0.2346 0.4429 0.8473   0.086563
 H 0.0537 0.2888 0.9548   0.077389
 H 0.9541 0.3868 0.9521   0.141299
 H 0.0855 0.6743 0.8805   0.1457
 H 0.9802 0.7683 0.875   0.08179
 H 0.8626 0.0635 0.284   0.096659
 H 0.7618 0.1611 0.2898   0.126103
 H 0.4674 0.0518 0.2073   0.129995
 H 0.3705 0.1545 0.2054   0.088491
 H 0.527 0.3086 0.3212   0.090826
 H 0.6274 0.21 0.3258   0.122006
 H 0.5147 0.9307 0.2477   0.125665
 H 0.621 0.837 0.2455   0.092179
 H 0.5502 0.3627 0.4821   0.094578
 H 0.84 0.0284 0.4782   0.090169
 H 0.7663 0.9627 0.3993   0.083051
 H 0.6667 0.0623 0.4076   0.138163
 H 0.3538 0.9483 0.3453   0.140104
 H 0.2654 0.0571 0.3473   0.086564
 H 0.4463 0.2112 0.4548   0.077389
 H 0.5459 0.1132 0.4521   0.141299
 H 0.4145 0.8257 0.3805   0.145699
 H 0.5198 0.7317 0.375   0.081791
 H 0.6374 0.4365 0.784   0.096659
 H 0.7382 0.3389 0.7898   0.126103
 H 0.0326 0.4482 0.7073   0.129995
 H 0.1295 0.3455 0.7054   0.088491
 H 0.973 0.1914 0.8212   0.090826
 H 0.8726 0.29 0.8258   0.122006
 H 0.9853 0.5693 0.7477   0.125662
 H 0.879 0.663 0.7455   0.092179
 H 0.0502 0.8627 0.0179   0.094578
 H 0.34 0.5284 0.0218   0.090169
 H 0.2663 0.4627 0.1007   0.083051
 H 0.1667 0.5623 0.0924   0.138163
 H 0.8538 0.4483 0.1547   0.140106
 H 0.7654 0.5571 0.1527   0.086563
 H 0.9463 0.7112 0.0452   0.077389
 H 0.0459 0.6132 0.0479   0.141299
 H 0.9145 0.3257 0.1195   0.145699
 H 0.0198 0.2317 0.125   0.08179
 H 0.1374 0.9365 0.716   0.096661
 H 0.2382 0.8389 0.7102   0.1261
 H 0.5326 0.9482 0.7927   0.129995
 H 0.6295 0.8455 0.7946   0.088491
 H 0.473 0.6914 0.6788   0.090826
 H 0.3726 0.79 0.6742   0.122006
 H 0.4853 0.0693 0.7523   0.125663
 H 0.379 0.163 0.7545   0.092181
 H 0.4498 0.6373 0.5179   0.094578
 H 0.16 0.9716 0.5218   0.090169
 H 0.2337 0.0373 0.6007   0.083051
 H 0.3333 0.9377 0.5924   0.138163
 H 0.6462 0.0517 0.6547   0.140104
 H 0.7346 0.9429 0.6527   0.086564
 H 0.5537 0.7888 0.5452   0.077389
 H 0.4541 0.8868 0.5479   0.141299
 H 0.5855 0.1743 0.6195   0.145699
 H 0.4802 0.2683 0.625   0.081791
 H 0.3626 0.5635 0.216   0.096661
 H 0.2618 0.6611 0.2102   0.1261
 H 0.9674 0.5518 0.2927   0.129995
 H 0.8705 0.6545 0.2946   0.088491
 H 0.027 0.8086 0.1788   0.090826
 H 0.1274 0.71 0.1742   0.122006
 H 0.0147 0.4307 0.2523   0.12566
 H 0.121 0.337 0.2545   0.092181
 C 0.029 0.0972 0.0386   -0.21493
 C 0.0188 0.0517 0.0869   0.012652
 C 0.9181 0.01 0.1081   -0.137116
 C 0.8304 0.0175 0.0823   -0.016255
 C 0.8435 0.0685 0.0356   -0.171148
 C 0.9417 0.1057 0.014   0.033549
 C 0.1305 0.1339 0.0092   0.682937
 C 0.1091 0.039 0.1179   0.676875
 C 0.9047 0.955 0.1588   0.663418
 C 0.7224 0.9713 0.1057   0.657833
 C 0.7563 0.081 0.0033   0.713841
 C 0.6102 0.5354 0.0372   -0.2068
 C 0.5646 0.5171 0.0862   0.017191
 C 0.5267 0.4187 0.1042   -0.137656
 C 0.5378 0.3421 0.075   -0.014858
 C 0.5893 0.3614 0.0277   -0.172928
 C 0.625 0.4581 0.0097   0.045637
 C 0.6415 0.6333 0.0106   0.682878
 C 0.5472 0.5984 0.1196   0.670003
 C 0.4698 0.3989 0.1555   0.668727
 C 0.4958 0.2366 0.0951   0.652287
 C 0.6066 0.2851 0.9921   0.692406
 C 0.8058 0.5657 0.8966   0.205686
 C 0.8646 0.5047 0.9009   -0.204588
 C 0.9722 0.5465 0.8949   0.090279
 C 0.0375 0.4808 0.8983   0.10531
 C 0.1243 0.4973 0.8672   -0.204788
 C 0.1776 0.4317 0.8692   0.196353
 C 0.0714 0.3409 0.9313   0.213581
 C 0.012 0.4006 0.9306   -0.214396
 C 0.014 0.645 0.8851   -0.206512
 C 0.9502 0.7013 0.8821   0.190059
 C 0.7917 0.0363 0.2769   0.201623
 C 0.732 0.0956 0.2796   -0.188488
 C 0.6268 0.0577 0.2669   0.119093
 C 0.5604 0.1211 0.2663   0.093756
 C 0.4815 0.1041 0.2304   -0.154215
 C 0.4239 0.1665 0.2296   0.196249
 C 0.5158 0.2572 0.2976   0.191512
 C 0.5759 0.1981 0.3006   -0.20648
 C 0.5854 0.9593 0.255   -0.188858
 C 0.6498 0.9035 0.254   0.188253
 C 0.471 0.4028 0.5386   -0.21493
 C 0.4812 0.4483 0.5869   0.012652
 C 0.5819 0.49 0.6081   -0.137116
 C 0.6696 0.4825 0.5823   -0.016255
 C 0.6565 0.4315 0.5356   -0.171148
 C 0.5583 0.3943 0.514   0.033549
 C 0.3695 0.3661 0.5092   0.682937
 C 0.3909 0.461 0.6179   0.676875
 C 0.5953 0.545 0.6588   0.663418
 C 0.7776 0.5287 0.6057   0.657833
 C 0.7437 0.419 0.5033   0.713841
 C 0.8898 0.9646 0.5372   -0.2068
 C 0.9354 0.9829 0.5862   0.017191
 C 0.9733 0.0813 0.6042   -0.137656
 C 0.9622 0.1579 0.575   -0.014858
 C 0.9107 0.1386 0.5277   -0.172928
 C 0.875 0.0419 0.5097   0.045637
 C 0.8585 0.8667 0.5106   0.682878
 C 0.9528 0.9016 0.6196   0.670003
 C 0.0302 0.1011 0.6555   0.668727
 C 0.0042 0.2634 0.5951   0.652287
 C 0.8934 0.2149 0.4921   0.692406
 C 0.6942 0.9343 0.3966   0.205686
 C 0.6354 0.9953 0.4009   -0.204589
 C 0.5278 0.9535 0.3949   0.090278
 C 0.4625 0.0192 0.3983   0.10531
 C 0.3757 0.0027 0.3672   -0.204788
 C 0.3224 0.0683 0.3692   0.196352
 C 0.4286 0.1591 0.4313   0.213581
 C 0.488 0.0994 0.4306   -0.214396
 C 0.486 0.855 0.3851   -0.206512
 C 0.5498 0.7987 0.3821   0.190058
 C 0.7083 0.4637 0.7769   0.201623
 C 0.768 0.4044 0.7796   -0.188488
 C 0.8732 0.4423 0.7669   0.119093
 C 0.9396 0.3789 0.7663   0.093756
 C 0.0185 0.3959 0.7304   -0.154215
 C 0.0761 0.3335 0.7296   0.196248
 C 0.9842 0.2428 0.7976   0.191511
 C 0.9241 0.3019 0.8006   -0.20648
 C 0.9146 0.5407 0.755   -0.188858
 C 0.8502 0.5965 0.754   0.188252
 C 0.971 0.9028 0.9614   -0.214931
 C 0.9812 0.9483 0.9131   0.012652
 C 0.0819 0.99 0.8919   -0.137116
 C 0.1696 0.9825 0.9177   -0.016255
 C 0.1565 0.9315 0.9644   -0.171148
 C 0.0583 0.8943 0.986   0.033549
 C 0.8695 0.8661 0.9908   0.682937
 C 0.8909 0.961 0.8821   0.676875
 C 0.0953 0.045 0.8412   0.663418
 C 0.2776 0.0287 0.8943   0.657833
 C 0.2437 0.919 0.9967   0.713841
 C 0.3898 0.4646 0.9628   -0.206801
 C 0.4354 0.4829 0.9138   0.01719
 C 0.4733 0.5813 0.8958   -0.137656
 C 0.4622 0.6579 0.925   -0.014858
 C 0.4107 0.6386 0.9723   -0.172927
 C 0.375 0.5419 0.9903   0.045637
 C 0.3585 0.3667 0.9894   0.682877
 C 0.4528 0.4016 0.8804   0.670003
 C 0.5302 0.6011 0.8445   0.668727
 C 0.5042 0.7634 0.9049   0.652287
 C 0.3934 0.7149 0.0079   0.692406
 C 0.1942 0.4343 0.1034   0.205686
 C 0.1354 0.4953 0.0991   -0.204588
 C 0.0278 0.4535 0.1051   0.090279
 C 0.9625 0.5192 0.1017   0.10531
 C 0.8757 0.5027 0.1328   -0.204786
 C 0.8224 0.5683 0.1308   0.196353
 C 0.9286 0.6591 0.0687   0.213581
 C 0.988 0.5994 0.0694   -0.214395
 C 0.986 0.355 0.1149   -0.206511
 C 0.0498 0.2987 0.1179   0.190058
 C 0.2083 0.9637 0.7231   0.201622
 C 0.268 0.9044 0.7204   -0.188487
 C 0.3732 0.9423 0.7331   0.119093
 C 0.4396 0.8789 0.7337   0.093756
 C 0.5185 0.8959 0.7696   -0.154215
 C 0.5761 0.8335 0.7704   0.196249
 C 0.4842 0.7428 0.7024   0.191512
 C 0.4241 0.8019 0.6994   -0.20648
 C 0.4146 0.0407 0.745   -0.188858
 C 0.3502 0.0965 0.746   0.188252
 C 0.529 0.5972 0.4614   -0.214931
 C 0.5188 0.5517 0.4131   0.012652
 C 0.4181 0.51 0.3919   -0.137116
 C 0.3304 0.5175 0.4177   -0.016255
 C 0.3435 0.5685 0.4644   -0.171148
 C 0.4417 0.6057 0.486   0.033549
 C 0.6305 0.6339 0.4908   0.682937
 C 0.6091 0.539 0.3821   0.676875
 C 0.4047 0.455 0.3412   0.663418
 C 0.2224 0.4713 0.3943   0.657833
 C 0.2563 0.581 0.4967   0.713841
 C 0.1102 0.0354 0.4628   -0.206801
 C 0.0646 0.0171 0.4138   0.01719
 C 0.0267 0.9187 0.3958   -0.137656
 C 0.0378 0.8421 0.425   -0.014858
 C 0.0893 0.8614 0.4723   -0.172927
 C 0.125 0.9581 0.4903   0.045637
 C 0.1415 0.1333 0.4894   0.682877
 C 0.0472 0.0984 0.3804   0.670003
 C 0.9698 0.8989 0.3445   0.668727
 C 0.9958 0.7366 0.4049   0.652287
 C 0.1066 0.7851 0.5079   0.692406
 C 0.3058 0.0657 0.6034   0.205685
 C 0.3646 0.0047 0.5991   -0.204589
 C 0.4722 0.0465 0.6051   0.090278
 C 0.5375 0.9808 0.6017   0.10531
 C 0.6243 0.9973 0.6328   -0.204786
 C 0.6776 0.9317 0.6308   0.196352
 C 0.5714 0.8409 0.5687   0.213581
 C 0.512 0.9006 0.5694   -0.214395
 C 0.514 0.145 0.6149   -0.206512
 C 0.4502 0.2013 0.6179   0.190058
 C 0.2917 0.5363 0.2231   0.201622
 C 0.232 0.5956 0.2204   -0.188487
 C 0.1268 0.5577 0.2331   0.119092
 C 0.0604 0.6211 0.2337   0.093756
 C 0.9815 0.6041 0.2696   -0.154215
 C 0.9239 0.6665 0.2704   0.196248
 C 0.0158 0.7572 0.2024   0.191511
 C 0.0759 0.6981 0.1994   -0.20648
 C 0.0854 0.4593 0.245   -0.188858
 C 0.1498 0.4035 0.246   0.188251
 N 0.8461 0.6634 0.88884   -0.401168
 N 0.1533 0.3527 0.9005   -0.402297
 N 0.752 0.9407 0.26453   -0.362841
 N 0.4407 0.243 0.26154   -0.367956
 N 0.6539 0.8366 0.38884   -0.401168
 N 0.3467 0.1473 0.4005   -0.402297
 N 0.748 0.5593 0.76453   -0.362841
 N 0.0593 0.257 0.76154   -0.367956
 N 0.1539 0.3366 0.11116   -0.401168
 N 0.8467 0.6473 0.0995   -0.402297
 N 0.248 0.0593 0.73547   -0.362841
 N 0.5593 0.757 0.73846   -0.367956
 N 0.3461 0.1634 0.61116   -0.401168
 N 0.6533 0.8527 0.5995   -0.402296
 N 0.252 0.4407 0.23547   -0.362841
 N 0.9407 0.743 0.23846   -0.367956
 O 0.1295 0.1657 0.96472   -0.59079
 O 0.2107 0.129 0.03264   -0.667255
 O 0.168 0.1144 0.14198   -0.6515
 O 0.1137 0.9558 0.1206   -0.564387
 O 0.9564 0.994 0.19681   -0.514923
 O 0.8381 0.8673 0.16053   -0.655836
 O 0.6905 0.0203 0.13555   -0.535673
 O 0.671 0.8814 0.09153   -0.717632
 O 0.6664 0.0163 0.00458   -0.636755
 O 0.7774 0.155 0.9755   -0.540799
 O 0.6748 0.6392 0.96541   -0.596189
 O 0.6298 0.7054 0.03564   -0.670833
 O 0.6263 0.6557 0.14367   -0.65665
 O 0.4574 0.5994 0.12202   -0.559886
 O 0.5105 0.4466 0.19409   -0.525719
 O 0.3802 0.3319 0.15807   -0.659949
 O 0.5528 0.2049 0.12076   -0.528974
 O 0.4012 0.185 0.08296   -0.703234
 O 0.5432 0.1952 0.99462   -0.623676
 O 0.6803 0.3102 0.9614   -0.528622
 O 0.3705 0.3343 0.46472   -0.59079
 O 0.2893 0.371 0.53264   -0.667255
 O 0.332 0.3856 0.64198   -0.6515
 O 0.3863 0.5442 0.6206   -0.564387
 O 0.5436 0.506 0.69681   -0.514923
 O 0.6619 0.6327 0.66053   -0.655836
 O 0.8095 0.4797 0.63555   -0.535673
 O 0.829 0.6186 0.59153   -0.717632
 O 0.8336 0.4837 0.50458   -0.636755
 O 0.7226 0.345 0.4755   -0.540799
 O 0.8252 0.8608 0.46541   -0.596189
 O 0.8702 0.7946 0.53564   -0.670833
 O 0.8737 0.8443 0.64367   -0.65665
 O 0.0426 0.9006 0.62202   -0.559886
 O 0.9895 0.0534 0.69409   -0.525719
 O 0.1198 0.1681 0.65807   -0.659949
 O 0.9472 0.2951 0.62076   -0.528974
 O 0.0988 0.315 0.58296   -0.703234
 O 0.9568 0.3048 0.49462   -0.623676
 O 0.8197 0.1898 0.4614   -0.528622
 O 0.8705 0.8343 0.03528   -0.59079
 O 0.7893 0.871 0.96736   -0.667255
 O 0.832 0.8856 0.85802   -0.6515
 O 0.8863 0.0442 0.8794   -0.564387
 O 0.0436 0.006 0.80319   -0.514921
 O 0.1619 0.1327 0.83947   -0.655836
 O 0.3095 0.9797 0.86445   -0.535673
 O 0.329 0.1186 0.90847   -0.717632
 O 0.3336 0.9837 0.99542   -0.636755
 O 0.2226 0.845 0.0245   -0.540799
 O 0.3252 0.3608 0.03459   -0.596188
 O 0.3702 0.2946 0.96436   -0.670833
 O 0.3737 0.3443 0.85633   -0.65665
 O 0.5426 0.4006 0.87798   -0.559886
 O 0.4895 0.5534 0.80591   -0.525718
 O 0.6198 0.6681 0.84193   -0.659949
 O 0.4472 0.7951 0.87924   -0.528974
 O 0.5988 0.815 0.91704   -0.703234
 O 0.4568 0.8048 0.00538   -0.623676
 O 0.3197 0.6898 0.0386   -0.528622
 O 0.6295 0.6657 0.53528   -0.59079
 O 0.7107 0.629 0.46736   -0.667255
 O 0.668 0.6144 0.35802   -0.6515
 O 0.6137 0.4558 0.3794   -0.564387
 O 0.4564 0.494 0.30319   -0.514921
 O 0.3381 0.3673 0.33947   -0.655836
 O 0.1905 0.5203 0.36445   -0.535673
 O 0.171 0.3814 0.40847   -0.717632
 O 0.1664 0.5163 0.49542   -0.636755
 O 0.2774 0.655 0.5245   -0.540799
 O 0.1748 0.1392 0.53459   -0.596188
 O 0.1298 0.2054 0.46436   -0.670833
 O 0.1263 0.1557 0.35633   -0.65665
 O 0.9574 0.0994 0.37798   -0.559886
 O 0.0105 0.9466 0.30591   -0.525718
 O 0.8802 0.8319 0.34193   -0.659949
 O 0.0528 0.7049 0.37924   -0.528974
 O 0.9012 0.685 0.41704   -0.703234
 O 0.0432 0.6952 0.50538   -0.623676
 O 0.1803 0.8102 0.5386   -0.528622
