{'_ref': 'TBD', '_srcid': 'CAKYAQ_clean', 'submitters': [{'name': 'Dalar Nazarian Jeff Camp and David Sholl', 'email': 'dalar@gatech.edu jcamp6@gatech.edu'}], '_method': 'VASP DFT with PBE;DDEC'}
data_CaCuH4(C3O4)2
_symmetry_space_group_name_H-M   'P 1'
_cell_length_a   6.69210000
_cell_length_b   13.22390000
_cell_length_c   13.70230000
_cell_angle_alpha   90.00000000
_cell_angle_beta   90.00000000
_cell_angle_gamma   90.00000000
_symmetry_Int_Tables_number   1
_chemical_formula_structural   CaCuH4(C3O4)2
_chemical_formula_sum   'Ca4 Cu4 H16 C24 O32'
_cell_volume   1212.59409832
_cell_formula_units_Z   4
loop_
 _symmetry_equiv_pos_site_id
 _symmetry_equiv_pos_as_xyz
  1  'x, y, z'
loop_
 _atom_site_label
 _atom_site_fract_x
 _atom_site_fract_y
 _atom_site_fract_z
 _atom_site_charge
 Ca 0.0 0.75 0.78471   1.577816
 Ca 0.5 0.25 0.71529   1.577816
 Ca 0.0 0.25 0.21529   1.577812
 Ca 0.5 0.75 0.28471   1.577812
 Cu 0.5 0.0 0.5   1.017713
 Cu 0.0 0.5 0.0   1.017713
 Cu 0.5 0.5 0.5   1.017713
 Cu 0.0 0.0 0.0   1.017713
 H 0.3726 0.8993 0.7799   0.16261
 H 0.5777 0.8868 0.727   0.190818
 H 0.1274 0.3993 0.7201   0.16261
 H 0.9223 0.3868 0.773   0.190818
 H 0.6274 0.6007 0.7799   0.16261
 H 0.4223 0.6132 0.727   0.190818
 H 0.8726 0.1007 0.7201   0.16261
 H 0.0777 0.1132 0.773   0.190818
 H 0.6274 0.1007 0.2201   0.16261
 H 0.4223 0.1132 0.273   0.190818
 H 0.8726 0.6007 0.2799   0.16261
 H 0.0777 0.6132 0.227   0.190818
 H 0.3726 0.3993 0.2201   0.16261
 H 0.5777 0.3868 0.273   0.190818
 H 0.1274 0.8993 0.2799   0.16261
 H 0.9223 0.8868 0.227   0.190818
 C 0.3415 0.8527 0.6387   0.82057
 C 0.4431 0.9129 0.7194   -0.596127
 C 0.4571 0.0256 0.7075   0.796419
 C 0.1585 0.3527 0.8613   0.82057
 C 0.0569 0.4129 0.7806   -0.596127
 C 0.0429 0.5256 0.7925   0.796419
 C 0.6585 0.6473 0.6387   0.82057
 C 0.5569 0.5871 0.7194   -0.596127
 C 0.5429 0.4744 0.7075   0.79642
 C 0.8415 0.1473 0.8613   0.82057
 C 0.9431 0.0871 0.7806   -0.596127
 C 0.9571 0.9744 0.7925   0.79642
 C 0.6585 0.1473 0.3613   0.820569
 C 0.5569 0.0871 0.2806   -0.596128
 C 0.5429 0.9744 0.2925   0.796419
 C 0.8415 0.6473 0.1387   0.820569
 C 0.9431 0.5871 0.2194   -0.596128
 C 0.9571 0.4744 0.2075   0.796419
 C 0.3415 0.3527 0.3613   0.82057
 C 0.4431 0.4129 0.2806   -0.596127
 C 0.4571 0.5256 0.2925   0.796419
 C 0.1585 0.8527 0.1387   0.82057
 C 0.0569 0.9129 0.2194   -0.596127
 C 0.0429 0.0256 0.2075   0.796419
 O 0.3672 0.8791 0.551   -0.624352
 O 0.2448 0.7765 0.6632   -0.684972
 O 0.5018 0.0662 0.6264   -0.734681
 O 0.4335 0.0807 0.7798   -0.628048
 O 0.1328 0.3791 0.949   -0.624352
 O 0.2552 0.2765 0.8368   -0.684972
 O 0.9982 0.5662 0.8736   -0.734681
 O 0.0665 0.5807 0.7202   -0.628048
 O 0.6328 0.6209 0.551   -0.624352
 O 0.7552 0.7235 0.6632   -0.684972
 O 0.4982 0.4338 0.6264   -0.734681
 O 0.5665 0.4193 0.7798   -0.628048
 O 0.8672 0.1209 0.949   -0.624352
 O 0.7448 0.2235 0.8368   -0.684972
 O 0.0018 0.9338 0.8736   -0.734681
 O 0.9335 0.9193 0.7202   -0.628048
 O 0.6328 0.1209 0.449   -0.624352
 O 0.7552 0.2235 0.3368   -0.684972
 O 0.4982 0.9338 0.3736   -0.734681
 O 0.5665 0.9193 0.2202   -0.628047
 O 0.8672 0.6209 0.051   -0.624352
 O 0.7448 0.7235 0.1632   -0.684972
 O 0.0018 0.4338 0.1264   -0.734681
 O 0.9335 0.4193 0.2798   -0.628047
 O 0.3672 0.3791 0.449   -0.624352
 O 0.2448 0.2765 0.3368   -0.684972
 O 0.5018 0.5662 0.3736   -0.734681
 O 0.4335 0.5807 0.2202   -0.628048
 O 0.1328 0.8791 0.051   -0.624352
 O 0.2552 0.7765 0.1632   -0.684972
 O 0.9982 0.0662 0.1264   -0.734681
 O 0.0665 0.0807 0.2798   -0.628047
