{'_ref': 'TBD', '_srcid': 'CAKYAQ_clean', 'submitters': [{'name': 'Dalar Nazarian Jeff Camp and David Sholl', 'email': 'dalar@gatech.edu jcamp6@gatech.edu'}], '_method': 'VASP DFT with PBE;DDEC'}
data_SrNiH10C14(NO5)2
_symmetry_space_group_name_H-M   'P 1'
_cell_length_a   8.76350027
_cell_length_b   11.46780031
_cell_length_c   11.46780000
_cell_angle_alpha   73.94399946
_cell_angle_beta   76.17399840
_cell_angle_gamma   76.17370113
_symmetry_Int_Tables_number   1
_chemical_formula_structural   SrNiH10C14(NO5)2
_chemical_formula_sum   'Sr2 Ni2 H20 C28 N4 O20'
_cell_volume   1056.8268662
_cell_formula_units_Z   2
loop_
 _symmetry_equiv_pos_site_id
 _symmetry_equiv_pos_as_xyz
  1  'x, y, z'
loop_
 _atom_site_label
 _atom_site_fract_x
 _atom_site_fract_y
 _atom_site_fract_z
 _atom_site_charge
 Sr 0.75 0.46165 0.53835   1.57962
 Sr 0.25 0.53835 0.46165   1.579618
 Ni 0.0 0.5 0.0   0.539508
 Ni 0.5 0.0 0.5   0.539505
 H 0.4757 0.3063 0.5401   0.42852
 H 0.4639 0.3473 0.6449   0.450045
 H 0.5703 0.2973 0.2583   0.112469
 H 0.462 0.2667 0.1041   0.109046
 H 0.7735 0.4527 0.8521   0.078494
 H 0.0243 0.4599 0.6937   0.428503
 H 0.0361 0.3551 0.6527   0.450027
 H 0.9297 0.7417 0.7027   0.112471
 H 0.038 0.8959 0.7333   0.109048
 H 0.7265 0.1479 0.5473   0.078494
 H 0.5243 0.6937 0.4599   0.42852
 H 0.5361 0.6527 0.3551   0.450045
 H 0.4297 0.7027 0.7417   0.112469
 H 0.538 0.7333 0.8959   0.109047
 H 0.2265 0.5473 0.1479   0.078494
 H 0.9757 0.5401 0.3063   0.428503
 H 0.9639 0.6449 0.3473   0.450027
 H 0.0703 0.2583 0.2973   0.112471
 H 0.962 0.1041 0.2667   0.109048
 H 0.2735 0.8521 0.4527   0.078494
 C 0.7351 0.39097 0.14081   0.072186
 C 0.6103 0.32776 0.17536   -0.098623
 C 0.5453 0.31028 0.08328   0.032515
 C 0.6055 0.35824 0.96056   -0.172093
 C 0.732 0.42015 0.93429   0.179471
 C 0.8097 0.42019 0.23303   0.625547
 C 0.5401 0.34698 0.85518   0.711555
 C 0.7649 0.85919 0.60903   0.072201
 C 0.8897 0.82464 0.67224   -0.098626
 C 0.9547 0.91672 0.68972   0.032513
 C 0.8945 0.03944 0.64176   -0.172075
 C 0.768 0.06571 0.57985   0.179453
 C 0.6903 0.76697 0.57981   0.625544
 C 0.9599 0.14482 0.65302   0.711552
 C 0.2649 0.60903 0.85919   0.072185
 C 0.3897 0.67224 0.82464   -0.098623
 C 0.4547 0.68972 0.91672   0.032516
 C 0.3945 0.64176 0.03944   -0.172093
 C 0.268 0.57985 0.06571   0.179472
 C 0.1903 0.57981 0.76697   0.625547
 C 0.4599 0.65302 0.14482   0.711554
 C 0.2351 0.14081 0.39097   0.0722
 C 0.1103 0.17536 0.32776   -0.098626
 C 0.0453 0.08328 0.31028   0.032514
 C 0.1055 0.96056 0.35824   -0.172075
 C 0.232 0.93429 0.42015   0.179454
 C 0.3097 0.23303 0.42019   0.625544
 C 0.0401 0.85518 0.34698   0.711551
 N 0.7967 0.43477 0.02235   -0.247589
 N 0.7033 0.97765 0.56523   -0.247603
 N 0.2033 0.56523 0.97765   -0.247589
 N 0.2967 0.02235 0.43477   -0.247603
 O 0.9307 0.4723 0.18732   -0.499827
 O 0.7516 0.39258 0.34348   -0.581386
 O 0.4264 0.29223 0.87783   -0.610507
 O 0.6039 0.39541 0.75035   -0.736054
 O 0.4672 0.36977 0.56731   -0.913334
 O 0.5693 0.81268 0.5277   -0.499827
 O 0.7484 0.65652 0.60742   -0.581382
 O 0.0736 0.12217 0.70777   -0.610512
 O 0.8961 0.24965 0.60459   -0.736043
 O 0.0328 0.43269 0.63023   -0.9133
 O 0.0693 0.5277 0.81268   -0.499828
 O 0.2484 0.60742 0.65652   -0.581386
 O 0.5736 0.70777 0.12217   -0.610506
 O 0.3961 0.60459 0.24965   -0.736053
 O 0.5328 0.63023 0.43269   -0.913334
 O 0.4307 0.18732 0.4723   -0.499827
 O 0.2516 0.34348 0.39258   -0.581382
 O 0.9264 0.87783 0.29223   -0.610512
 O 0.1039 0.75035 0.39541   -0.736043
 O 0.9672 0.56731 0.36977   -0.9133
