{'_ref': 'TBD', '_srcid': 'CAKYAQ_clean', 'submitters': [{'name': 'Dalar Nazarian Jeff Camp and David Sholl', 'email': 'dalar@gatech.edu jcamp6@gatech.edu'}], '_method': 'VASP DFT with PBE;DDEC'}
data_CdNi(C2N)6
_symmetry_space_group_name_H-M   'P 1'
_cell_length_a   7.04199964
_cell_length_b   7.65200000
_cell_length_c   11.34800000
_cell_angle_alpha   90.00000000
_cell_angle_beta   106.07000124
_cell_angle_gamma   90.00000000
_symmetry_Int_Tables_number   1
_chemical_formula_structural   CdNi(C2N)6
_chemical_formula_sum   'Cd1 Ni1 C12 N6'
_cell_volume   587.59680563
_cell_formula_units_Z   1
loop_
 _symmetry_equiv_pos_site_id
 _symmetry_equiv_pos_as_xyz
  1  'x, y, z'
loop_
 _atom_site_label
 _atom_site_fract_x
 _atom_site_fract_y
 _atom_site_fract_z
 _atom_site_charge
 Cd 0.0 0.0 0.0   0.975073
 Ni 0.5 0.5 0.0   0.193496
 C 0.6943 0.6715 0.0387   0.10104
 C 0.3057 0.6715 0.9613   0.10104
 C 0.3057 0.3285 0.9613   0.101047
 C 0.6943 0.3285 0.0387   0.101048
 C 0.5727 0.0 0.7888   0.144979
 C 0.4516 0.0 0.657   -0.003238
 C 0.2313 0.0 0.6412   0.045375
 C 0.1127 0.0 0.5065   0.014535
 C 0.4273 0.0 0.2112   0.144979
 C 0.5484 0.0 0.343   -0.003235
 C 0.7687 0.0 0.3588   0.045374
 C 0.8873 0.0 0.4935   0.014547
 N 0.8117 0.7784 0.0583   -0.396969
 N 0.1883 0.7784 0.9417   -0.396968
 N 0.1883 0.2216 0.9417   -0.39697
 N 0.8117 0.2216 0.0583   -0.396969
 N 0.7894 0.0 0.8041   -0.194092
 N 0.2106 0.0 0.1959   -0.194092
