{'_ref': 'TBD', '_srcid': 'CAKYAQ_clean', 'submitters': [{'name': 'Dalar Nazarian Jeff Camp and David Sholl', 'email': 'dalar@gatech.edu jcamp6@gatech.edu'}], '_method': 'VASP DFT with PBE;DDEC'}
data_CdH6(C2O5)2
_symmetry_space_group_name_H-M   'P 1'
_cell_length_a   9.61719961
_cell_length_b   11.78260000
_cell_length_c   12.27340000
_cell_angle_alpha   90.00000000
_cell_angle_beta   99.29500017
_cell_angle_gamma   90.00000000
_symmetry_Int_Tables_number   1
_chemical_formula_structural   CdH6(C2O5)2
_chemical_formula_sum   'Cd4 H24 C16 O40'
_cell_volume   1372.50684336
_cell_formula_units_Z   4
loop_
 _symmetry_equiv_pos_site_id
 _symmetry_equiv_pos_as_xyz
  1  'x, y, z'
loop_
 _atom_site_label
 _atom_site_fract_x
 _atom_site_fract_y
 _atom_site_fract_z
 _atom_site_charge
 Cd 0.78663 0.01752 0.17059   1.216818
 Cd 0.71337 0.51752 0.32941   1.216818
 Cd 0.21337 0.98248 0.82941   1.216818
 Cd 0.28663 0.48248 0.67059   1.216818
 H 0.0056 0.3053 0.0059   0.389107
 H 0.1042 0.2366 0.9821   0.476259
 H 0.0734 0.2361 0.0805   0.513215
 H 0.6459 0.9646 0.4488   0.357986
 H 0.6143 0.9755 0.5491   0.310149
 H 0.6449 0.0619 0.4897   0.365835
 H 0.4944 0.8053 0.4941   0.389097
 H 0.3958 0.7366 0.5179   0.476258
 H 0.4266 0.7361 0.4195   0.513214
 H 0.8541 0.4646 0.0512   0.357984
 H 0.8857 0.4755 0.9509   0.310141
 H 0.8551 0.5619 0.0103   0.365835
 H 0.9944 0.6947 0.9941   0.389102
 H 0.8958 0.7634 0.0179   0.476259
 H 0.9266 0.7639 0.9195   0.513213
 H 0.3541 0.0354 0.5512   0.35798
 H 0.3857 0.0245 0.4509   0.310131
 H 0.3551 0.9381 0.5103   0.365825
 H 0.5056 0.1947 0.5059   0.389093
 H 0.6042 0.2634 0.4821   0.476259
 H 0.5734 0.2639 0.5805   0.513212
 H 0.1459 0.5354 0.9488   0.357977
 H 0.1143 0.5245 0.0491   0.310124
 H 0.1449 0.4381 0.9897   0.365825
 C 0.7997 0.7485 0.2176   0.593335
 C 0.7004 0.7913 0.2953   0.59309
 C 0.4942 0.0656 0.9988   0.543509
 C 0.0632 0.000700000000002 0.0471   0.469958
 C 0.7003 0.2485 0.2824   0.593334
 C 0.7996 0.2913 0.2047   0.59309
 C 0.0058 0.5656 0.5012   0.543508
 C 0.4368 0.5007 0.4529   0.469958
 C 0.2003 0.2515 0.7824   0.593335
 C 0.2996 0.2087 0.7047   0.593086
 C 0.5058 0.9344 0.0012   0.543504
 C 0.9368 0.9993 0.9529   0.46996
 C 0.2997 0.7515 0.7176   0.593335
 C 0.2004 0.7087 0.7953   0.593086
 C 0.9942 0.4344 0.4988   0.543503
 C 0.5632 0.4993 0.5471   0.46996
 O 0.6869 0.8965 0.3034   -0.634157
 O 0.6389 0.7172 0.3436   -0.637008
 O 0.8057 0.6438 0.2031   -0.644988
 O 0.8681 0.821 0.1738   -0.627617
 O 0.0355 0.0159 0.1428   -0.621281
 O 0.1828 0.987 0.0231   -0.557715
 O 0.5813 0.1188 0.0673   -0.545014
 O 0.3998 0.1077 0.9312   -0.551204
 O 0.8131 0.3965 0.1966   -0.634157
 O 0.8611 0.2172 0.1564   -0.637008
 O 0.6943 0.1438 0.2969   -0.644988
 O 0.6319 0.321 0.3262   -0.627617
 O 0.4645 0.5159 0.3572   -0.621281
 O 0.3172 0.487 0.4769   -0.557715
 O 0.9187 0.6188 0.4327   -0.545015
 O 0.1002 0.6077 0.5688   -0.551203
 O 0.3131 0.1035 0.6966   -0.634157
 O 0.3611 0.2828 0.6564   -0.637007
 O 0.1943 0.3562 0.7969   -0.644988
 O 0.1319 0.179 0.8262   -0.627617
 O 0.9645 0.9841 0.8572   -0.621282
 O 0.8172 0.013 0.9769   -0.557716
 O 0.4187 0.8812 0.9327   -0.545014
 O 0.6002 0.8923 0.0688   -0.551203
 O 0.1869 0.6035 0.8034   -0.634156
 O 0.1389 0.7828 0.8436   -0.637007
 O 0.3057 0.8562 0.7031   -0.644988
 O 0.3681 0.679 0.6738   -0.627617
 O 0.5355 0.4841 0.6428   -0.621281
 O 0.6828 0.513 0.5231   -0.557716
 O 0.0813 0.3812 0.5673   -0.545015
 O 0.8998 0.3923 0.4312   -0.551203
 O 0.0865 0.2809 0.0308   -0.595126
 O 0.6701 0.9964 0.5086   -0.415125
 O 0.4135 0.7809 0.4692   -0.595123
 O 0.8299 0.4964 0.9914   -0.415122
 O 0.9135 0.7191 0.9692   -0.595125
 O 0.3299 0.0036 0.4914   -0.415115
 O 0.5865 0.2191 0.5308   -0.595122
 O 0.1701 0.5036 0.0086   -0.415112
