{'_ref': 'TBD', '_srcid': 'CAKYAQ_clean', 'submitters': [{'name': 'Dalar Nazarian Jeff Camp and David Sholl', 'email': 'dalar@gatech.edu jcamp6@gatech.edu'}], '_method': 'VASP DFT with PBE;DDEC'}
data_Pr2H15C24(NO4)3
_symmetry_space_group_name_H-M   'P 1'
_cell_length_a   10.49510054
_cell_length_b   11.33959969
_cell_length_c   12.79540000
_cell_angle_alpha   100.73000015
_cell_angle_beta   110.14200104
_cell_angle_gamma   99.73199934
_symmetry_Int_Tables_number   1
_chemical_formula_structural   Pr2H15C24(NO4)3
_chemical_formula_sum   'Pr2 H15 C24 N3 O12'
_cell_volume   1359.04655058
_cell_formula_units_Z   1
loop_
 _symmetry_equiv_pos_site_id
 _symmetry_equiv_pos_as_xyz
  1  'x, y, z'
loop_
 _atom_site_label
 _atom_site_fract_x
 _atom_site_fract_y
 _atom_site_fract_z
 _atom_site_charge
 Pr 0.61101 0.57328 0.63661   2.192871
 Pr 0.4006 0.44496 0.34263   2.097844
 H 0.90966 0.645 0.59562   0.137614
 H 0.53805 0.88904 0.34098   0.105344
 H 0.10046 0.80161 0.96413   0.100132
 H 0.36267 0.81398 0.63298   0.33254
 H 0.41785 0.96218 0.7343   0.328935
 H 0.63947 0.88436 0.87684   0.343734
 H 0.67849 0.03157 0.97503   0.334925
 H 0.09073 0.3553 0.37794   0.113794
 H 0.48285 0.14666 0.67487   0.126338
 H 0.91494 0.14787 0.09826   0.132212
 H 0.27336 0.66409 0.75352   0.352398
 H 0.14387 0.74935 0.73186   0.345319
 H 0.83719 0.33672 0.31329   0.118433
 H 0.57584 0.11435 0.3704   0.120229
 H 0.26228 0.99118 0.10972   0.114495
 C 0.69614 0.47976 0.41053   0.680945
 C 0.85248 0.49025 0.44967   -0.058183
 C 0.90754 0.40887 0.3898   -0.129972
 C 0.94871 0.58123 0.54837   -0.23363
 C 0.49127 0.75608 0.48619   0.782041
 C 0.48341 0.88599 0.48864   -0.251422
 C 0.46792 0.96119 0.5838   0.372763
 C 0.52271 0.9434 0.41273   -0.029214
 C 0.81132 0.74278 0.84687   0.753943
 C 0.90909 0.85804 0.94712   -0.235112
 C 0.86034 0.96047 0.98862   0.367728
 C 0.05673 0.87466 0.99383   -0.044665
 C 0.30879 0.52468 0.5609   0.685806
 C 0.15131 0.51082 0.52635   -0.270977
 C 0.09487 0.59033 0.58938   0.379522
 C 0.05379 0.41943 0.42708   -0.031093
 C 0.53794 0.27798 0.53276   0.682214
 C 0.53848 0.14725 0.52845   0.001872
 C 0.5485 0.07241 0.43181   -0.16044
 C 0.49841 0.09073 0.60397   -0.248518
 C 0.20589 0.21135 0.20187   0.648151
 C 0.10352 0.08742 0.118   -0.011139
 C 0.15081 0.98486 0.07819   -0.168447
 C 0.95637 0.07172 0.07129   -0.242491
 N 0.41648 0.907 0.65863   -0.742041
 N 0.714 0.95736 0.94372   -0.745088
 N 0.18174 0.6785 0.69768   -0.732092
 O 0.62913 0.55198 0.46092   -0.873625
 O 0.60814 0.40985 0.32234   -0.59859
 O 0.56576 0.74386 0.58457   -0.665852
 O 0.42901 0.66546 0.39131   -0.765735
 O 0.83528 0.70308 0.75792   -0.72033
 O 0.69115 0.68087 0.8349   -0.708507
 O 0.37792 0.44914 0.51668   -0.839478
 O 0.39704 0.60505 0.64   -0.607666
 O 0.45779 0.29272 0.43587   -0.551369
 O 0.61068 0.36709 0.62701   -0.746274
 O 0.17736 0.31641 0.21186   -0.751195
 O 0.3325 0.22503 0.26879   -0.588998
