{'_ref': 'TBD', '_srcid': 'CAKYAQ_clean', 'submitters': [{'name': 'Dalar Nazarian Jeff Camp and David Sholl', 'email': 'dalar@gatech.edu jcamp6@gatech.edu'}], '_method': 'VASP DFT with PBE;DDEC'}
data_CuH2(C3O2)2
_symmetry_space_group_name_H-M   'P 1'
_cell_length_a   18.61030037
_cell_length_b   18.61029978
_cell_length_c   18.61030000
_cell_angle_alpha   59.99999961
_cell_angle_beta   60.00000066
_cell_angle_gamma   59.99999939
_symmetry_Int_Tables_number   1
_chemical_formula_structural   CuH2(C3O2)2
_chemical_formula_sum   'Cu12 H24 C72 O48'
_cell_volume   4557.69361276
_cell_formula_units_Z   12
loop_
 _symmetry_equiv_pos_site_id
 _symmetry_equiv_pos_as_xyz
  1  'x, y, z'
loop_
 _atom_site_label
 _atom_site_fract_x
 _atom_site_fract_y
 _atom_site_fract_z
 _atom_site_charge
 Cu 0.5 0.0704 0.9296   0.937379
 Cu 0.0704 0.5 0.5   0.937378
 Cu 0.9296 0.5 0.5   0.937378
 Cu 0.5 0.9296 0.0704   0.937378
 Cu 0.5 0.9296 0.5   0.937379
 Cu 0.0704 0.5 0.9296   0.937379
 Cu 0.9296 0.5 0.0704   0.937379
 Cu 0.5 0.0704 0.5   0.937378
 Cu 0.5 0.5 0.0704   0.937379
 Cu 0.0704 0.9296 0.5   0.93738
 Cu 0.9296 0.0704 0.5   0.937379
 Cu 0.5 0.5 0.9296   0.937378
 H 0.4658 0.9894 0.7724   0.116501
 H 0.9894 0.4658 0.7724   0.116501
 H 0.7724 0.7724 0.4658   0.116501
 H 0.7724 0.7724 0.9894   0.116501
 H 0.4658 0.7724 0.7724   0.116501
 H 0.9894 0.7724 0.7724   0.116501
 H 0.7724 0.4658 0.9894   0.116501
 H 0.7724 0.9894 0.4658   0.116501
 H 0.4658 0.7724 0.9894   0.116501
 H 0.9894 0.7724 0.4658   0.116501
 H 0.7724 0.9894 0.7724   0.116501
 H 0.7724 0.4658 0.7724   0.116501
 H 0.0106 0.5342 0.2276   0.116501
 H 0.5342 0.0106 0.2276   0.116501
 H 0.2276 0.2276 0.5342   0.116501
 H 0.2276 0.2276 0.0106   0.116501
 H 0.2276 0.5342 0.2276   0.116501
 H 0.2276 0.0106 0.2276   0.116501
 H 0.5342 0.2276 0.0106   0.116501
 H 0.0106 0.2276 0.5342   0.116501
 H 0.2276 0.5342 0.0106   0.116501
 H 0.2276 0.0106 0.5342   0.116501
 H 0.0106 0.2276 0.2276   0.116501
 H 0.5342 0.2276 0.2276   0.116501
 C 0.4655 0.9319 0.8013   0.040571
 C 0.9319 0.4655 0.8013   0.040571
 C 0.8013 0.8013 0.4655   0.040571
 C 0.8013 0.8013 0.9319   0.04057
 C 0.4655 0.8013 0.8013   0.040571
 C 0.9319 0.8013 0.8013   0.04057
 C 0.8013 0.4655 0.9319   0.040571
 C 0.8013 0.9319 0.4655   0.040571
 C 0.4655 0.8013 0.9319   0.040571
 C 0.9319 0.8013 0.4655   0.040571
 C 0.8013 0.9319 0.8013   0.04057
 C 0.8013 0.4655 0.8013   0.040571
 C 0.0681 0.5345 0.1987   0.040571
 C 0.5345 0.0681 0.1987   0.04057
 C 0.1987 0.1987 0.5345   0.040571
 C 0.1987 0.1987 0.0681   0.04057
 C 0.1987 0.5345 0.1987   0.040571
 C 0.1987 0.0681 0.1987   0.04057
 C 0.5345 0.1987 0.0681   0.040571
 C 0.0681 0.1987 0.5345   0.040571
 C 0.1987 0.5345 0.0681   0.040571
 C 0.1987 0.0681 0.5345   0.04057
 C 0.0681 0.1987 0.1987   0.04057
 C 0.5345 0.1987 0.1987   0.040571
 C 0.4734 0.9314 0.9314   0.688864
 C 0.4653 0.8885 0.8885   -0.174342
 C 0.9314 0.4734 0.6638   0.688864
 C 0.8885 0.4653 0.7577   -0.174343
 C 0.9314 0.6638 0.4734   0.688864
 C 0.8885 0.7577 0.4653   -0.174343
 C 0.6638 0.9314 0.9314   0.688864
 C 0.7577 0.8885 0.8885   -0.174342
 C 0.4734 0.9314 0.6638   0.688864
 C 0.4653 0.8885 0.7577   -0.174342
 C 0.9314 0.6638 0.9314   0.688864
 C 0.8885 0.7577 0.8885   -0.174342
 C 0.9314 0.4734 0.9314   0.688864
 C 0.8885 0.4653 0.8885   -0.174342
 C 0.6638 0.9314 0.4734   0.688864
 C 0.7577 0.8885 0.4653   -0.174343
 C 0.4734 0.6638 0.9314   0.688864
 C 0.4653 0.7577 0.8885   -0.174343
 C 0.9314 0.9314 0.4734   0.688864
 C 0.8885 0.8885 0.4653   -0.174342
 C 0.9314 0.9314 0.6638   0.688864
 C 0.8885 0.8885 0.7577   -0.174342
 C 0.6638 0.4734 0.9314   0.688864
 C 0.7577 0.4653 0.8885   -0.174343
 C 0.0686 0.5266 0.0686   0.688864
 C 0.1115 0.5347 0.1115   -0.174342
 C 0.5266 0.0686 0.3362   0.688864
 C 0.5347 0.1115 0.2423   -0.174342
 C 0.3362 0.0686 0.5266   0.688864
 C 0.2423 0.1115 0.5347   -0.174343
 C 0.0686 0.3362 0.0686   0.688864
 C 0.1115 0.2423 0.1115   -0.174342
 C 0.0686 0.5266 0.3362   0.688864
 C 0.1115 0.5347 0.2423   -0.174343
 C 0.3362 0.0686 0.0686   0.688864
 C 0.2423 0.1115 0.1115   -0.174342
 C 0.5266 0.0686 0.0686   0.688864
 C 0.5347 0.1115 0.1115   -0.174342
 C 0.0686 0.3362 0.5266   0.688864
 C 0.1115 0.2423 0.5347   -0.174343
 C 0.3362 0.5266 0.0686   0.688864
 C 0.2423 0.5347 0.1115   -0.174343
 C 0.0686 0.0686 0.5266   0.688864
 C 0.1115 0.1115 0.5347   -0.174342
 C 0.0686 0.0686 0.3362   0.688864
 C 0.1115 0.1115 0.2423   -0.174342
 C 0.5266 0.3362 0.0686   0.688864
 C 0.5347 0.2423 0.1115   -0.174343
 O 0.4794 0.0076 0.887   -0.570141
 O 0.0076 0.4794 0.626   -0.570141
 O 0.887 0.626 0.4794   -0.570141
 O 0.626 0.887 0.0076   -0.570141
 O 0.4794 0.887 0.626   -0.570141
 O 0.0076 0.626 0.887   -0.570141
 O 0.887 0.4794 0.0076   -0.570141
 O 0.626 0.0076 0.4794   -0.570141
 O 0.4794 0.626 0.0076   -0.570141
 O 0.0076 0.887 0.4794   -0.570141
 O 0.887 0.0076 0.626   -0.570141
 O 0.626 0.4794 0.887   -0.570141
 O 0.9924 0.5206 0.113   -0.570141
 O 0.5206 0.9924 0.374   -0.570141
 O 0.374 0.113 0.5206   -0.570141
 O 0.113 0.374 0.9924   -0.570141
 O 0.113 0.5206 0.374   -0.570141
 O 0.374 0.9924 0.113   -0.570141
 O 0.5206 0.113 0.9924   -0.570141
 O 0.9924 0.374 0.5206   -0.570141
 O 0.374 0.5206 0.9924   -0.570141
 O 0.113 0.9924 0.5206   -0.570141
 O 0.9924 0.113 0.374   -0.570141
 O 0.5206 0.374 0.113   -0.570141
 O 0.5206 0.9924 0.113   -0.570141
 O 0.9924 0.5206 0.374   -0.570141
 O 0.113 0.374 0.5206   -0.570141
 O 0.374 0.113 0.9924   -0.570141
 O 0.5206 0.113 0.374   -0.570141
 O 0.9924 0.374 0.113   -0.570141
 O 0.113 0.5206 0.9924   -0.570141
 O 0.374 0.9924 0.5206   -0.570141
 O 0.5206 0.374 0.9924   -0.570141
 O 0.9924 0.113 0.5206   -0.570141
 O 0.113 0.9924 0.374   -0.570141
 O 0.374 0.5206 0.113   -0.570141
 O 0.0076 0.4794 0.887   -0.570141
 O 0.4794 0.0076 0.626   -0.570141
 O 0.626 0.887 0.4794   -0.570141
 O 0.887 0.626 0.0076   -0.570141
 O 0.887 0.4794 0.626   -0.570141
 O 0.626 0.0076 0.887   -0.570141
 O 0.4794 0.887 0.0076   -0.570141
 O 0.0076 0.626 0.4794   -0.570141
 O 0.626 0.4794 0.0076   -0.570141
 O 0.887 0.0076 0.4794   -0.570141
 O 0.0076 0.887 0.626   -0.570141
 O 0.4794 0.626 0.887   -0.570141
