{'_ref': 'TBD', '_srcid': 'CAKYAQ_clean', 'submitters': [{'name': 'Dalar Nazarian Jeff Camp and David Sholl', 'email': 'dalar@gatech.edu jcamp6@gatech.edu'}], '_method': 'VASP DFT with PBE;DDEC'}
data_CdH20C28S(N2O3)2
_symmetry_space_group_name_H-M   'P 1'
_cell_length_a   10.17600000
_cell_length_b   11.71899975
_cell_length_c   18.44800000
_cell_angle_alpha   90.00000000
_cell_angle_beta   90.00000000
_cell_angle_gamma   104.38900268
_symmetry_Int_Tables_number   1
_chemical_formula_structural   CdH20C28S(N2O3)2
_chemical_formula_sum   'Cd2 H40 C56 S2 N8 O12'
_cell_volume   2130.95972648
_cell_formula_units_Z   2
loop_
 _symmetry_equiv_pos_site_id
 _symmetry_equiv_pos_as_xyz
  1  'x, y, z'
loop_
 _atom_site_label
 _atom_site_fract_x
 _atom_site_fract_y
 _atom_site_fract_z
 _atom_site_charge
 Cd 0.24962 0.44935 0.14636   0.897107
 Cd 0.75038 0.55065 0.64636   0.897107
 H 0.0766 0.3 0.6816   0.069268
 H 0.0781 0.4238 0.7144   0.054487
 H 0.0699 0.2218 0.7943   0.058686
 H 0.9471 0.2782 0.7829   0.082836
 H 0.4072 0.7058 0.1956   0.095425
 H 0.4185 0.9008 0.1902   0.143333
 H 0.0725 0.8195 0.0713   0.142277
 H 0.0792 0.627 0.0811   0.085588
 H 0.3163 0.2489 0.2334   0.083691
 H 0.3383 0.0531 0.231   0.12464
 H 0.1544 0.0176 0.0367   0.132182
 H 0.1488 0.2124 0.0416   0.091841
 H 0.5949 0.1782 0.5081   0.048254
 H 0.7859 0.2368 0.439   0.109166
 H 0.549 0.229 0.2649   0.118454
 H 0.364 0.1864 0.3433   0.066008
 H 0.929 0.3843 0.3739   0.139348
 H 0.1143 0.4544 0.3016   0.09788
 H 0.926 0.2831 0.1359   0.087817
 H 0.737 0.214 0.2055   0.123196
 H 0.9234 0.7 0.1816   0.069269
 H 0.9219 0.5762 0.2144   0.054487
 H 0.9301 0.7782 0.2943   0.058686
 H 0.0529 0.7218 0.2829   0.082836
 H 0.5928 0.2942 0.6956   0.095425
 H 0.5815 0.0992 0.6902   0.143333
 H 0.9275 0.1805 0.5713   0.142278
 H 0.9208 0.373 0.5811   0.085589
 H 0.6837 0.7511 0.7334   0.083691
 H 0.6617 0.9469 0.731   0.12464
 H 0.8456 0.9824 0.5367   0.132182
 H 0.8512 0.7876 0.5416   0.091841
 H 0.4051 0.8218 0.0081   0.048253
 H 0.2141 0.7632 0.939   0.109167
 H 0.451 0.771 0.7649   0.118454
 H 0.636 0.8136 0.8433   0.066008
 H 0.071 0.6157 0.8739   0.139349
 H 0.8857 0.5456 0.8016   0.09788
 H 0.074 0.7169 0.6359   0.087817
 H 0.263 0.786 0.7055   0.123196
 C 0.5518 0.5003 0.7552   0.702248
 C 0.4361 0.4663 0.8051   -0.314319
 C 0.3007 0.4194 0.7919   0.163968
 C 0.1071 0.352 0.7224   0.057751
 C 0.045 0.2959 0.7881   0.053974
 C 0.221 0.4093 0.8587   0.191535
 C 0.29 0.4498 0.9148   -0.28238
 C 0.2572 0.4545 0.992   0.679068
 C 0.3385 0.7299 0.1715   0.173971
 C 0.3458 0.8471 0.169   -0.207477
 C 0.2422 0.8866 0.1339   0.093068
 C 0.1406 0.7991 0.0982   -0.223709
 C 0.1464 0.6829 0.1048   0.190239
 C 0.2877 0.202 0.1929   0.150245
 C 0.2983 0.0836 0.1927   -0.202503
 C 0.2458 0.0139 0.1322   0.090177
 C 0.1903 0.063 0.0767   -0.198987
 C 0.1873 0.1808 0.08   0.193039
 C 0.5858 0.1911 0.4588   0.215866
 C 0.7011 0.2262 0.4174   -0.21345
 C 0.6917 0.2455 0.3456   0.100896
 C 0.5611 0.2236 0.3146   -0.223822
 C 0.4504 0.1934 0.3622   0.199311
 C 0.8121 0.2886 0.2973   0.105722
 C 0.9262 0.3627 0.3253   -0.194048
 C 0.0369 0.4055 0.2813   0.178113
 C 0.9271 0.306 0.1842   0.166176
 C 0.8139 0.2625 0.2265   -0.198879
 C 0.4482 0.4997 0.2552   0.702248
 C 0.5639 0.5337 0.3051   -0.314319
 C 0.6993 0.5806 0.2919   0.163967
 C 0.8929 0.648 0.2224   0.057751
 C 0.955 0.7041 0.2881   0.053974
 C 0.779 0.5907 0.3587   0.191535
 C 0.71 0.5502 0.4148   -0.28238
 C 0.7428 0.5455 0.492   0.679068
 C 0.6615 0.2701 0.6715   0.173971
 C 0.6542 0.1529 0.669   -0.207477
 C 0.7578 0.1134 0.6339   0.093068
 C 0.8594 0.2009 0.5982   -0.223709
 C 0.8536 0.3171 0.6048   0.190238
 C 0.7123 0.798 0.6929   0.150245
 C 0.7017 0.9164 0.6927   -0.202503
 C 0.7542 0.9861 0.6322   0.090177
 C 0.8097 0.937 0.5767   -0.198987
 C 0.8127 0.8192 0.58   0.193039
 C 0.4142 0.8089 0.9588   0.215866
 C 0.2989 0.7738 0.9174   -0.21345
 C 0.3083 0.7545 0.8456   0.100896
 C 0.4389 0.7764 0.8146   -0.223822
 C 0.5496 0.8066 0.8622   0.19931
 C 0.1879 0.7114 0.7973   0.105722
 C 0.0738 0.6373 0.8253   -0.194048
 C 0.9631 0.5945 0.7813   0.178113
 C 0.0729 0.694 0.6842   0.166177
 C 0.1861 0.7375 0.7265   -0.198879
 S 0.46418 0.49753 0.89668   0.134082
 S 0.53582 0.50247 0.39668   0.134082
 N 0.2354 0.6439 0.1404   -0.317789
 N 0.236 0.2486 0.1343   -0.307627
 N 0.4612 0.1746 0.4312   -0.438027
 N 0.0379 0.3799 0.2108   -0.374691
 N 0.7646 0.3561 0.6404   -0.317789
 N 0.764 0.7514 0.6343   -0.307627
 N 0.5388 0.8254 0.9312   -0.438027
 N 0.9621 0.6201 0.7108   -0.374691
 O 0.6689 0.5264 0.7789   -0.655816
 O 0.5301 0.5019 0.69   -0.589929
 O 0.3496 0.4718 0.0379   -0.586061
 O 0.1333 0.4332 0.012   -0.66423
 O 0.2512 0.3795 0.726   -0.231036
 O 0.0838 0.367 0.8528   -0.266155
 O 0.3311 0.4736 0.2789   -0.655816
 O 0.4699 0.4981 0.19   -0.589929
 O 0.6504 0.5282 0.5379   -0.586061
 O 0.8667 0.5668 0.512   -0.66423
 O 0.7488 0.6205 0.226   -0.231036
 O 0.9162 0.633 0.3528   -0.266155
