{'_ref': 'TBD', '_srcid': 'CAKYAQ_clean', 'submitters': [{'name': 'Dalar Nazarian Jeff Camp and David Sholl', 'email': 'dalar@gatech.edu jcamp6@gatech.edu'}], '_method': 'VASP DFT with PBE;DDEC'}
data_RbSi2H22C8NO
_symmetry_space_group_name_H-M   'P 1'
_cell_length_a   11.23100000
_cell_length_b   11.75900031
_cell_length_c   16.92700000
_cell_angle_alpha   93.90999809
_cell_angle_beta   90.00000000
_cell_angle_gamma   90.00000000
_symmetry_Int_Tables_number   1
_chemical_formula_structural   RbSi2H22C8NO
_chemical_formula_sum   'Rb4 Si8 H88 C32 N4 O4'
_cell_volume   2230.26659164
_cell_formula_units_Z   4
loop_
 _symmetry_equiv_pos_site_id
 _symmetry_equiv_pos_as_xyz
  1  'x, y, z'
loop_
 _atom_site_label
 _atom_site_fract_x
 _atom_site_fract_y
 _atom_site_fract_z
 _atom_site_charge
 Rb 0.5189 0.1401 0.4308   0.940977
 Rb 0.4811 0.8599 0.5692   0.940977
 Rb 0.0189 0.3599 0.0692   0.940977
 Rb 0.9811 0.6401 0.9308   0.940977
 Si 0.4261 0.8425 0.3425   1.376198
 Si 0.2266 0.9649 0.4316   1.363281
 Si 0.5739 0.1575 0.6575   1.376198
 Si 0.7734 0.0351 0.5684   1.363282
 Si 0.9261 0.6575 0.1575   1.376198
 Si 0.7266 0.5351 0.0684   1.363282
 Si 0.0739 0.3425 0.8425   1.376198
 Si 0.2734 0.4649 0.9316   1.363282
 H 0.3385 0.9076 0.2262   0.157848
 H 0.465 0.9656 0.2454   0.133274
 H 0.4577 0.8479 0.1924   0.184693
 H 0.404 0.6375 0.3047   0.177793
 H 0.2786 0.7091 0.3088   0.185197
 H 0.3448 0.6771 0.3907   0.15334
 H 0.6226 0.7533 0.3256   0.179488
 H 0.5936 0.7771 0.4124   0.116387
 H 0.657 0.8658 0.3676   0.172486
 H 0.1162 0.1337 0.4693   0.200021
 H 0.2572 0.1481 0.4995   0.166211
 H 0.2253 0.1419 0.4028   0.156026
 H 0.0368 0.958 0.3671   0.168775
 H 0.1007 0.8422 0.3422   0.181286
 H 0.1302 0.9518 0.298   0.168061
 H 0.0902 0.918 0.5076   0.183422
 H 0.2064 0.9308 0.569   0.162871
 H 0.1836 0.8087 0.5148   0.186786
 H 0.5828 0.5268 0.3967   0.072498
 H 0.6781 0.4397 0.4396   0.075229
 H 0.3356 0.373 0.4818   0.080172
 H 0.3829 0.4853 0.4267   0.066819
 H 0.6615 0.0924 0.7738   0.157848
 H 0.535 0.0344 0.7546   0.133274
 H 0.5423 0.1521 0.8076   0.184693
 H 0.596 0.3625 0.6953   0.177793
 H 0.7214 0.2909 0.6912   0.185197
 H 0.6552 0.3229 0.6093   0.15334
 H 0.3774 0.2467 0.6744   0.179488
 H 0.4064 0.2229 0.5876   0.116387
 H 0.343 0.1342 0.6324   0.172487
 H 0.8838 0.8663 0.5307   0.200021
 H 0.7428 0.8519 0.5005   0.166211
 H 0.7747 0.8581 0.5972   0.156026
 H 0.9632 0.042 0.6329   0.168776
 H 0.8993 0.1578 0.6578   0.181286
 H 0.8698 0.0482 0.702   0.168061
 H 0.9098 0.082 0.4924   0.183422
 H 0.7936 0.0692 0.431   0.162871
 H 0.8164 0.1913 0.4852   0.186785
 H 0.4172 0.4732 0.6033   0.072498
 H 0.3219 0.5603 0.5604   0.075228
 H 0.6644 0.627 0.5182   0.080172
 H 0.6171 0.5147 0.5733   0.066819
 H 0.8385 0.5924 0.2738   0.157848
 H 0.965 0.5344 0.2546   0.133273
 H 0.9577 0.6521 0.3076   0.184693
 H 0.904 0.8625 0.1953   0.177794
 H 0.7786 0.7909 0.1912   0.185197
 H 0.8448 0.8229 0.1093   0.15334
 H 0.1226 0.7467 0.1744   0.179488
 H 0.0936 0.7229 0.0876   0.116387
 H 0.157 0.6342 0.1324   0.172487
 H 0.6162 0.3663 0.0307   0.200021
 H 0.7572 0.3519 0.000500000000002   0.166211
 H 0.7253 0.3581 0.0972   0.156026
 H 0.5368 0.542 0.1329   0.168776
 H 0.6007 0.6578 0.1578   0.181286
 H 0.6302 0.5482 0.202   0.168061
 H 0.5902 0.582 0.9924   0.183422
 H 0.7064 0.5692 0.931   0.162871
 H 0.6836 0.6913 0.9852   0.186785
 H 0.0828 0.9732 0.1033   0.072498
 H 0.1781 0.0603 0.0604   0.075229
 H 0.8356 0.127 0.0182   0.080172
 H 0.8829 0.0147 0.0733   0.066819
 H 0.1615 0.4076 0.7262   0.157848
 H 0.035 0.4656 0.7454   0.133273
 H 0.0423 0.3479 0.6924   0.184693
 H 0.096 0.1375 0.8047   0.177794
 H 0.2214 0.2091 0.8088   0.185197
 H 0.1552 0.1771 0.8907   0.15334
 H 0.8774 0.2533 0.8256   0.179488
 H 0.9064 0.2771 0.9124   0.116387
 H 0.843 0.3658 0.8676   0.172487
 H 0.3838 0.6337 0.9693   0.200021
 H 0.2428 0.6481 0.9995   0.166211
 H 0.2747 0.6419 0.9028   0.156026
 H 0.4632 0.458 0.8671   0.168776
 H 0.3993 0.3422 0.8422   0.181287
 H 0.3698 0.4518 0.798   0.168061
 H 0.4098 0.418 0.0076   0.183422
 H 0.2936 0.4308 0.069   0.162871
 H 0.3164 0.3087 0.0148   0.186785
 H 0.9172 0.0268 0.8967   0.072498
 H 0.8219 0.9397 0.9396   0.075228
 H 0.1644 0.873 0.9818   0.080172
 H 0.1171 0.9853 0.9267   0.066819
 C 0.4227 0.8916 0.2387   -0.842233
 C 0.3557 0.6959 0.335   -0.863631
 C 0.5876 0.814 0.3618   -0.852174
 C 0.2016 0.1225 0.4565   -0.876516
 C 0.1149 0.925 0.3512   -0.837542
 C 0.1712 0.8921 0.5205   -0.903636
 C 0.5958 0.4827 0.4486   0.069994
 C 0.3983 0.4396 0.4776   0.048921
 C 0.5773 0.1084 0.7613   -0.842233
 C 0.6443 0.3041 0.665   -0.863631
 C 0.4124 0.186 0.6382   -0.852175
 C 0.7984 0.8775 0.5435   -0.876516
 C 0.8851 0.075 0.6488   -0.837542
 C 0.8288 0.1079 0.4795   -0.903636
 C 0.4042 0.5173 0.5514   0.069994
 C 0.6017 0.5604 0.5224   0.048921
 C 0.9227 0.6084 0.2613   -0.842233
 C 0.8557 0.8041 0.165   -0.863632
 C 0.0876 0.686 0.1382   -0.852175
 C 0.7016 0.3775 0.0435   -0.876516
 C 0.6149 0.575 0.1488   -0.837542
 C 0.6712 0.6079 0.9795   -0.903636
 C 0.0958 0.0173 0.0514   0.069994
 C 0.8983 0.0604 0.0224   0.048921
 C 0.0773 0.3916 0.7387   -0.842233
 C 0.1443 0.1959 0.835   -0.863632
 C 0.9124 0.314 0.8618   -0.852175
 C 0.2984 0.6225 0.9565   -0.876517
 C 0.3851 0.425 0.8512   -0.837543
 C 0.3288 0.3921 0.0205   -0.903636
 C 0.9042 0.9827 0.9486   0.069994
 C 0.1017 0.9396 0.9776   0.048921
 N 0.3695 0.9343 0.4106   -1.537239
 N 0.6305 0.0657 0.5894   -1.537239
 N 0.8695 0.5657 0.0894   -1.537239
 N 0.1305 0.4343 0.9106   -1.537239
 O 0.514 0.3926 0.4583   -0.415081
 O 0.486 0.6074 0.5417   -0.415081
 O 0.014 0.1074 0.0417   -0.415081
 O 0.986 0.8926 0.9583   -0.415081
