{'_ref': 'TBD', '_srcid': 'CAKYAQ_clean', 'submitters': [{'name': 'Dalar Nazarian Jeff Camp and David Sholl', 'email': 'dalar@gatech.edu jcamp6@gatech.edu'}], '_method': 'VASP DFT with PBE;DDEC'}
data_CuH14C20(NO)4
_symmetry_space_group_name_H-M   'P 1'
_cell_length_a   12.52000000
_cell_length_b   20.64300000
_cell_length_c   20.64300000
_cell_angle_alpha   90.00000000
_cell_angle_beta   90.00000000
_cell_angle_gamma   90.00000000
_symmetry_Int_Tables_number   1
_chemical_formula_structural   CuH14C20(NO)4
_chemical_formula_sum   'Cu8 H112 C160 N32 O32'
_cell_volume   5335.19078148
_cell_formula_units_Z   8
loop_
 _symmetry_equiv_pos_site_id
 _symmetry_equiv_pos_as_xyz
  1  'x, y, z'
loop_
 _atom_site_label
 _atom_site_fract_x
 _atom_site_fract_y
 _atom_site_fract_z
 _atom_site_charge
 Cu 0.0 0.0 0.0   0.832191
 Cu 0.25 0.75 0.25   0.832191
 Cu 0.5 0.5 0.0   0.832191
 Cu 0.75 0.75 0.75   0.832191
 Cu 0.5 0.5 0.5   0.832191
 Cu 0.75 0.25 0.75   0.832191
 Cu 0.0 0.0 0.5   0.832191
 Cu 0.25 0.25 0.25   0.832191
 H 0.6788 0.1402 0.9563   0.097847
 H 0.9288 0.7937 0.3902   0.097847
 H 0.1788 0.3598 0.0437   0.097847
 H 0.4288 0.7063 0.6098   0.097847
 H 0.1788 0.6402 0.4563   0.097847
 H 0.4288 0.2937 0.8902   0.097847
 H 0.6788 0.8598 0.5437   0.097847
 H 0.9288 0.2063 0.1098   0.097847
 H 0.3212 0.8598 0.0437   0.097847
 H 0.0712 0.2063 0.6098   0.097847
 H 0.8212 0.6402 0.9563   0.097847
 H 0.5712 0.2937 0.3902   0.097847
 H 0.8212 0.3598 0.5437   0.097847
 H 0.5712 0.7063 0.1098   0.097847
 H 0.3212 0.1402 0.4563   0.097847
 H 0.0712 0.7937 0.8902   0.097847
 H 0.5402 0.1985 0.9973   0.097189
 H 0.7902 0.7527 0.4485   0.097189
 H 0.0402 0.3015 0.0027   0.097189
 H 0.2902 0.7473 0.5515   0.097189
 H 0.0402 0.6985 0.4973   0.097189
 H 0.2902 0.2527 0.9485   0.097189
 H 0.5402 0.8015 0.5027   0.097189
 H 0.7902 0.2473 0.0515   0.097189
 H 0.4598 0.8015 0.0027   0.097189
 H 0.2098 0.2473 0.5515   0.097189
 H 0.9598 0.6985 0.9973   0.097189
 H 0.7098 0.2527 0.4485   0.097189
 H 0.9598 0.3015 0.5027   0.097189
 H 0.7098 0.7473 0.0515   0.097189
 H 0.4598 0.1985 0.4973   0.097189
 H 0.2098 0.7527 0.9485   0.097189
 H 0.6344 0.1535 0.1784   0.128432
 H 0.8844 0.5716 0.4035   0.128432
 H 0.1344 0.3465 0.8216   0.128432
 H 0.3844 0.9284 0.5965   0.128432
 H 0.1344 0.6535 0.6784   0.128432
 H 0.3844 0.0716 0.9035   0.128432
 H 0.6344 0.8465 0.3216   0.128432
 H 0.8844 0.4284 0.0965   0.128432
 H 0.3656 0.8465 0.8216   0.128432
 H 0.1156 0.4284 0.5965   0.128432
 H 0.8656 0.6535 0.1784   0.128432
 H 0.6156 0.0716 0.4035   0.128432
 H 0.8656 0.3465 0.3216   0.128432
 H 0.6156 0.9284 0.0965   0.128432
 H 0.3656 0.1535 0.6784   0.128432
 H 0.1156 0.5716 0.9035   0.128432
 H 0.7789 0.0986 0.135   0.111764
 H 0.0289 0.615 0.3486   0.111764
 H 0.2789 0.4014 0.865   0.111764
 H 0.5289 0.885 0.6514   0.111764
 H 0.2789 0.5986 0.635   0.111763
 H 0.5289 0.115 0.8486   0.111763
 H 0.7789 0.9014 0.365   0.111763
 H 0.0289 0.385 0.1514   0.111763
 H 0.2211 0.9014 0.865   0.111764
 H 0.9711 0.385 0.6514   0.111764
 H 0.7211 0.5986 0.135   0.111764
 H 0.4711 0.115 0.3486   0.111764
 H 0.7211 0.4014 0.365   0.111763
 H 0.4711 0.885 0.1514   0.111763
 H 0.2211 0.0986 0.635   0.111763
 H 0.9711 0.615 0.8486   0.111763
 H 0.4387 0.1695 0.1948   0.101842
 H 0.6887 0.5552 0.4195   0.101842
 H 0.9387 0.3305 0.8052   0.101842
 H 0.1887 0.9448 0.5805   0.101842
 H 0.9387 0.6695 0.6948   0.101842
 H 0.1887 0.0552 0.9195   0.101842
 H 0.4387 0.8305 0.3052   0.101842
 H 0.6887 0.4448 0.0805   0.101842
 H 0.5613 0.8305 0.8052   0.101842
 H 0.3113 0.4448 0.5805   0.101842
 H 0.0613 0.6695 0.1948   0.101842
 H 0.8113 0.0552 0.4195   0.101842
 H 0.0613 0.3305 0.3052   0.101842
 H 0.8113 0.9448 0.0805   0.101842
 H 0.5613 0.1695 0.6948   0.101842
 H 0.3113 0.5552 0.9195   0.101842
 H 0.4765 0.3015 0.0579   0.136515
 H 0.7265 0.6921 0.5515   0.136515
 H 0.9765 0.1985 0.9421   0.136515
 H 0.2265 0.8079 0.4485   0.136515
 H 0.9765 0.8015 0.5579   0.136515
 H 0.2265 0.1921 0.0515   0.136515
 H 0.4765 0.6985 0.4421   0.136515
 H 0.7265 0.3079 0.9485   0.136515
 H 0.5235 0.6985 0.9421   0.136515
 H 0.2735 0.3079 0.4485   0.136515
 H 0.0235 0.8015 0.0579   0.136515
 H 0.7735 0.1921 0.5515   0.136515
 H 0.0235 0.1985 0.4421   0.136515
 H 0.7735 0.8079 0.9485   0.136515
 H 0.5235 0.3015 0.5579   0.136515
 H 0.2735 0.6921 0.0515   0.136515
 H 0.3234 0.3316 0.1279   0.119278
 H 0.5734 0.6221 0.5816   0.119278
 H 0.8234 0.1684 0.8721   0.119278
 H 0.0734 0.8779 0.4184   0.119278
 H 0.8234 0.8316 0.6279   0.119278
 H 0.0734 0.1221 0.0816   0.119278
 H 0.3234 0.6684 0.3721   0.119278
 H 0.5734 0.3779 0.9184   0.119278
 H 0.6766 0.6684 0.8721   0.119278
 H 0.4266 0.3779 0.4184   0.119278
 H 0.1766 0.8316 0.1279   0.119278
 H 0.9266 0.1221 0.5816   0.119278
 H 0.1766 0.1684 0.3721   0.119278
 H 0.9266 0.8779 0.9184   0.119278
 H 0.6766 0.3316 0.6279   0.119278
 H 0.4266 0.6221 0.0816   0.119278
 C 0.8372 0.0763 0.0128   0.575834
 C 0.0872 0.7372 0.3263   0.575834
 C 0.3372 0.4237 0.9872   0.575834
 C 0.5872 0.7628 0.6737   0.575834
 C 0.3372 0.5763 0.5128   0.575834
 C 0.5872 0.2372 0.8263   0.575834
 C 0.8372 0.9237 0.4872   0.575834
 C 0.0872 0.2628 0.1737   0.575834
 C 0.1628 0.9237 0.9872   0.575834
 C 0.9128 0.2628 0.6737   0.575834
 C 0.6628 0.5763 0.0128   0.575834
 C 0.4128 0.2372 0.3263   0.575834
 C 0.6628 0.4237 0.4872   0.575834
 C 0.4128 0.7628 0.1737   0.575834
 C 0.1628 0.0763 0.5128   0.575834
 C 0.9128 0.7372 0.8263   0.575834
 C 0.7422 0.1129 0.0412   -0.12726
 C 0.9922 0.7088 0.3629   -0.12726
 C 0.2422 0.3871 0.9588   -0.12726
 C 0.4922 0.7912 0.6371   -0.12726
 C 0.2422 0.6129 0.5412   -0.12726
 C 0.4922 0.2088 0.8629   -0.12726
 C 0.7422 0.8871 0.4588   -0.12726
 C 0.9922 0.2912 0.1371   -0.12726
 C 0.2578 0.8871 0.9588   -0.12726
 C 0.0078 0.2912 0.6371   -0.12726
 C 0.7578 0.6129 0.0412   -0.12726
 C 0.5078 0.2088 0.3629   -0.12726
 C 0.7578 0.3871 0.4588   -0.12726
 C 0.5078 0.7912 0.1371   -0.12726
 C 0.2578 0.1129 0.5412   -0.12726
 C 0.0078 0.7088 0.8629   -0.12726
 C 0.6702 0.1433 0.000900000000001   -0.008985
 C 0.9202 0.7491 0.3933   -0.008985
 C 0.1702 0.3567 0.9991   -0.008985
 C 0.4202 0.7509 0.6067   -0.008985
 C 0.1702 0.6433 0.5009   -0.008985
 C 0.4202 0.2491 0.8933   -0.008985
 C 0.6702 0.8567 0.4991   -0.008985
 C 0.9202 0.2509 0.1067   -0.008985
 C 0.3298 0.8567 0.9991   -0.008985
 C 0.0798 0.2509 0.6067   -0.008985
 C 0.8298 0.6433 0.000900000000001   -0.008985
 C 0.5798 0.2491 0.3933   -0.008985
 C 0.8298 0.3567 0.4991   -0.008985
 C 0.5798 0.7509 0.1067   -0.008985
 C 0.3298 0.1433 0.5009   -0.008985
 C 0.0798 0.7491 0.8933   -0.008985
 C 0.5868 0.1775 0.0254   -0.172599
 C 0.8368 0.7246 0.4275   -0.172599
 C 0.0868 0.3225 0.9746   -0.172599
 C 0.3368 0.7754 0.5725   -0.172599
 C 0.0868 0.6775 0.5254   -0.172599
 C 0.3368 0.2246 0.9275   -0.172599
 C 0.5868 0.8225 0.4746   -0.172599
 C 0.8368 0.2754 0.0725   -0.172599
 C 0.4132 0.8225 0.9746   -0.172599
 C 0.1632 0.2754 0.5725   -0.172599
 C 0.9132 0.6775 0.0254   -0.172599
 C 0.6632 0.2246 0.4275   -0.172599
 C 0.9132 0.3225 0.4746   -0.172599
 C 0.6632 0.7754 0.0725   -0.172599
 C 0.4132 0.1775 0.5254   -0.172599
 C 0.1632 0.7246 0.9275   -0.172599
 C 0.5708 0.1816 0.0894   0.123468
 C 0.8208 0.6606 0.4316   0.123468
 C 0.0708 0.3184 0.9106   0.123468
 C 0.3208 0.8394 0.5684   0.123468
 C 0.0708 0.6816 0.5894   0.123468
 C 0.3208 0.1606 0.9316   0.123468
 C 0.5708 0.8184 0.4106   0.123468
 C 0.8208 0.3394 0.0684   0.123468
 C 0.4292 0.8184 0.9106   0.123468
 C 0.1792 0.3394 0.5684   0.123468
 C 0.9292 0.6816 0.0894   0.123468
 C 0.6792 0.1606 0.4316   0.123468
 C 0.9292 0.3184 0.4106   0.123468
 C 0.6792 0.8394 0.0684   0.123468
 C 0.4292 0.1816 0.5894   0.123468
 C 0.1792 0.6606 0.9316   0.123468
 C 0.6442 0.151 0.1338   -0.189772
 C 0.8942 0.6162 0.401   -0.189772
 C 0.1442 0.349 0.8662   -0.189772
 C 0.3942 0.8838 0.599   -0.189772
 C 0.1442 0.651 0.6338   -0.189772
 C 0.3942 0.1162 0.901   -0.189772
 C 0.6442 0.849 0.3662   -0.189772
 C 0.8942 0.3838 0.099   -0.189772
 C 0.3558 0.849 0.8662   -0.189772
 C 0.1058 0.3838 0.599   -0.189772
 C 0.8558 0.651 0.1338   -0.189772
 C 0.6058 0.1162 0.401   -0.189772
 C 0.8558 0.349 0.3662   -0.189772
 C 0.6058 0.8838 0.099   -0.189772
 C 0.3558 0.151 0.6338   -0.189772
 C 0.1058 0.6162 0.901   -0.189772
 C 0.7292 0.118 0.1076   -0.016747
 C 0.9792 0.6424 0.368   -0.016747
 C 0.2292 0.382 0.8924   -0.016747
 C 0.4792 0.8576 0.632   -0.016747
 C 0.2292 0.618 0.6076   -0.016747
 C 0.4792 0.1424 0.868   -0.016747
 C 0.7292 0.882 0.3924   -0.016747
 C 0.9792 0.3576 0.132   -0.016747
 C 0.2708 0.882 0.8924   -0.016747
 C 0.0208 0.3576 0.632   -0.016747
 C 0.7708 0.618 0.1076   -0.016747
 C 0.5208 0.1424 0.368   -0.016747
 C 0.7708 0.382 0.3924   -0.016747
 C 0.5208 0.8576 0.132   -0.016747
 C 0.2708 0.118 0.6076   -0.016747
 C 0.0208 0.6424 0.868   -0.016747
 C 0.4268 0.2057 0.1689   0.130861
 C 0.6768 0.5811 0.4557   0.130861
 C 0.9268 0.2943 0.8311   0.130861
 C 0.1768 0.9189 0.5443   0.130861
 C 0.9268 0.7057 0.6689   0.130861
 C 0.1768 0.0811 0.9557   0.130861
 C 0.4268 0.7943 0.3311   0.130861
 C 0.6768 0.4189 0.0443   0.130861
 C 0.5732 0.7943 0.8311   0.130861
 C 0.3232 0.4189 0.5443   0.130861
 C 0.0732 0.7057 0.1689   0.130861
 C 0.8232 0.0811 0.4557   0.130861
 C 0.0732 0.2943 0.3311   0.130861
 C 0.8232 0.9189 0.0443   0.130861
 C 0.5732 0.2057 0.6689   0.130861
 C 0.3232 0.5811 0.9557   0.130861
 C 0.4501 0.2781 0.093   -0.136099
 C 0.7001 0.657 0.5281   -0.136099
 C 0.9501 0.2219 0.907   -0.136099
 C 0.2001 0.843 0.4719   -0.136099
 C 0.9501 0.7781 0.593   -0.136099
 C 0.2001 0.157 0.0281   -0.136099
 C 0.4501 0.7219 0.407   -0.136099
 C 0.7001 0.343 0.9719   -0.136099
 C 0.5499 0.7219 0.907   -0.136099
 C 0.2999 0.343 0.4719   -0.136099
 C 0.0499 0.7781 0.093   -0.136099
 C 0.7999 0.157 0.5281   -0.136099
 C 0.0499 0.2219 0.407   -0.136099
 C 0.7999 0.843 0.9719   -0.136099
 C 0.5499 0.2781 0.593   -0.136099
 C 0.2999 0.657 0.0281   -0.136099
 C 0.3649 0.2945 0.1322   0.03091
 C 0.6149 0.6178 0.5445   0.03091
 C 0.8649 0.2055 0.8678   0.03091
 C 0.1149 0.8822 0.4555   0.03091
 C 0.8649 0.7945 0.6322   0.03091
 C 0.1149 0.1178 0.0445   0.03091
 C 0.3649 0.7055 0.3678   0.03091
 C 0.6149 0.3822 0.9555   0.03091
 C 0.6351 0.7055 0.8678   0.03091
 C 0.3851 0.3822 0.4555   0.03091
 C 0.1351 0.7945 0.1322   0.03091
 C 0.8851 0.1178 0.5445   0.03091
 C 0.1351 0.2055 0.3678   0.03091
 C 0.8851 0.8822 0.9555   0.03091
 C 0.6351 0.2945 0.6322   0.03091
 C 0.3851 0.6178 0.0445   0.03091
 N 0.351 0.2476 0.1784   -0.344132
 N 0.601 0.5716 0.4976   -0.344132
 N 0.851 0.2524 0.8216   -0.344132
 N 0.101 0.9284 0.5024   -0.344132
 N 0.851 0.7476 0.6784   -0.344132
 N 0.101 0.0716 0.9976   -0.344132
 N 0.351 0.7524 0.3216   -0.344132
 N 0.601 0.4284 0.0024   -0.344132
 N 0.649 0.7524 0.8216   -0.344132
 N 0.399 0.4284 0.5024   -0.344132
 N 0.149 0.7476 0.1784   -0.344132
 N 0.899 0.0716 0.4976   -0.344132
 N 0.149 0.2524 0.3216   -0.344132
 N 0.899 0.9284 0.0024   -0.344132
 N 0.649 0.2476 0.6784   -0.344132
 N 0.399 0.5716 0.9976   -0.344132
 N 0.487 0.2217 0.1158   0.043028
 N 0.737 0.6342 0.4717   0.043028
 N 0.987 0.2783 0.8842   0.043028
 N 0.237 0.8658 0.5283   0.043028
 N 0.987 0.7217 0.6158   0.043028
 N 0.237 0.1342 0.9717   0.043028
 N 0.487 0.7783 0.3842   0.043028
 N 0.737 0.3658 0.0283   0.043028
 N 0.513 0.7783 0.8842   0.043028
 N 0.263 0.3658 0.5283   0.043028
 N 0.013 0.7217 0.1158   0.043028
 N 0.763 0.1342 0.4717   0.043028
 N 0.013 0.2783 0.3842   0.043028
 N 0.763 0.8658 0.0283   0.043028
 N 0.513 0.2217 0.6158   0.043028
 N 0.263 0.6342 0.9717   0.043028
 O 0.8438 0.0708 0.9518   -0.566131
 O 0.0938 0.7982 0.3208   -0.566131
 O 0.3438 0.4292 0.0482   -0.566131
 O 0.5938 0.7018 0.6792   -0.566131
 O 0.3438 0.5708 0.4518   -0.566131
 O 0.5938 0.2982 0.8208   -0.566131
 O 0.8438 0.9292 0.5482   -0.566131
 O 0.0938 0.2018 0.1792   -0.566131
 O 0.1562 0.9292 0.0482   -0.566131
 O 0.9062 0.2018 0.6792   -0.566131
 O 0.6562 0.5708 0.9518   -0.566131
 O 0.4062 0.2982 0.3208   -0.566131
 O 0.6562 0.4292 0.5482   -0.566131
 O 0.4062 0.7018 0.1792   -0.566131
 O 0.1562 0.0708 0.4518   -0.566131
 O 0.9062 0.7982 0.8208   -0.566131
 O 0.9015 0.0511 0.056   -0.551337
 O 0.1515 0.694 0.3011   -0.551337
 O 0.4015 0.4489 0.944   -0.551337
 O 0.6515 0.806 0.6989   -0.551337
 O 0.4015 0.5511 0.556   -0.551337
 O 0.6515 0.194 0.8011   -0.551337
 O 0.9015 0.9489 0.444   -0.551337
 O 0.1515 0.306 0.1989   -0.551337
 O 0.0985 0.9489 0.944   -0.551337
 O 0.8485 0.306 0.6989   -0.551337
 O 0.5985 0.5511 0.056   -0.551337
 O 0.3485 0.194 0.3011   -0.551337
 O 0.5985 0.4489 0.444   -0.551337
 O 0.3485 0.806 0.1989   -0.551337
 O 0.0985 0.0511 0.556   -0.551337
 O 0.8485 0.694 0.8011   -0.551337
