{'_ref': 'TBD', '_srcid': 'CAKYAQ_clean', 'submitters': [{'name': 'Dalar Nazarian Jeff Camp and David Sholl', 'email': 'dalar@gatech.edu jcamp6@gatech.edu'}], '_method': 'VASP DFT with PBE;DDEC'}
data_LaH6(C2O3)3
_symmetry_space_group_name_H-M   'P 1'
_cell_length_a   6.13080029
_cell_length_b   7.45799988
_cell_length_c   12.45700000
_cell_angle_alpha   74.66199811
_cell_angle_beta   88.83500466
_cell_angle_gamma   89.30400242
_symmetry_Int_Tables_number   1
_chemical_formula_structural   LaH6(C2O3)3
_chemical_formula_sum   'La2 H12 C12 O18'
_cell_volume   549.163547627
_cell_formula_units_Z   2
loop_
 _symmetry_equiv_pos_site_id
 _symmetry_equiv_pos_as_xyz
  1  'x, y, z'
loop_
 _atom_site_label
 _atom_site_fract_x
 _atom_site_fract_y
 _atom_site_fract_z
 _atom_site_charge
 La 0.40358 0.93056 0.44661   2.134028
 La 0.25107 0.25389 0.84994   2.140945
 H 0.8697 0.3913 0.5863   0.110002
 H 0.9808 0.3917 0.4174   0.144482
 H 0.7798 0.8391 0.7149   0.139279
 H 0.6718 0.6685 0.8889   0.14331
 H 0.6594 0.3738 0.0743   0.060924
 H 0.9391 0.3334 0.2154   0.076728
 H 0.0935 0.0977 0.6585   0.391395
 H 0.2699 0.2358 0.3899   0.305693
 H 0.5502 0.6075 0.6361   0.38947
 H 0.358 0.5901 0.9158   0.383029
 H 0.5322 0.666 0.1146   0.387444
 H 0.8811 0.6882 0.1732   0.388672
 C 0.1901 0.4743 0.5831   0.70083
 C 0.012 0.3314 0.5832   0.077952
 C 0.0328 0.2852 0.4759   0.015549
 C 0.902 0.1162 0.4719   0.691953
 C 0.4614 0.9094 0.7184   0.676239
 C 0.639 0.7771 0.7178   0.072838
 C 0.6155 0.622 0.8283   0.035244
 C 0.7403 0.4586 0.8225   0.648976
 C 0.5311 0.3571 0.2249   0.696412
 C 0.6667 0.4475 0.1286   0.037814
 C 0.9052 0.4521 0.1619   0.063187
 C 0.0673 0.4758 0.0575   0.693484
 O 0.1965 0.6255 0.5013   -0.705088
 O 0.3327 0.434 0.6525   -0.636768
 O 0.0314 0.1878 0.6771   -0.613902
 O 0.2587 0.2549 0.4541   -0.501856
 O 0.9911 0.9874 0.445   -0.675717
 O 0.6989 0.1169 0.4901   -0.665245
 O 0.3147 0.9438 0.6378   -0.652793
 O 0.4467 0.9958 0.8014   -0.690735
 O 0.6133 0.7123 0.6179   -0.623668
 O 0.3868 0.5753 0.8516   -0.595627
 O 0.6589 0.296 0.8516   -0.65048
 O 0.956 0.4848 0.7977   -0.673323
 O 0.5498 0.1908 0.2666   -0.786582
 O 0.4163 0.452 0.2725   -0.62861
 O 0.6199 0.6285 0.0747   -0.54493
 O 0.9229 0.59 0.215   -0.571326
 O 0.09 0.3289 0.0308   -0.778214
 O 0.1313 0.6311 0.0144   -0.611015
