{'_ref': 'TBD', '_srcid': 'CAKYAQ_clean', 'submitters': [{'name': 'Dalar Nazarian Jeff Camp and David Sholl', 'email': 'dalar@gatech.edu jcamp6@gatech.edu'}], '_method': 'VASP DFT with PBE;DDEC'}
data_Cu2H16C29O8
_symmetry_space_group_name_H-M   'P 1'
_cell_length_a   12.24800000
_cell_length_b   12.24800000
_cell_length_c   22.87670000
_cell_angle_alpha   90.00000000
_cell_angle_beta   90.00000000
_cell_angle_gamma   90.00000000
_symmetry_Int_Tables_number   1
_chemical_formula_structural   Cu2H16C29O8
_chemical_formula_sum   'Cu4 H32 C58 O16'
_cell_volume   3431.81392696
_cell_formula_units_Z   2
loop_
 _symmetry_equiv_pos_site_id
 _symmetry_equiv_pos_as_xyz
  1  'x, y, z'
loop_
 _atom_site_label
 _atom_site_fract_x
 _atom_site_fract_y
 _atom_site_fract_z
 _atom_site_charge
 Cu 0.0 0.60771 0.0   0.873939
 Cu 0.0 0.39229 0.0   0.873939
 Cu 0.39229 0.0 0.5   0.873939
 Cu 0.60771 0.0 0.5   0.873939
 H 0.6111 0.662 0.8013   0.108303
 H 0.7465 0.6623 0.8704   0.105464
 H 0.3889 0.338 0.8013   0.108303
 H 0.2535 0.3377 0.8704   0.105464
 H 0.338 0.6111 0.3013   0.108303
 H 0.3377 0.7465 0.3704   0.105464
 H 0.662 0.3889 0.3013   0.108303
 H 0.6623 0.2535 0.3704   0.105464
 H 0.3889 0.662 0.1987   0.108303
 H 0.2535 0.6623 0.1296   0.105464
 H 0.6111 0.338 0.1987   0.108303
 H 0.7465 0.3377 0.1296   0.105464
 H 0.662 0.6111 0.6987   0.108303
 H 0.6623 0.7465 0.6296   0.105464
 H 0.338 0.3889 0.6987   0.108303
 H 0.3377 0.2535 0.6296   0.105464
 H 0.3889 0.338 0.1987   0.108303
 H 0.2535 0.3377 0.1296   0.105461
 H 0.6111 0.662 0.1987   0.108303
 H 0.7465 0.6623 0.1296   0.105461
 H 0.662 0.3889 0.6987   0.108303
 H 0.6623 0.2535 0.6296   0.105461
 H 0.338 0.6111 0.6987   0.108303
 H 0.3377 0.7465 0.6296   0.105461
 H 0.6111 0.338 0.8013   0.108303
 H 0.7465 0.3377 0.8704   0.105461
 H 0.3889 0.662 0.8013   0.108303
 H 0.2535 0.6623 0.8704   0.105461
 H 0.338 0.3889 0.3013   0.108303
 H 0.3377 0.2535 0.3704   0.105461
 H 0.662 0.6111 0.3013   0.108303
 H 0.6623 0.7465 0.3704   0.105461
 C 0.6392 0.5961 0.81475   -0.147126
 C 0.72 0.5962 0.8564   -0.025433
 C 0.3608 0.4039 0.81475   -0.147126
 C 0.28 0.4038 0.8564   -0.025433
 C 0.4039 0.6392 0.31475   -0.147126
 C 0.4038 0.72 0.3564   -0.025433
 C 0.5961 0.3608 0.31475   -0.147126
 C 0.5962 0.28 0.3564   -0.025433
 C 0.3608 0.5961 0.18525   -0.147126
 C 0.28 0.5962 0.1436   -0.025433
 C 0.6392 0.4039 0.18525   -0.147126
 C 0.72 0.4038 0.1436   -0.025433
 C 0.5961 0.6392 0.68525   -0.147126
 C 0.5962 0.72 0.6436   -0.025433
 C 0.4039 0.3608 0.68525   -0.147126
 C 0.4038 0.28 0.6436   -0.025433
 C 0.3608 0.4039 0.18525   -0.147127
 C 0.28 0.4038 0.1436   -0.025431
 C 0.6392 0.5961 0.18525   -0.147127
 C 0.72 0.5962 0.1436   -0.025431
 C 0.5961 0.3608 0.68525   -0.147127
 C 0.5962 0.28 0.6436   -0.025431
 C 0.4039 0.6392 0.68525   -0.147127
 C 0.4038 0.72 0.6436   -0.025431
 C 0.6392 0.4039 0.81475   -0.147127
 C 0.72 0.4038 0.8564   -0.025431
 C 0.3608 0.5961 0.81475   -0.147127
 C 0.28 0.5962 0.8564   -0.025431
 C 0.4039 0.3608 0.31475   -0.147127
 C 0.4038 0.28 0.3564   -0.025431
 C 0.5961 0.6392 0.31475   -0.147127
 C 0.5962 0.72 0.3564   -0.025431
 C 0.5996 0.5 0.7928   0.056
 C 0.8551 0.5 0.9236   0.660591
 C 0.7625 0.5 0.8777   -0.137115
 C 0.4004 0.5 0.7928   0.056
 C 0.1449 0.5 0.9236   0.660592
 C 0.2375 0.5 0.8777   -0.137114
 C 0.5 0.5996 0.2928   0.056
 C 0.5 0.8551 0.4236   0.660591
 C 0.5 0.7625 0.3777   -0.137115
 C 0.5 0.4004 0.2928   0.056
 C 0.5 0.1449 0.4236   0.660592
 C 0.5 0.2375 0.3777   -0.137114
 C 0.4004 0.5 0.2072   0.056
 C 0.1449 0.5 0.0764   0.660591
 C 0.2375 0.5 0.1223   -0.137114
 C 0.5996 0.5 0.2072   0.056
 C 0.8551 0.5 0.0764   0.660592
 C 0.7625 0.5 0.1223   -0.137114
 C 0.5 0.5996 0.7072   0.056
 C 0.5 0.8551 0.5764   0.660591
 C 0.5 0.7625 0.6223   -0.137114
 C 0.5 0.4004 0.7072   0.056
 C 0.5 0.1449 0.5764   0.660592
 C 0.5 0.2375 0.6223   -0.137114
 C 0.5 0.5 0.75   0.016073
 C 0.5 0.5 0.25   0.016073
 O 0.8869 0.5925 0.94047   -0.55144
 O 0.1131 0.4075 0.94047   -0.55144
 O 0.4075 0.8869 0.44047   -0.55144
 O 0.5925 0.1131 0.44047   -0.55144
 O 0.1131 0.5925 0.05953   -0.55144
 O 0.8869 0.4075 0.05953   -0.55144
 O 0.5925 0.8869 0.55953   -0.55144
 O 0.4075 0.1131 0.55953   -0.55144
 O 0.1131 0.4075 0.05953   -0.55144
 O 0.8869 0.5925 0.05953   -0.55144
 O 0.5925 0.1131 0.55953   -0.55144
 O 0.4075 0.8869 0.55953   -0.55144
 O 0.8869 0.4075 0.94047   -0.55144
 O 0.1131 0.5925 0.94047   -0.55144
 O 0.4075 0.1131 0.44047   -0.55144
 O 0.5925 0.8869 0.44047   -0.55144
