{'_ref': 'TBD', '_srcid': 'CAKYAQ_clean', 'submitters': [{'name': 'Dalar Nazarian Jeff Camp and David Sholl', 'email': 'dalar@gatech.edu jcamp6@gatech.edu'}], '_method': 'VASP DFT with PBE;DDEC'}
data_ZnH8C14SO6
_symmetry_space_group_name_H-M   'P 1'
_cell_length_a   16.61500000
_cell_length_b   17.25200009
_cell_length_c   20.59600000
_cell_angle_alpha   90.00000000
_cell_angle_beta   90.00000000
_cell_angle_gamma   98.07900068
_symmetry_Int_Tables_number   1
_chemical_formula_structural   ZnH8C14SO6
_chemical_formula_sum   'Zn12 H96 C168 S12 O72'
_cell_volume   5845.08561678
_cell_formula_units_Z   12
loop_
 _symmetry_equiv_pos_site_id
 _symmetry_equiv_pos_as_xyz
  1  'x, y, z'
loop_
 _atom_site_label
 _atom_site_fract_x
 _atom_site_fract_y
 _atom_site_fract_z
 _atom_site_charge
 Zn 0.09467 0.93952 0.84865   1.113008
 Zn 0.98022 0.74645 0.82741   1.155494
 Zn 0.38381 0.05131 0.63759   1.128064
 Zn 0.40533 0.56048 0.34865   1.113008
 Zn 0.51978 0.75355 0.32741   1.155494
 Zn 0.11619 0.44869 0.13759   1.128064
 Zn 0.90533 0.06048 0.15135   1.113008
 Zn 0.01978 0.25355 0.17259   1.155494
 Zn 0.61619 0.94869 0.36241   1.128064
 Zn 0.59467 0.43952 0.65135   1.113008
 Zn 0.48022 0.24645 0.67259   1.155494
 Zn 0.88381 0.55131 0.86241   1.128064
 H 0.3046 0.8588 0.9187   0.103687
 H 0.4197 0.8018 0.9408   0.108624
 H 0.3035 0.5937 0.884   0.115239
 H 0.1902 0.6512 0.8597   0.107098
 H 0.5177 0.7455 0.037   0.115431
 H 0.5163 0.7325 0.1492   0.109396
 H 0.3871 0.5212 0.1338   0.097287
 H 0.3888 0.5312 0.0225   0.114554
 H 0.5675 0.1595 0.8476   0.09756
 H 0.6142 0.1098 0.9424   0.106124
 H 0.5349 0.8917 0.8801   0.109467
 H 0.4868 0.9429 0.7863   0.097227
 H 0.8986 0.0284 0.9597   0.107827
 H 0.8106 0.8083 0.9112   0.108249
 H 0.6816 0.8291 0.9417   0.121495
 H 0.7419 0.8114 0.7887   0.105809
 H 0.6157 0.8371 0.7558   0.102801
 H 0.5357 0.6057 0.7529   0.113172
 H 0.6615 0.582 0.7895   0.093661
 H 0.5095 0.8933 0.673   0.104048
 H 0.5423 0.9405 0.569   0.112473
 H 0.4913 0.7231 0.4981   0.112583
 H 0.4601 0.6758 0.6014   0.1109
 H 0.7699 0.0485 0.9964   0.111269
 H 0.1954 0.6412 0.4187   0.103687
 H 0.0803 0.6982 0.4408   0.108624
 H 0.1965 0.9063 0.384   0.115239
 H 0.3098 0.8488 0.3597   0.107098
 H 0.9823 0.7545 0.537   0.115431
 H 0.9837 0.7675 0.6492   0.109396
 H 0.1129 0.9788 0.6338   0.097287
 H 0.1112 0.9688 0.5225   0.114554
 H 0.9325 0.3405 0.3476   0.09756
 H 0.8858 0.3902 0.4424   0.106124
 H 0.9651 0.6083 0.3801   0.109467
 H 0.0132 0.5571 0.2863   0.097227
 H 0.6014 0.4716 0.4597   0.107827
 H 0.6894 0.6917 0.4112   0.108249
 H 0.8184 0.6709 0.4417   0.121495
 H 0.7581 0.6886 0.2887   0.10581
 H 0.8843 0.6629 0.2558   0.102801
 H 0.9643 0.8943 0.2529   0.113172
 H 0.8385 0.918 0.2895   0.093661
 H 0.9905 0.6067 0.173   0.104048
 H 0.9577 0.5595 0.069   0.112473
 H 0.0087 0.7769 0.9981   0.112583
 H 0.0399 0.8242 0.1014   0.1109
 H 0.7301 0.4515 0.4964   0.111269
 H 0.6954 0.1412 0.0813   0.103687
 H 0.5803 0.1982 0.0592   0.108624
 H 0.6965 0.4063 0.116   0.115239
 H 0.8098 0.3488 0.1403   0.107098
 H 0.4823 0.2545 0.963   0.115431
 H 0.4837 0.2675 0.8508   0.109396
 H 0.6129 0.4788 0.8662   0.097287
 H 0.6112 0.4688 0.9775   0.114554
 H 0.4325 0.8405 0.1524   0.09756
 H 0.3858 0.8902 0.0576   0.106124
 H 0.4651 0.1083 0.1199   0.109467
 H 0.5132 0.0571 0.2137   0.097227
 H 0.1014 0.9716 0.0403   0.107826
 H 0.1894 0.1917 0.0888   0.108249
 H 0.3184 0.1709 0.0583   0.121495
 H 0.2581 0.1886 0.2113   0.105809
 H 0.3843 0.1629 0.2442   0.102801
 H 0.4643 0.3943 0.2471   0.113172
 H 0.3385 0.418 0.2105   0.093661
 H 0.4905 0.1067 0.327   0.104048
 H 0.4577 0.0595 0.431   0.112472
 H 0.5087 0.2769 0.5019   0.112583
 H 0.5399 0.3242 0.3986   0.1109
 H 0.2301 0.9515 0.0036   0.111269
 H 0.8046 0.3588 0.5813   0.103687
 H 0.9197 0.3018 0.5592   0.108624
 H 0.8035 0.0937 0.616   0.115239
 H 0.6902 0.1512 0.6403   0.107098
 H 0.0177 0.2455 0.463   0.115431
 H 0.0163 0.2325 0.3508   0.109396
 H 0.8871 0.0212 0.3662   0.097287
 H 0.8888 0.0312 0.4775   0.114554
 H 0.0675 0.6595 0.6524   0.09756
 H 0.1142 0.6098 0.5576   0.106124
 H 0.0349 0.3917 0.6199   0.109467
 H 0.9868 0.4429 0.7137   0.097227
 H 0.3986 0.5284 0.5403   0.107826
 H 0.3106 0.3083 0.5888   0.108249
 H 0.1816 0.3291 0.5583   0.121495
 H 0.2419 0.3114 0.7113   0.105809
 H 0.1157 0.3371 0.7442   0.102801
 H 0.0357 0.1057 0.7471   0.113172
 H 0.1615 0.082 0.7105   0.093661
 H 0.0095 0.3933 0.827   0.104048
 H 0.0423 0.4405 0.931   0.112472
 H 0.9913 0.2231 0.0019   0.112583
 H 0.9601 0.1758 0.8986   0.1109
 H 0.2699 0.5485 0.5036   0.111269
 C 0.1606 0.7977 0.8707   0.730751
 C 0.2352 0.7606 0.8874   -0.140245
 C 0.3043 0.8055 0.9115   -0.026252
 C 0.3731 0.7715 0.9249   -0.027278
 C 0.3722 0.693 0.9148   -0.19446
 C 0.3037 0.647 0.8906   -0.040208
 C 0.2361 0.6815 0.8767   -0.038596
 C 0.455 0.6387 0.0192   -0.189412
 C 0.4921 0.6999 0.0564   -0.046426
 C 0.4907 0.6919 0.1236   -0.031683
 C 0.4522 0.6256 0.1529   -0.12509
 C 0.414 0.5662 0.1143   -0.032244
 C 0.4149 0.5718 0.0479   -0.046026
 C 0.4551 0.6203 0.226   0.728751
 C 0.4914 0.0894 0.7464   0.728203
 C 0.5228 0.0559 0.8074   -0.136133
 C 0.5608 0.1057 0.8543   -0.022406
 C 0.5889 0.0763 0.9108   -0.034022
 C 0.5788 0.9962 0.9196   -0.203393
 C 0.5411 0.9455 0.8735   -0.025361
 C 0.5129 0.9763 0.8176   -0.02239
 C 0.7141 0.9412 0.9704   -0.188501
 C 0.8548 0.9885 0.9563   -0.05348
 C 0.8661 0.9176 0.9303   -0.114102
 C 0.8018 0.8571 0.9266   -0.035808
 C 0.7252 0.869 0.9455   -0.044266
 C 0.9471 0.9042 0.9036   0.716135
 C 0.7967 0.6774 0.8133   0.723083
 C 0.7147 0.6941 0.7922   -0.12209
 C 0.7002 0.7702 0.782   -0.034964
 C 0.6251 0.7858 0.7623   -0.035174
 C 0.5633 0.7241 0.7523   -0.191279
 C 0.5767 0.647 0.761   -0.036891
 C 0.6524 0.6332 0.782   -0.037944
 C 0.4841 0.78 0.6468   -0.18324
 C 0.5069 0.8591 0.6379   -0.054352
 C 0.526 0.8873 0.5756   -0.049611
 C 0.5208 0.8364 0.5238   -0.11836
 C 0.4956 0.7572 0.5333   -0.038471
 C 0.4771 0.7289 0.5949   -0.043885
 C 0.5452 0.8664 0.4569   0.724011
 C 0.7779 0.0011 0.9777   -0.049004
 C 0.3394 0.7023 0.3707   0.730751
 C 0.2648 0.7394 0.3874   -0.140245
 C 0.1957 0.6945 0.4115   -0.026252
 C 0.1269 0.7285 0.4249   -0.027278
 C 0.1278 0.807 0.4148   -0.19446
 C 0.1963 0.853 0.3906   -0.040208
 C 0.2639 0.8185 0.3767   -0.038596
 C 0.045 0.8613 0.5192   -0.189412
 C 0.0079 0.8001 0.5564   -0.046426
 C 0.0093 0.8081 0.6236   -0.031684
 C 0.0478 0.8744 0.6529   -0.12509
 C 0.086 0.9338 0.6143   -0.032244
 C 0.0851 0.9282 0.5479   -0.046026
 C 0.0449 0.8797 0.726   0.728751
 C 0.0086 0.4106 0.2464   0.728203
 C 0.9772 0.4441 0.3074   -0.136133
 C 0.9392 0.3943 0.3543   -0.022406
 C 0.9111 0.4237 0.4108   -0.034022
 C 0.9212 0.5038 0.4196   -0.203393
 C 0.9589 0.5545 0.3735   -0.025361
 C 0.9871 0.5237 0.3176   -0.02239
 C 0.7859 0.5588 0.4704   -0.188501
 C 0.6452 0.5115 0.4563   -0.05348
 C 0.6339 0.5824 0.4303   -0.114102
 C 0.6982 0.6429 0.4266   -0.035809
 C 0.7748 0.631 0.4455   -0.044266
 C 0.5529 0.5958 0.4036   0.716135
 C 0.7033 0.8226 0.3133   0.723083
 C 0.7853 0.8059 0.2922   -0.12209
 C 0.7998 0.7298 0.282   -0.034965
 C 0.8749 0.7142 0.2623   -0.035174
 C 0.9367 0.7759 0.2523   -0.191279
 C 0.9233 0.853 0.261   -0.036891
 C 0.8476 0.8668 0.282   -0.037944
 C 0.0159 0.72 0.1468   -0.18324
 C 0.9931 0.6409 0.1379   -0.054352
 C 0.974 0.6127 0.0756   -0.049611
 C 0.9792 0.6636 0.0238   -0.11836
 C 0.0044 0.7428 0.0333   -0.038471
 C 0.0229 0.7711 0.0949   -0.043885
 C 0.9548 0.6336 0.9569   0.724011
 C 0.7221 0.4989 0.4777   -0.049004
 C 0.8394 0.2023 0.1293   0.730751
 C 0.7648 0.2394 0.1126   -0.140245
 C 0.6957 0.1945 0.0885   -0.026252
 C 0.6269 0.2285 0.0751   -0.027278
 C 0.6278 0.307 0.0852   -0.19446
 C 0.6963 0.353 0.1094   -0.040208
 C 0.7639 0.3185 0.1233   -0.038596
 C 0.545 0.3613 0.9808   -0.189412
 C 0.5079 0.3001 0.9436   -0.046426
 C 0.5093 0.3081 0.8764   -0.031683
 C 0.5478 0.3744 0.8471   -0.12509
 C 0.586 0.4338 0.8857   -0.032244
 C 0.5851 0.4282 0.9521   -0.046026
 C 0.5449 0.3797 0.774   0.728751
 C 0.5086 0.9106 0.2536   0.728203
 C 0.4772 0.9441 0.1926   -0.136133
 C 0.4392 0.8943 0.1457   -0.022406
 C 0.4111 0.9237 0.0892   -0.034022
 C 0.4212 0.0038 0.0804   -0.203393
 C 0.4589 0.0545 0.1265   -0.025361
 C 0.4871 0.0237 0.1824   -0.02239
 C 0.2859 0.0588 0.0296   -0.188501
 C 0.1452 0.0115 0.0437   -0.05348
 C 0.1339 0.0824 0.0697   -0.114102
 C 0.1982 0.1429 0.0734   -0.035808
 C 0.2748 0.131 0.0545   -0.044266
 C 0.0529 0.0958 0.0964   0.716135
 C 0.2033 0.3226 0.1867   0.723083
 C 0.2853 0.3059 0.2078   -0.12209
 C 0.2998 0.2298 0.218   -0.034964
 C 0.3749 0.2142 0.2377   -0.035174
 C 0.4367 0.2759 0.2477   -0.191279
 C 0.4233 0.353 0.239   -0.036891
 C 0.3476 0.3668 0.218   -0.037944
 C 0.5159 0.22 0.3532   -0.18324
 C 0.4931 0.1409 0.3621   -0.054352
 C 0.474 0.1127 0.4244   -0.049611
 C 0.4792 0.1636 0.4762   -0.11836
 C 0.5044 0.2428 0.4667   -0.03847
 C 0.5229 0.2711 0.4051   -0.043885
 C 0.4548 0.1336 0.5431   0.724011
 C 0.2221 0.9989 0.0223   -0.049004
 C 0.6606 0.2977 0.6293   0.730751
 C 0.7352 0.2606 0.6126   -0.140245
 C 0.8043 0.3055 0.5885   -0.026252
 C 0.8731 0.2715 0.5751   -0.027278
 C 0.8722 0.193 0.5852   -0.19446
 C 0.8037 0.147 0.6094   -0.040208
 C 0.7361 0.1815 0.6233   -0.038596
 C 0.955 0.1387 0.4808   -0.189412
 C 0.9921 0.1999 0.4436   -0.046426
 C 0.9907 0.1919 0.3764   -0.031684
 C 0.9522 0.1256 0.3471   -0.12509
 C 0.914 0.0662 0.3857   -0.032244
 C 0.9149 0.0718 0.4521   -0.046026
 C 0.9551 0.1203 0.274   0.728751
 C 0.9914 0.5894 0.7536   0.728203
 C 0.0228 0.5559 0.6926   -0.136133
 C 0.0608 0.6057 0.6457   -0.022406
 C 0.0889 0.5763 0.5892   -0.034022
 C 0.0788 0.4962 0.5804   -0.203393
 C 0.0411 0.4455 0.6265   -0.025361
 C 0.0129 0.4763 0.6824   -0.02239
 C 0.2141 0.4412 0.5296   -0.188501
 C 0.3548 0.4885 0.5437   -0.05348
 C 0.3661 0.4176 0.5697   -0.114102
 C 0.3018 0.3571 0.5734   -0.035809
 C 0.2252 0.369 0.5545   -0.044266
 C 0.4471 0.4042 0.5964   0.716135
 C 0.2967 0.1774 0.6867   0.723083
 C 0.2147 0.1941 0.7078   -0.12209
 C 0.2002 0.2702 0.718   -0.034965
 C 0.1251 0.2858 0.7377   -0.035174
 C 0.0633 0.2241 0.7477   -0.191279
 C 0.0767 0.147 0.739   -0.036891
 C 0.1524 0.1332 0.718   -0.037944
 C 0.9841 0.28 0.8532   -0.18324
 C 0.0069 0.3591 0.8621   -0.054352
 C 0.026 0.3873 0.9244   -0.049611
 C 0.0208 0.3364 0.9762   -0.11836
 C 0.9956 0.2572 0.9667   -0.038471
 C 0.9771 0.2289 0.9051   -0.043885
 C 0.0452 0.3664 0.0431   0.724011
 C 0.2779 0.5011 0.5223   -0.049004
 S 0.4592 0.64911 0.93356   1.110219
 S 0.61513 0.95739 0.99154   1.108795
 S 0.46641 0.74324 0.72679   1.109596
 S 0.0408 0.85089 0.43356   1.110219
 S 0.88487 0.54261 0.49154   1.108795
 S 0.03359 0.75676 0.22679   1.109596
 S 0.5408 0.35089 0.06644   1.110219
 S 0.38487 0.04261 0.00846   1.108795
 S 0.53359 0.25676 0.27321   1.109596
 S 0.9592 0.14911 0.56644   1.110219
 S 0.11513 0.45739 0.50846   1.108795
 S 0.96641 0.24324 0.77321   1.109596
 O 0.1633 0.869 0.8856   -0.654551
 O 0.1043 0.7572 0.8424   -0.599596
 O 0.5297 0.7041 0.918   -0.555708
 O 0.4484 0.5717 0.9058   -0.563381
 O 0.5037 0.6701 0.25386   -0.611016
 O 0.4093 0.566 0.2536   -0.639186
 O 0.4952 0.161 0.7411   -0.581322
 O 0.4608 0.0389 0.705   -0.66669
 O 0.6212 0.0173 0.04038   -0.554723
 O 0.5679 0.883 0.00369   -0.549425
 O 0.9972 0.9637 0.8914   -0.625136
 O 0.9604 0.8355 0.8948   -0.642808
 O 0.855 0.732 0.81048   -0.586263
 O 0.7993 0.6079 0.8312   -0.658748
 O 0.4436 0.8051 0.76617   -0.548717
 O 0.4134 0.6706 0.7231   -0.551753
 O 0.5814 0.9353 0.4525   -0.63403
 O 0.5306 0.8243 0.41   -0.625989
 O 0.3367 0.631 0.3856   -0.654551
 O 0.3957 0.7428 0.3424   -0.599596
 O 0.9703 0.7959 0.418   -0.555708
 O 0.0516 0.9283 0.4058   -0.563381
 O 0.9963 0.8299 0.75386   -0.611016
 O 0.0907 0.934 0.7536   -0.639186
 O 0.0048 0.339 0.2411   -0.581322
 O 0.0392 0.4611 0.205   -0.66669
 O 0.8788 0.4827 0.54038   -0.554723
 O 0.9321 0.617 0.50369   -0.549425
 O 0.5028 0.5363 0.3914   -0.625136
 O 0.5396 0.6645 0.3948   -0.642807
 O 0.645 0.768 0.31048   -0.586263
 O 0.7007 0.8921 0.3312   -0.658748
 O 0.0564 0.6949 0.26617   -0.548717
 O 0.0866 0.8294 0.2231   -0.551753
 O 0.9186 0.5647 0.9525   -0.63403
 O 0.9694 0.6757 0.91   -0.625989
 O 0.8367 0.131 0.1144   -0.654551
 O 0.8957 0.2428 0.1576   -0.599596
 O 0.4703 0.2959 0.082   -0.555708
 O 0.5516 0.4283 0.0942   -0.563381
 O 0.4963 0.3299 0.74614   -0.611016
 O 0.5907 0.434 0.7464   -0.639186
 O 0.5048 0.839 0.2589   -0.581322
 O 0.5392 0.9611 0.295   -0.66669
 O 0.3788 0.9827 0.95962   -0.554723
 O 0.4321 0.117 0.99631   -0.549425
 O 0.0028 0.0363 0.1086   -0.625136
 O 0.0396 0.1645 0.1052   -0.642808
 O 0.145 0.268 0.18952   -0.586263
 O 0.2007 0.3921 0.1688   -0.658749
 O 0.5564 0.1949 0.23383   -0.548717
 O 0.5866 0.3294 0.2769   -0.551753
 O 0.4186 0.0647 0.5475   -0.63403
 O 0.4694 0.1757 0.59   -0.625989
 O 0.6633 0.369 0.6144   -0.654551
 O 0.6043 0.2572 0.6576   -0.599596
 O 0.0297 0.2041 0.582   -0.555708
 O 0.9484 0.0717 0.5942   -0.563381
 O 0.0037 0.1701 0.24614   -0.611016
 O 0.9093 0.066 0.2464   -0.639186
 O 0.9952 0.661 0.7589   -0.581322
 O 0.9608 0.5389 0.795   -0.66669
 O 0.1212 0.5173 0.45962   -0.554723
 O 0.0679 0.383 0.49631   -0.549425
 O 0.4972 0.4637 0.6086   -0.625136
 O 0.4604 0.3355 0.6052   -0.642807
 O 0.355 0.232 0.68952   -0.586263
 O 0.2993 0.1079 0.6688   -0.658749
 O 0.9436 0.3051 0.73383   -0.548717
 O 0.9134 0.1706 0.7769   -0.551753
 O 0.0814 0.4353 0.0475   -0.63403
 O 0.0306 0.3243 0.09   -0.625989
