{'_ref': 'TBD', '_srcid': 'CAKYAQ_clean', 'submitters': [{'name': 'Dalar Nazarian Jeff Camp and David Sholl', 'email': 'dalar@gatech.edu jcamp6@gatech.edu'}], '_method': 'VASP DFT with PBE;DDEC'}
data_YbH6(C2O)6
_symmetry_space_group_name_H-M   'P 1'
_cell_length_a   9.78630010
_cell_length_b   10.29670026
_cell_length_c   11.02630000
_cell_angle_alpha   76.89799797
_cell_angle_beta   76.24000313
_cell_angle_gamma   65.48700145
_symmetry_Int_Tables_number   1
_chemical_formula_structural   YbH6(C2O)6
_chemical_formula_sum   'Yb2 H12 C24 O12'
_cell_volume   971.570700031
_cell_formula_units_Z   2
loop_
 _symmetry_equiv_pos_site_id
 _symmetry_equiv_pos_as_xyz
  1  'x, y, z'
loop_
 _atom_site_label
 _atom_site_fract_x
 _atom_site_fract_y
 _atom_site_fract_z
 _atom_site_charge
 Yb 0.94429 0.22814 0.32414   1.491561
 Yb 0.05571 0.77186 0.67586   1.491559
 H 0.4356 0.4168 0.211   0.11204
 H 0.744 0.4974 0.9227   0.118329
 H 0.4015 0.8828 0.6818   0.101966
 H 0.3486 0.1415 0.3487   0.093635
 H 0.3079 0.9221 0.0053   0.116361
 H 0.4527 0.188 0.107   0.089074
 H 0.5644 0.5832 0.789   0.112041
 H 0.256 0.5026 0.0773   0.118329
 H 0.5985 0.1172 0.3182   0.101965
 H 0.6514 0.8585 0.6513   0.093634
 H 0.6921 0.0779 0.9947   0.116361
 H 0.5473 0.812 0.893   0.089074
 C 0.6087 0.4484 0.0806   -0.109033
 C 0.4615 0.4501 0.1265   -0.057597
 C 0.6466 0.4983 0.9539   -0.045645
 C 0.7263 0.3878 0.1669   0.629049
 C 0.3501 0.013 0.5176   -0.14298
 C 0.4416 0.9294 0.6086   -0.036164
 C 0.4096 0.0845 0.4091   -0.045331
 C 0.1895 0.0219 0.533   0.741993
 C 0.3554 0.066 0.0678   -0.08092
 C 0.385 0.9534 0.0032   -0.049493
 C 0.4715 0.1127 0.0642   -0.057458
 C 0.203 0.1324 0.1482   0.6216
 C 0.3913 0.5516 0.9194   -0.109033
 C 0.5385 0.5499 0.8735   -0.057595
 C 0.3534 0.5017 0.0461   -0.045643
 C 0.2737 0.6122 0.8331   0.629049
 C 0.6499 0.987 0.4824   -0.142984
 C 0.5584 0.0706 0.3914   -0.036153
 C 0.5904 0.9155 0.5909   -0.045319
 C 0.8105 0.9781 0.467   0.741993
 C 0.6446 0.934 0.9322   -0.080921
 C 0.615 0.0466 0.9968   -0.049491
 C 0.5285 0.8873 0.9358   -0.057456
 C 0.797 0.8676 0.8518   0.6216
 O 0.8615 0.3742 0.1239   -0.528999
 O 0.6857 0.3502 0.2819   -0.593803
 O 0.1147 0.0995 0.4466   -0.69059
 O 0.1408 0.9507 0.6294   -0.604287
 O 0.169 0.25 0.1862   -0.546113
 O 0.1133 0.0655 0.1803   -0.527206
 O 0.1385 0.6258 0.8761   -0.528999
 O 0.3143 0.6498 0.7181   -0.593803
 O 0.8853 0.9005 0.5534   -0.69059
 O 0.8592 0.0493 0.3706   -0.604287
 O 0.831 0.75 0.8138   -0.546113
 O 0.8867 0.9345 0.8197   -0.527206
