{'_ref': 'TBD', '_srcid': 'CAKYAQ_clean', 'submitters': [{'name': 'Dalar Nazarian Jeff Camp and David Sholl', 'email': 'dalar@gatech.edu jcamp6@gatech.edu'}], '_method': 'VASP DFT with PBE;DDEC'}
data_NiH8(C3N)4
_symmetry_space_group_name_H-M   'P 1'
_cell_length_a   6.76552000
_cell_length_b   13.46480000
_cell_length_c   22.73530000
_cell_angle_alpha   90.00000000
_cell_angle_beta   90.00000000
_cell_angle_gamma   90.00000000
_symmetry_Int_Tables_number   1
_chemical_formula_structural   NiH8(C3N)4
_chemical_formula_sum   'Ni4 H32 C48 N16'
_cell_volume   2071.10338489
_cell_formula_units_Z   4
loop_
 _symmetry_equiv_pos_site_id
 _symmetry_equiv_pos_as_xyz
  1  'x, y, z'
loop_
 _atom_site_label
 _atom_site_fract_x
 _atom_site_fract_y
 _atom_site_fract_z
 _atom_site_charge
 Ni 0.75 0.25 0.25   0.261434
 Ni 0.25 0.75 0.75   0.261434
 Ni 0.75 0.75 0.75   0.261432
 Ni 0.25 0.25 0.25   0.261432
 H 0.70047 0.45922 0.45456   0.101685
 H 0.20047 0.95922 0.95456   0.101685
 H 0.70047 0.54078 0.54544   0.101683
 H 0.20047 0.04078 0.04544   0.101683
 H 0.29953 0.54078 0.95456   0.101685
 H 0.29953 0.45922 0.04544   0.101683
 H 0.79953 0.04078 0.45456   0.101685
 H 0.79953 0.95922 0.54544   0.101683
 H 0.29953 0.54078 0.54544   0.101686
 H 0.79953 0.04078 0.04544   0.101686
 H 0.29953 0.45922 0.45456   0.101684
 H 0.79953 0.95922 0.95456   0.101684
 H 0.70047 0.45922 0.04544   0.101686
 H 0.70047 0.54078 0.95456   0.101684
 H 0.20047 0.95922 0.54544   0.101686
 H 0.20047 0.04078 0.45456   0.101684
 H 0.28774 0.38819 0.3754   0.109259
 H 0.78774 0.88819 0.8754   0.109259
 H 0.28774 0.61181 0.6246   0.109259
 H 0.78774 0.11181 0.1246   0.109259
 H 0.71226 0.61181 0.8754   0.109259
 H 0.71226 0.38819 0.1246   0.109259
 H 0.21226 0.11181 0.3754   0.109259
 H 0.21226 0.88819 0.6246   0.109259
 H 0.71226 0.61181 0.6246   0.109258
 H 0.21226 0.11181 0.1246   0.109258
 H 0.71226 0.38819 0.3754   0.109258
 H 0.21226 0.88819 0.8754   0.109258
 H 0.28774 0.38819 0.1246   0.109258
 H 0.28774 0.61181 0.8754   0.109258
 H 0.78774 0.88819 0.6246   0.109258
 H 0.78774 0.11181 0.3754   0.109258
 C 0.16263 0.37316 0.35864   -0.028114
 C 0.66263 0.87316 0.85864   -0.028114
 C 0.16263 0.62684 0.64136   -0.028114
 C 0.66263 0.12684 0.14136   -0.028114
 C 0.83737 0.62684 0.85864   -0.028114
 C 0.83737 0.37316 0.14136   -0.028114
 C 0.33737 0.12684 0.35864   -0.028114
 C 0.33737 0.87316 0.64136   -0.028114
 C 0.83737 0.62684 0.64136   -0.028126
 C 0.33737 0.12684 0.14136   -0.028126
 C 0.83737 0.37316 0.35864   -0.028126
 C 0.33737 0.87316 0.85864   -0.028126
 C 0.16263 0.37316 0.14136   -0.028126
 C 0.16263 0.62684 0.85864   -0.028126
 C 0.66263 0.87316 0.64136   -0.028126
 C 0.66263 0.12684 0.35864   -0.028126
 C 0.0 0.40102 0.38969   -0.106339
 C 0.5 0.90102 0.88969   -0.106339
 C 0.0 0.59898 0.61031   -0.106339
 C 0.5 0.09898 0.11031   -0.106339
 C 0.0 0.59898 0.88969   -0.106339
 C 0.0 0.40102 0.11031   -0.106339
 C 0.5 0.09898 0.38969   -0.106339
 C 0.5 0.90102 0.61031   -0.106339
 C 0.0 0.45155 0.44601   0.06802
 C 0.5 0.95155 0.94601   0.06802
 C 0.0 0.54845 0.55399   0.06802
 C 0.5 0.04845 0.05399   0.06802
 C 0.0 0.54845 0.94601   0.06802
 C 0.0 0.45155 0.05399   0.06802
 C 0.5 0.04845 0.44601   0.06802
 C 0.5 0.95155 0.55399   0.06802
 C 0.82207 0.47578 0.47301   -0.12714
 C 0.32207 0.97578 0.97301   -0.12714
 C 0.82207 0.52422 0.52699   -0.127124
 C 0.32207 0.02422 0.02699   -0.127124
 C 0.17793 0.52422 0.97301   -0.127139
 C 0.17793 0.47578 0.02699   -0.127123
 C 0.67793 0.02422 0.47301   -0.127139
 C 0.67793 0.97578 0.52699   -0.127123
 C 0.17793 0.52422 0.52699   -0.12714
 C 0.67793 0.02422 0.02699   -0.12714
 C 0.17793 0.47578 0.47301   -0.127124
 C 0.67793 0.97578 0.97301   -0.127124
 C 0.82207 0.47578 0.02699   -0.127139
 C 0.82207 0.52422 0.97301   -0.127123
 C 0.32207 0.97578 0.52699   -0.127139
 C 0.32207 0.02422 0.47301   -0.127123
 N 0.10051 0.32808 0.30841   -0.101914
 N 0.60051 0.82808 0.80841   -0.101914
 N 0.10051 0.67192 0.69159   -0.101915
 N 0.60051 0.17192 0.19159   -0.101915
 N 0.89949 0.67192 0.80841   -0.101914
 N 0.89949 0.32808 0.19159   -0.101915
 N 0.39949 0.17192 0.30841   -0.101914
 N 0.39949 0.82808 0.69159   -0.101915
 N 0.89949 0.67192 0.69159   -0.101866
 N 0.39949 0.17192 0.19159   -0.101866
 N 0.89949 0.32808 0.30841   -0.101866
 N 0.39949 0.82808 0.80841   -0.101866
 N 0.10051 0.32808 0.19159   -0.101866
 N 0.10051 0.67192 0.80841   -0.101866
 N 0.60051 0.82808 0.69159   -0.101866
 N 0.60051 0.17192 0.30841   -0.101866
