{'_ref': 'TBD', '_srcid': 'CAKYAQ_clean', 'submitters': [{'name': 'Dalar Nazarian Jeff Camp and David Sholl', 'email': 'dalar@gatech.edu jcamp6@gatech.edu'}], '_method': 'VASP DFT with PBE;DDEC'}
data_Zn2H5C14(NO4)2
_symmetry_space_group_name_H-M   'P 1'
_cell_length_a   14.47109985
_cell_length_b   14.61610000
_cell_length_c   17.87450000
_cell_angle_alpha   90.00000000
_cell_angle_beta   90.23799964
_cell_angle_gamma   90.00000000
_symmetry_Int_Tables_number   1
_chemical_formula_structural   Zn2H5C14(NO4)2
_chemical_formula_sum   'Zn16 H40 C112 N16 O64'
_cell_volume   3780.62151173
_cell_formula_units_Z   8
loop_
 _symmetry_equiv_pos_site_id
 _symmetry_equiv_pos_as_xyz
  1  'x, y, z'
loop_
 _atom_site_label
 _atom_site_fract_x
 _atom_site_fract_y
 _atom_site_fract_z
 _atom_site_charge
 Zn 0.15721 0.59857 0.96896   0.996223
 Zn 0.61288 0.84596 0.68531   1.031321
 Zn 0.64835 0.89277 0.96862   1.005478
 Zn 0.88843 0.36593 0.32189   1.065706
 Zn 0.84279 0.09857 0.53104   0.996223
 Zn 0.38712 0.34596 0.81469   1.031321
 Zn 0.35165 0.39277 0.53138   1.005478
 Zn 0.11157 0.86593 0.17811   1.065706
 Zn 0.84279 0.40143 0.03104   0.996223
 Zn 0.38712 0.15404 0.31469   1.031321
 Zn 0.35165 0.10723 0.03138   1.005478
 Zn 0.11157 0.63407 0.67811   1.065706
 Zn 0.15721 0.90143 0.46896   0.996223
 Zn 0.61288 0.65404 0.18531   1.031321
 Zn 0.64835 0.60723 0.46862   1.005478
 Zn 0.88843 0.13407 0.82189   1.065706
 H 0.0743 0.2569 0.1049   0.123699
 H 0.3752 0.7745 0.8701   0.121074
 H 0.7182 0.2529 0.8517   0.085886
 H 0.656 0.3932 0.8274   0.132208
 H 0.8788 0.45 0.7061   0.140266
 H 0.9314 0.3066 0.7302   0.087093
 H 0.5799 0.686 0.8016   0.082347
 H 0.6325 0.5436 0.8296   0.134318
 H 0.7956 0.5571 0.6533   0.142443
 H 0.7365 0.6979 0.6293   0.067655
 H 0.9257 0.7569 0.3951   0.123699
 H 0.6248 0.2745 0.6299   0.121074
 H 0.2818 0.7529 0.6483   0.085886
 H 0.344 0.8932 0.6726   0.132208
 H 0.1212 0.95 0.7939   0.140266
 H 0.0686 0.8066 0.7698   0.087093
 H 0.4201 0.186 0.6984   0.082347
 H 0.3675 0.0436 0.6704   0.134318
 H 0.2044 0.0571 0.8467   0.142443
 H 0.2635 0.1979 0.8707   0.067655
 H 0.9257 0.7431 0.8951   0.1237
 H 0.6248 0.2255 0.1299   0.121074
 H 0.2818 0.7471 0.1483   0.085886
 H 0.344 0.6068 0.1726   0.132208
 H 0.1212 0.55 0.2939   0.140266
 H 0.0686 0.6934 0.2698   0.087093
 H 0.4201 0.314 0.1984   0.082347
 H 0.3675 0.4564 0.1704   0.134318
 H 0.2044 0.4429 0.3467   0.142443
 H 0.2635 0.3021 0.3707   0.067655
 H 0.0743 0.2431 0.6049   0.1237
 H 0.3752 0.7255 0.3701   0.121074
 H 0.7182 0.2471 0.3517   0.085886
 H 0.656 0.1068 0.3274   0.132208
 H 0.8788 0.05 0.2061   0.140266
 H 0.9314 0.1934 0.2302   0.087093
 H 0.5799 0.814 0.3016   0.082347
 H 0.6325 0.9564 0.3296   0.134318
 H 0.7956 0.9429 0.1533   0.142443
 H 0.7365 0.8021 0.1293   0.067655
 C 0.0318 0.56773 0.09314   0.57927
 C 0.07191 0.47404 0.07458   0.094485
 C 0.04631 0.39214 0.10811   -0.145882
 C 0.9684 0.3845 0.16256   0.731648
 C 0.0897 0.31272 0.08323   0.021567
 C 0.1548 0.31483 0.02755   -0.075196
 C 0.2007 0.22611 0.00574   0.670043
 C 0.1765 0.39948 0.99568   0.115551
 C 0.24506 0.41753 0.93346   0.637087
 C 0.4805 0.06718 0.91028   0.588102
 C 0.42563 0.97994 0.92306   0.094242
 C 0.43663 0.89798 0.88461   -0.137532
 C 0.5192 0.87798 0.83575   0.728083
 C 0.372 0.82863 0.89727   0.003535
 C 0.30272 0.84014 0.95044   -0.08542
 C 0.2276 0.76914 0.9584   0.654391
 C 0.3024 0.92057 0.99189   0.124218
 C 0.24312 0.94007 0.0598   0.640616
 C 0.7511 0.2931 0.8215   0.211164
 C 0.7131 0.3778 0.8074   -0.187193
 C 0.7606 0.4402 0.7632   0.092729
 C 0.8437 0.411 0.7356   -0.169882
 C 0.8756 0.3246 0.7513   0.229626
 C 0.6251 0.6605 0.7713   0.214032
 C 0.6569 0.5742 0.7886   -0.184604
 C 0.7236 0.5328 0.74675   0.113597
 C 0.752 0.5818 0.6856   -0.181733
 C 0.7161 0.6673 0.6717   0.225247
 C 0.9682 0.06773 0.40686   0.57927
 C 0.92809 0.97404 0.42542   0.094485
 C 0.95369 0.89214 0.39189   -0.145882
 C 0.0316 0.8845 0.33744   0.731648
 C 0.9103 0.81272 0.41677   0.021567
 C 0.8452 0.81483 0.47245   -0.075196
 C 0.7993 0.72611 0.49426   0.670043
 C 0.8235 0.89948 0.50432   0.115551
 C 0.75494 0.91753 0.56654   0.637087
 C 0.5195 0.56718 0.58972   0.588102
 C 0.57437 0.47994 0.57694   0.094242
 C 0.56337 0.39798 0.61539   -0.137532
 C 0.4808 0.37798 0.66425   0.728083
 C 0.628 0.32863 0.60273   0.003535
 C 0.69728 0.34014 0.54956   -0.08542
 C 0.7724 0.26914 0.5416   0.654391
 C 0.6976 0.42057 0.50811   0.124218
 C 0.75688 0.44007 0.4402   0.640616
 C 0.2489 0.7931 0.6785   0.211164
 C 0.2869 0.8778 0.6926   -0.187193
 C 0.2394 0.9402 0.7368   0.092729
 C 0.1563 0.911 0.7644   -0.169882
 C 0.1244 0.8246 0.7487   0.229626
 C 0.3749 0.1605 0.7287   0.214032
 C 0.3431 0.0742 0.7114   -0.184604
 C 0.2764 0.0328 0.75325   0.113597
 C 0.248 0.0818 0.8144   -0.181733
 C 0.2839 0.1673 0.8283   0.225247
 C 0.9682 0.43227 0.90686   0.57927
 C 0.92809 0.52596 0.92542   0.094485
 C 0.95369 0.60786 0.89189   -0.145882
 C 0.0316 0.6155 0.83744   0.731648
 C 0.9103 0.68728 0.91677   0.021566
 C 0.8452 0.68517 0.97245   -0.075196
 C 0.7993 0.77389 0.99426   0.670043
 C 0.8235 0.60052 0.00432   0.11555
 C 0.75494 0.58247 0.06654   0.637087
 C 0.5195 0.93282 0.08972   0.588102
 C 0.57437 0.02006 0.07694   0.094242
 C 0.56337 0.10202 0.11539   -0.137532
 C 0.4808 0.12202 0.16425   0.728083
 C 0.628 0.17137 0.10273   0.003535
 C 0.69728 0.15986 0.04956   -0.08542
 C 0.7724 0.23086 0.0416   0.654391
 C 0.6976 0.07943 0.00811   0.124218
 C 0.75688 0.05993 0.9402   0.640616
 C 0.2489 0.7069 0.1785   0.211164
 C 0.2869 0.6222 0.1926   -0.187193
 C 0.2394 0.5598 0.2368   0.092728
 C 0.1563 0.589 0.2644   -0.169882
 C 0.1244 0.6754 0.2487   0.229625
 C 0.3749 0.3395 0.2287   0.214032
 C 0.3431 0.4258 0.2114   -0.184605
 C 0.2764 0.4672 0.25325   0.113597
 C 0.248 0.4182 0.3144   -0.181733
 C 0.2839 0.3327 0.3283   0.225247
 C 0.0318 0.93227 0.59314   0.57927
 C 0.07191 0.02596 0.57458   0.094485
 C 0.04631 0.10786 0.60811   -0.145882
 C 0.9684 0.1155 0.66256   0.731648
 C 0.0897 0.18728 0.58323   0.021566
 C 0.1548 0.18517 0.52755   -0.075196
 C 0.2007 0.27389 0.50574   0.670043
 C 0.1765 0.10052 0.49568   0.11555
 C 0.24506 0.08247 0.43346   0.637087
 C 0.4805 0.43282 0.41028   0.588102
 C 0.42563 0.52006 0.42306   0.094242
 C 0.43663 0.60202 0.38461   -0.137532
 C 0.5192 0.62202 0.33575   0.728083
 C 0.372 0.67137 0.39727   0.003535
 C 0.30272 0.65986 0.45044   -0.08542
 C 0.2276 0.73086 0.4584   0.654391
 C 0.3024 0.57943 0.49189   0.124218
 C 0.24312 0.55993 0.5598   0.640616
 C 0.7511 0.2069 0.3215   0.211164
 C 0.7131 0.1222 0.3074   -0.187193
 C 0.7606 0.0598 0.2632   0.092728
 C 0.8437 0.089 0.2356   -0.169882
 C 0.8756 0.1754 0.2513   0.229625
 C 0.6251 0.8395 0.2713   0.214032
 C 0.6569 0.9258 0.2886   -0.184605
 C 0.7236 0.9672 0.24675   0.113597
 C 0.752 0.9182 0.1856   -0.181733
 C 0.7161 0.8327 0.1717   0.225247
 N 0.13497 0.47563 0.02056   -0.327556
 N 0.36111 0.98796 0.97571   -0.326879
 N 0.83188 0.26506 0.79472   -0.397792
 N 0.65494 0.70897 0.71436   -0.390244
 N 0.86503 0.97563 0.47944   -0.327556
 N 0.63889 0.48796 0.52429   -0.326879
 N 0.16812 0.76506 0.70528   -0.397792
 N 0.34506 0.20897 0.78564   -0.390244
 N 0.86503 0.52437 0.97944   -0.327556
 N 0.63889 0.01204 0.02429   -0.326879
 N 0.16812 0.73494 0.20528   -0.397792
 N 0.34506 0.29103 0.28564   -0.390244
 N 0.13497 0.02437 0.52056   -0.327556
 N 0.36111 0.51204 0.47571   -0.326879
 N 0.83188 0.23494 0.29472   -0.397792
 N 0.65494 0.79103 0.21436   -0.390244
 O 0.97554 0.57267 0.14359   -0.561556
 O 0.06109 0.63333 0.05218   -0.621016
 O 0.88822 0.38947 0.13511   -0.57597
 O 0.98554 0.36848 0.22952   -0.602389
 O 0.15659 0.16677 0.97262   -0.572966
 O 0.28388 0.22051 0.0281   -0.616726
 O 0.28121 0.35033 0.9021   -0.559575
 O 0.25997 0.50062 0.91938   -0.57938
 O 0.45912 0.13366 0.95334   -0.639713
 O 0.53903 0.06722 0.86142   -0.568817
 O 0.50769 0.86637 0.76815   -0.595554
 O 0.59565 0.86884 0.86928   -0.577416
 O 0.14799 0.78987 0.9434   -0.559893
 O 0.25529 0.68925 0.97715   -0.615614
 O 0.24448 0.02048 0.08391   -0.569146
 O 0.19966 0.87346 0.0861   -0.559305
 O 0.02446 0.07267 0.35641   -0.561556
 O 0.93891 0.13333 0.44782   -0.621016
 O 0.11178 0.88947 0.36489   -0.57597
 O 0.01446 0.86848 0.27048   -0.602389
 O 0.84341 0.66677 0.52738   -0.572966
 O 0.71612 0.72051 0.4719   -0.616726
 O 0.71879 0.85033 0.5979   -0.559575
 O 0.74003 0.000619999999998 0.58062   -0.57938
 O 0.54088 0.63366 0.54666   -0.639713
 O 0.46097 0.56722 0.63858   -0.568817
 O 0.49231 0.36637 0.73185   -0.595554
 O 0.40435 0.36884 0.63072   -0.577416
 O 0.85201 0.28987 0.5566   -0.559893
 O 0.74471 0.18925 0.52285   -0.615614
 O 0.75552 0.52048 0.41609   -0.569146
 O 0.80034 0.37346 0.4139   -0.559305
 O 0.02446 0.42733 0.85641   -0.561556
 O 0.93891 0.36667 0.94782   -0.621016
 O 0.11178 0.61053 0.86489   -0.575969
 O 0.01446 0.63152 0.77048   -0.602389
 O 0.84341 0.83323 0.02738   -0.572966
 O 0.71612 0.77949 0.9719   -0.616726
 O 0.71879 0.64967 0.0979   -0.559575
 O 0.74003 0.49938 0.08062   -0.57938
 O 0.54088 0.86634 0.04666   -0.639713
 O 0.46097 0.93278 0.13858   -0.568817
 O 0.49231 0.13363 0.23185   -0.595554
 O 0.40435 0.13116 0.13072   -0.577416
 O 0.85201 0.21013 0.0566   -0.559893
 O 0.74471 0.31075 0.02285   -0.615614
 O 0.75552 0.97952 0.91609   -0.569146
 O 0.80034 0.12654 0.9139   -0.559305
 O 0.97554 0.92733 0.64359   -0.561556
 O 0.06109 0.86667 0.55218   -0.621016
 O 0.88822 0.11053 0.63511   -0.575969
 O 0.98554 0.13152 0.72952   -0.602389
 O 0.15659 0.33323 0.47262   -0.572966
 O 0.28388 0.27949 0.5281   -0.616726
 O 0.28121 0.14967 0.4021   -0.559575
 O 0.25997 0.99938 0.41938   -0.57938
 O 0.45912 0.36634 0.45334   -0.639713
 O 0.53903 0.43278 0.36142   -0.568817
 O 0.50769 0.63363 0.26815   -0.595554
 O 0.59565 0.63116 0.36928   -0.577416
 O 0.14799 0.71013 0.4434   -0.559893
 O 0.25529 0.81075 0.47715   -0.615614
 O 0.24448 0.47952 0.58391   -0.569146
 O 0.19966 0.62654 0.5861   -0.559305
