{'_ref': 'TBD', '_srcid': 'CAKYAQ_clean', 'submitters': [{'name': 'Dalar Nazarian Jeff Camp and David Sholl', 'email': 'dalar@gatech.edu jcamp6@gatech.edu'}], '_method': 'VASP DFT with PBE;DDEC'}
data_Co2H26C51(O2F3)6
_symmetry_space_group_name_H-M   'P 1'
_cell_length_a   7.23000000
_cell_length_b   19.02999982
_cell_length_c   20.52060000
_cell_angle_alpha   106.68199976
_cell_angle_beta   90.00000000
_cell_angle_gamma   90.00000000
_symmetry_Int_Tables_number   1
_chemical_formula_structural   Co2H26C51(O2F3)6
_chemical_formula_sum   'Co4 H52 C102 O24 F36'
_cell_volume   2704.53794655
_cell_formula_units_Z   2
loop_
 _symmetry_equiv_pos_site_id
 _symmetry_equiv_pos_as_xyz
  1  'x, y, z'
loop_
 _atom_site_label
 _atom_site_fract_x
 _atom_site_fract_y
 _atom_site_fract_z
 _atom_site_charge
 Co 0.3317 0.97379 0.52443   1.023611
 Co 0.3317 0.52621 0.97557   1.023611
 Co 0.6683 0.02621 0.47557   1.023612
 Co 0.6683 0.47379 0.02443   1.023612
 H 0.3978 0.8248 0.5846   0.439787
 H 0.56 0.7452 0.4773   0.095037
 H 0.6909 0.6299 0.4439   0.097756
 H 0.0135 0.8298 0.4173   0.106926
 H 0.142 0.7143 0.3824   0.11582
 H 0.3723 0.5364 0.3373   0.09189
 H 0.4998 0.52 0.231   0.096708
 H 0.9048 0.6089 0.2732   0.11711
 H 0.0305 0.5893 0.1662   0.11129
 H 0.8603 0.9108 0.6331   0.092077
 H 0.659 0.871 0.702   0.096352
 H 0.1648 0.7293 0.6088   0.080271
 H 0.9682 0.6913 0.6801   0.11163
 H 0.3978 0.6752 0.9154   0.439787
 H 0.56 0.7548 0.0227   0.095037
 H 0.6909 0.8701 0.0561   0.097756
 H 0.0135 0.6702 0.0827   0.106926
 H 0.142 0.7857 0.1176   0.11582
 H 0.3723 0.9636 0.1627   0.09189
 H 0.4998 0.98 0.269   0.096708
 H 0.9048 0.8911 0.2268   0.117109
 H 0.0305 0.9107 0.3338   0.11129
 H 0.8603 0.5892 0.8669   0.092077
 H 0.659 0.629 0.798   0.096352
 H 0.1648 0.7707 0.8912   0.080271
 H 0.9682 0.8087 0.8199   0.11163
 H 0.6022 0.1752 0.4154   0.439787
 H 0.44 0.2548 0.5227   0.095037
 H 0.3091 0.3701 0.5561   0.097756
 H 0.9865 0.1702 0.5827   0.106926
 H 0.858 0.2857 0.6176   0.11582
 H 0.6277 0.4636 0.6627   0.09189
 H 0.5002 0.48 0.769   0.096709
 H 0.0952 0.3911 0.7268   0.11711
 H 0.9695 0.4107 0.8338   0.11129
 H 0.1397 0.0892 0.3669   0.092077
 H 0.341 0.129 0.298   0.096353
 H 0.8352 0.2707 0.3912   0.080271
 H 0.0318 0.3087 0.3199   0.11163
 H 0.6022 0.3248 0.0846   0.439787
 H 0.44 0.2452 0.9773   0.095037
 H 0.3091 0.1299 0.9439   0.097756
 H 0.9865 0.3298 0.9173   0.106926
 H 0.858 0.2143 0.8824   0.11582
 H 0.6277 0.0364 0.8373   0.09189
 H 0.5002 0.02 0.731   0.096709
 H 0.0952 0.1089 0.7732   0.117109
 H 0.9695 0.0893 0.6662   0.11129
 H 0.1397 0.4108 0.1331   0.092077
 H 0.341 0.371 0.202   0.096353
 H 0.8352 0.2293 0.1088   0.080271
 H 0.0318 0.1913 0.1801   0.11163
 C 0.6847 0.87421 0.46902   0.672348
 C 0.7702 0.79939 0.44957   -0.138323
 C 0.6773 0.73913 0.45788   -0.016503
 C 0.7557 0.66974 0.43774   -0.154581
 C 0.947 0.78966 0.42196   -0.025931
 C 0.0242 0.72041 0.40146   -0.138392
 C 0.9295 0.65953 0.40863   0.073519
 C 0.026 0.58408 0.38548   -0.297374
 C 0.1601 0.58112 0.44346   0.688842
 C 0.8887 0.51934 0.37446   0.690723
 C 0.1245 0.57437 0.31676   0.078436
 C 0.3034 0.54755 0.30333   -0.155148
 C 0.3794 0.53736 0.23937   -0.015125
 C 0.0243 0.59038 0.2647   -0.146687
 C 0.0997 0.57917 0.20065   -0.013519
 C 0.2789 0.55272 0.18779   -0.14467
 C 0.3594 0.53672 0.11754   0.673081
 C 0.1728 0.85469 0.57628   0.683239
 C 0.0376 0.82575 0.61587   -0.216226
 C 0.8833 0.86689 0.64301   0.034196
 C 0.7632 0.84329 0.68469   -0.163482
 C 0.0657 0.75875 0.62881   0.016391
 C 0.947 0.73586 0.67128   -0.136422
 C 0.7967 0.77823 0.70098   0.09901
 C 0.5503 0.68929 0.70469   0.693479
 C 0.6847 0.62579 0.03098   0.672347
 C 0.7702 0.70061 0.05043   -0.138323
 C 0.6773 0.76087 0.04212   -0.016503
 C 0.7557 0.83026 0.06226   -0.154581
 C 0.947 0.71034 0.07804   -0.025931
 C 0.0242 0.77959 0.09854   -0.138392
 C 0.9295 0.84047 0.09137   0.073519
 C 0.026 0.91592 0.11452   -0.297374
 C 0.1601 0.91888 0.05654   0.688842
 C 0.8887 0.98066 0.12554   0.690723
 C 0.1245 0.92563 0.18324   0.078436
 C 0.3034 0.95245 0.19667   -0.155148
 C 0.3794 0.96264 0.26063   -0.015125
 C 0.0243 0.90962 0.2353   -0.146687
 C 0.0997 0.92083 0.29935   -0.01352
 C 0.2789 0.94728 0.31221   -0.144671
 C 0.3594 0.96328 0.38246   0.67308
 C 0.1728 0.64531 0.92372   0.683239
 C 0.0376 0.67425 0.88413   -0.216226
 C 0.8833 0.63311 0.85699   0.034196
 C 0.7632 0.65671 0.81531   -0.163482
 C 0.0657 0.74125 0.87119   0.016391
 C 0.947 0.76414 0.82872   -0.136421
 C 0.7967 0.72177 0.79902   0.09901
 C 0.5503 0.81071 0.79531   0.693479
 C 0.3153 0.12579 0.53098   0.672348
 C 0.2298 0.20061 0.55043   -0.138323
 C 0.3227 0.26087 0.54212   -0.016503
 C 0.2443 0.33026 0.56226   -0.154581
 C 0.053 0.21034 0.57804   -0.025931
 C 0.9758 0.27959 0.59854   -0.138392
 C 0.0705 0.34047 0.59137   0.073519
 C 0.974 0.41592 0.61452   -0.297374
 C 0.8399 0.41888 0.55654   0.688842
 C 0.1113 0.48066 0.62554   0.690723
 C 0.8755 0.42563 0.68324   0.078436
 C 0.6966 0.45245 0.69667   -0.155148
 C 0.6206 0.46264 0.76063   -0.015126
 C 0.9757 0.40962 0.7353   -0.146687
 C 0.9003 0.42083 0.79935   -0.01352
 C 0.7211 0.44728 0.81221   -0.14467
 C 0.6406 0.46328 0.88246   0.673081
 C 0.8272 0.14531 0.42372   0.683239
 C 0.9624 0.17425 0.38413   -0.216226
 C 0.1167 0.13311 0.35699   0.034196
 C 0.2368 0.15671 0.31531   -0.163482
 C 0.9343 0.24125 0.37119   0.016391
 C 0.053 0.26414 0.32872   -0.136422
 C 0.2033 0.22177 0.29902   0.09901
 C 0.4497 0.31071 0.29531   0.693479
 C 0.3153 0.37421 0.96902   0.672347
 C 0.2298 0.29939 0.94957   -0.138323
 C 0.3227 0.23913 0.95788   -0.016503
 C 0.2443 0.16974 0.93774   -0.154581
 C 0.053 0.28966 0.92196   -0.025931
 C 0.9758 0.22041 0.90146   -0.138392
 C 0.0705 0.15953 0.90863   0.073519
 C 0.974 0.08408 0.88548   -0.297374
 C 0.8399 0.08112 0.94346   0.688842
 C 0.1113 0.01934 0.87446   0.690723
 C 0.8755 0.07437 0.81676   0.078436
 C 0.6966 0.04755 0.80333   -0.155148
 C 0.6206 0.03736 0.73937   -0.015125
 C 0.9757 0.09038 0.7647   -0.146687
 C 0.9003 0.07917 0.70065   -0.01352
 C 0.7211 0.05272 0.68779   -0.144671
 C 0.6406 0.03672 0.61754   0.67308
 C 0.8272 0.35469 0.07628   0.683239
 C 0.9624 0.32575 0.11587   -0.216226
 C 0.1167 0.36689 0.14301   0.034196
 C 0.2368 0.34329 0.18469   -0.163482
 C 0.9343 0.25875 0.12881   0.016391
 C 0.053 0.23586 0.17128   -0.136422
 C 0.2033 0.27823 0.20098   0.09901
 C 0.4497 0.18929 0.20469   0.693479
 C 0.6746 0.75 0.75   -0.310715
 C 0.3254 0.25 0.25   -0.310715
 O 0.5253 0.88214 0.49604   -0.637136
 O 0.7742 0.92497 0.45639   -0.573955
 O 0.2653 0.55434 0.07303   -0.55969
 O 0.5137 0.50527 0.1081   -0.600015
 O 0.1525 0.91337 0.56403   -0.463164
 O 0.3162 0.813 0.55572   -0.538573
 O 0.5253 0.61786 0.00396   -0.637136
 O 0.7742 0.57503 0.04361   -0.573955
 O 0.2653 0.94566 0.42697   -0.55969
 O 0.5137 0.99473 0.3919   -0.600015
 O 0.1525 0.58663 0.93597   -0.463164
 O 0.3162 0.687 0.94428   -0.538573
 O 0.4747 0.11786 0.50396   -0.637136
 O 0.2258 0.07503 0.54361   -0.573955
 O 0.7347 0.44566 0.92697   -0.55969
 O 0.4863 0.49473 0.8919   -0.600015
 O 0.8475 0.08663 0.43597   -0.463164
 O 0.6838 0.187 0.44428   -0.538573
 O 0.4747 0.38214 0.99604   -0.637136
 O 0.2258 0.42497 0.95639   -0.573955
 O 0.7347 0.05434 0.57303   -0.55969
 O 0.4863 0.00527 0.6081   -0.600015
 O 0.8475 0.41337 0.06403   -0.463164
 O 0.6838 0.313 0.05572   -0.538573
 F 0.2342 0.51525 0.43541   -0.197817
 F 0.2998 0.62847 0.44862   -0.185938
 F 0.0744 0.59956 0.50378   -0.20658
 F 0.7487 0.52534 0.33414   -0.188573
 F 0.8147 0.51306 0.43196   -0.205395
 F 0.9716 0.45534 0.34445   -0.2126
 F 0.4121 0.66981 0.73929   -0.207127
 F 0.4735 0.71106 0.65441   -0.205852
 F 0.6462 0.62908 0.67507   -0.179371
 F 0.2342 0.98475 0.06459   -0.197817
 F 0.2998 0.87153 0.05138   -0.185938
 F 0.0744 0.90044 0.99622   -0.20658
 F 0.7487 0.97466 0.16586   -0.188573
 F 0.8147 0.98694 0.06804   -0.205395
 F 0.9716 0.04466 0.15555   -0.2126
 F 0.4121 0.83019 0.76071   -0.207127
 F 0.4735 0.78894 0.84559   -0.205852
 F 0.6462 0.87092 0.82493   -0.179371
 F 0.7658 0.48475 0.56459   -0.197817
 F 0.7002 0.37153 0.55138   -0.185937
 F 0.9256 0.40044 0.49622   -0.20658
 F 0.2513 0.47466 0.66586   -0.188573
 F 0.1853 0.48694 0.56804   -0.205395
 F 0.0284 0.54466 0.65555   -0.2126
 F 0.5879 0.33019 0.26071   -0.207127
 F 0.5265 0.28894 0.34559   -0.205852
 F 0.3538 0.37092 0.32493   -0.179371
 F 0.7658 0.01525 0.93541   -0.197817
 F 0.7002 0.12847 0.94862   -0.185938
 F 0.9256 0.09956 0.00378   -0.20658
 F 0.2513 0.02534 0.83414   -0.188573
 F 0.1853 0.01306 0.93196   -0.205395
 F 0.0284 0.95534 0.84445   -0.2126
 F 0.5879 0.16981 0.23929   -0.207126
 F 0.5265 0.21106 0.15441   -0.205852
 F 0.3538 0.12908 0.17507   -0.179371
