{'_ref': 'TBD', '_srcid': 'CAKYAQ_clean', 'submitters': [{'name': 'Dalar Nazarian Jeff Camp and David Sholl', 'email': 'dalar@gatech.edu jcamp6@gatech.edu'}], '_method': 'VASP DFT with PBE;DDEC'}
data_AgH8C9N4ClO4
_symmetry_space_group_name_H-M   'P 1'
_cell_length_a   13.95440029
_cell_length_b   17.01790000
_cell_length_c   17.01790046
_cell_angle_alpha   112.82620066
_cell_angle_beta   105.86199834
_cell_angle_gamma   105.86240152
_symmetry_Int_Tables_number   1
_chemical_formula_structural   AgH8C9N4ClO4
_chemical_formula_sum   'Ag6 H48 C54 N24 Cl6 O24'
_cell_volume   3238.42893641
_cell_formula_units_Z   6
loop_
 _symmetry_equiv_pos_site_id
 _symmetry_equiv_pos_as_xyz
  1  'x, y, z'
loop_
 _atom_site_label
 _atom_site_fract_x
 _atom_site_fract_y
 _atom_site_fract_z
 _atom_site_charge
 Ag 0.67598 0.34034 0.87185   0.274835
 Ag 0.33564 0.53151 0.65966   0.274736
 Ag 0.80413 0.12815 0.46849   0.275474
 Ag 0.32402 0.65966 0.12815   0.274835
 Ag 0.66436 0.46849 0.34034   0.274736
 Ag 0.19587 0.87185 0.53151   0.275474
 H 0.3885 0.4782 0.0768   0.094968
 H 0.5286 0.3524 0.9722   0.101216
 H 0.422 0.3409 0.0605   0.151276
 H 0.4797 0.3381 0.1539   0.141761
 H 0.5745 0.6237 0.3957   0.120322
 H 0.8462 0.4367 0.0874   0.115184
 H 0.846 0.4789 0.2342   0.089197
 H 0.4766 0.6877 0.3224   0.082671
 H 0.9103 0.5986 0.5218   0.09547
 H 0.1762 0.6198 0.6476   0.102493
 H 0.0811 0.7196 0.6591   0.151015
 H 0.1416 0.8158 0.6619   0.141355
 H 0.9508 0.772 0.3763   0.120643
 H 0.4095 0.6507 0.5633   0.114677
 H 0.3671 0.7553 0.5211   0.090107
 H 0.7889 0.6347 0.3123   0.08264
 H 0.3117 0.9232 0.4014   0.095226
 H 0.5564 0.0278 0.3802   0.101348
 H 0.3615 0.9395 0.2804   0.150942
 H 0.3258 0.8461 0.1842   0.140898
 H 0.1788 0.6043 0.228   0.120185
 H 0.7588 0.9126 0.3493   0.115369
 H 0.6118 0.7658 0.2447   0.089409
 H 0.1542 0.6776 0.3653   0.08141
 H 0.6115 0.5218 0.9232   0.094968
 H 0.4714 0.6476 0.0278   0.101216
 H 0.578 0.6591 0.9395   0.151276
 H 0.5203 0.6619 0.8461   0.141761
 H 0.4255 0.3763 0.6043   0.120322
 H 0.1538 0.5633 0.9126   0.115184
 H 0.154 0.5211 0.7658   0.089197
 H 0.5234 0.3123 0.6776   0.082671
 H 0.0897 0.4014 0.4782   0.09547
 H 0.8238 0.3802 0.3524   0.102493
 H 0.9189 0.2804 0.3409   0.151015
 H 0.8584 0.1842 0.3381   0.141355
 H 0.0492 0.228 0.6237   0.120643
 H 0.5905 0.3493 0.4367   0.114677
 H 0.6329 0.2447 0.4789   0.090107
 H 0.2111 0.3653 0.6877   0.08264
 H 0.6883 0.0768 0.5986   0.095226
 H 0.4436 0.9722 0.6198   0.101348
 H 0.6385 0.0605 0.7196   0.150942
 H 0.6742 0.1539 0.8158   0.140898
 H 0.8212 0.3957 0.772   0.120185
 H 0.2412 0.0874 0.6507   0.115369
 H 0.3882 0.2342 0.7553   0.089409
 H 0.8458 0.3224 0.6347   0.08141
 C 0.5885 0.3943 0.1109   0.23445
 C 0.4801 0.4675 0.182   0.225617
 C 0.4233 0.5072 0.1435   0.065088
 C 0.5945 0.377 0.0265   0.025374
 C 0.4855 0.377 0.1231   -0.2975
 C 0.5354 0.5915 0.3289   0.109325
 C 0.7785 0.427 0.0929   0.094146
 C 0.7781 0.4496 0.1801   0.129298
 C 0.4739 0.6282 0.2844   0.104897
 C 0.1942 0.7166 0.6057   0.235477
 C 0.0126 0.7145 0.5325   0.225648
 C 0.9161 0.6363 0.4928   0.064641
 C 0.2175 0.6495 0.623   0.02402
 C 0.1085 0.7461 0.623   -0.296618
 C 0.9439 0.7374 0.4085   0.109087
 C 0.3515 0.6659 0.573   0.094528
 C 0.3285 0.7305 0.5504   0.128107
 C 0.8457 0.6562 0.3718   0.105215
 C 0.4776 0.8891 0.2834   0.233578
 C 0.2981 0.818 0.2855   0.225318
 C 0.2798 0.8565 0.3637   0.06498
 C 0.568 0.9735 0.3505   0.025307
 C 0.3624 0.8769 0.2539   -0.294901
 C 0.2065 0.6711 0.2626   0.108619
 C 0.6856 0.9071 0.3341   0.093014
 C 0.598 0.8199 0.2695   0.129194
 C 0.1895 0.7156 0.3438   0.108059
 C 0.4115 0.6057 0.8891   0.23445
 C 0.5199 0.5325 0.818   0.225617
 C 0.5767 0.4928 0.8565   0.065088
 C 0.4055 0.623 0.9735   0.025374
 C 0.5145 0.623 0.8769   -0.2975
 C 0.4646 0.4085 0.6711   0.109325
 C 0.2215 0.573 0.9071   0.094146
 C 0.2219 0.5504 0.8199   0.129298
 C 0.5261 0.3718 0.7156   0.104897
 C 0.8058 0.2834 0.3943   0.235478
 C 0.9874 0.2855 0.4675   0.225648
 C 0.0839 0.3637 0.5072   0.064641
 C 0.7825 0.3505 0.377   0.024021
 C 0.8915 0.2539 0.377   -0.296618
 C 0.0561 0.2626 0.5915   0.109087
 C 0.6485 0.3341 0.427   0.094528
 C 0.6715 0.2695 0.4496   0.128107
 C 0.1543 0.3438 0.6282   0.105215
 C 0.5224 0.1109 0.7166   0.233578
 C 0.7019 0.182 0.7145   0.225318
 C 0.7202 0.1435 0.6363   0.06498
 C 0.432 0.0265 0.6495   0.025307
 C 0.6376 0.1231 0.7461   -0.294901
 C 0.7935 0.3289 0.7374   0.108619
 C 0.3144 0.0929 0.6659   0.093014
 C 0.402 0.1801 0.7305   0.129194
 C 0.8105 0.2844 0.6562   0.108059
 N 0.6889 0.3934 0.0188   -0.201825
 N 0.5373 0.5133 0.2772   -0.270897
 N 0.6843 0.4309 0.1898   -0.309588
 N 0.4144 0.5841 0.1944   -0.220239
 N 0.2955 0.6254 0.6066   -0.201792
 N 0.024 0.7639 0.4867   -0.271366
 N 0.2534 0.7589 0.5691   -0.310748
 N 0.8303 0.6103 0.4159   -0.22018
 N 0.6701 0.9812 0.3746   -0.200738
 N 0.2601 0.7228 0.2361   -0.270588
 N 0.4945 0.8102 0.2411   -0.310383
 N 0.22 0.8056 0.3897   -0.22202
 N 0.3111 0.6066 0.9812   -0.201825
 N 0.4627 0.4867 0.7228   -0.270897
 N 0.3157 0.5691 0.8102   -0.309588
 N 0.5856 0.4159 0.8056   -0.220239
 N 0.7045 0.3746 0.3934   -0.201792
 N 0.976 0.2361 0.5133   -0.271366
 N 0.7466 0.2411 0.4309   -0.310748
 N 0.1697 0.3897 0.5841   -0.22018
 N 0.3299 0.0188 0.6254   -0.200738
 N 0.7399 0.2772 0.7639   -0.270588
 N 0.5055 0.1898 0.7589   -0.310383
 N 0.78 0.1944 0.6103   -0.22202
 Cl 0.93636 0.53126 0.68252   1.56599
 Cl 0.4051 0.15126 0.46874   1.561887
 Cl 0.25384 0.31748 0.84874   1.565321
 Cl 0.06364 0.46874 0.31748   1.56599
 Cl 0.5949 0.84874 0.53126   1.561887
 Cl 0.74616 0.68252 0.15126   1.565321
 O 0.9681 0.529 0.768   -0.643506
 O 0.9837 0.4835 0.6311   -0.593963
 O 0.8218 0.4827 0.6439   -0.623313
 O 0.9565 0.6227 0.701   -0.564743
 O 0.4391 0.239 0.471   -0.643002
 O 0.5002 0.1476 0.5165   -0.592626
 O 0.3391 0.1612 0.5173   -0.621773
 O 0.3338 0.0783 0.3773   -0.563915
 O 0.2001 0.232 0.761   -0.643678
 O 0.3526 0.3689 0.8524   -0.594058
 O 0.1779 0.3561 0.8388   -0.622499
 O 0.2555 0.299 0.9217   -0.564554
 O 0.0319 0.471 0.232   -0.643506
 O 0.0163 0.5165 0.3689   -0.593963
 O 0.1782 0.5173 0.3561   -0.623313
 O 0.0435 0.3773 0.299   -0.564743
 O 0.5609 0.761 0.529   -0.643002
 O 0.4998 0.8524 0.4835   -0.592626
 O 0.6609 0.8388 0.4827   -0.621773
 O 0.6662 0.9217 0.6227   -0.563915
 O 0.7999 0.768 0.239   -0.643678
 O 0.6474 0.6311 0.1476   -0.594058
 O 0.8221 0.6439 0.1612   -0.622499
 O 0.7445 0.701 0.0783   -0.564554
