{'_ref': 'TBD', '_srcid': 'CAKYAQ_clean', 'submitters': [{'name': 'Dalar Nazarian Jeff Camp and David Sholl', 'email': 'dalar@gatech.edu jcamp6@gatech.edu'}], '_method': 'VASP DFT with PBE;DDEC'}
data_YbNaH16(C14O5)2
_symmetry_space_group_name_H-M   'P 1'
_cell_length_a   7.17820000
_cell_length_b   15.44409995
_cell_length_c   15.44410000
_cell_angle_alpha   119.44799955
_cell_angle_beta   90.00000000
_cell_angle_gamma   90.00000000
_symmetry_Int_Tables_number   1
_chemical_formula_structural   YbNaH16(C14O5)2
_chemical_formula_sum   'Yb2 Na2 H32 C56 O20'
_cell_volume   1490.94047942
_cell_formula_units_Z   2
loop_
 _symmetry_equiv_pos_site_id
 _symmetry_equiv_pos_as_xyz
  1  'x, y, z'
loop_
 _atom_site_label
 _atom_site_fract_x
 _atom_site_fract_y
 _atom_site_fract_z
 _atom_site_charge
 Yb 0.7671 0.37028 0.37028   1.520818
 Yb 0.2671 0.62972 0.62972   1.520818
 Na 0.2741 0.3176 0.3176   0.961518
 Na 0.7741 0.6824 0.6824   0.961518
 H 0.822 0.3028 0.0248   0.094141
 H 0.2963 0.3285 0.1229   0.064952
 H 0.7167 0.2981 0.8833   0.118914
 H 0.1629 0.3 0.966   0.167409
 H 0.479 0.1959 0.6395   0.144996
 H 0.4338 0.4693 0.8897   0.133135
 H 0.5304 0.2784 0.5484   0.090681
 H 0.515 0.543 0.7956   0.088251
 H 0.322 0.6972 0.9752   0.094141
 H 0.7963 0.6715 0.8771   0.064952
 H 0.2167 0.7019 0.1167   0.118914
 H 0.6629 0.7 0.034   0.16741
 H 0.979 0.8041 0.3605   0.144996
 H 0.9338 0.5307 0.1103   0.133136
 H 0.0304 0.7216 0.4516   0.090681
 H 0.015 0.457 0.2044   0.08825
 H 0.322 0.9752 0.6972   0.094141
 H 0.7963 0.8771 0.6715   0.064952
 H 0.2167 0.1167 0.7019   0.118916
 H 0.6629 0.034 0.7   0.16741
 H 0.979 0.3605 0.8041   0.145
 H 0.9338 0.1103 0.5307   0.133137
 H 0.0304 0.4516 0.7216   0.090681
 H 0.015 0.2044 0.457   0.088251
 H 0.822 0.0248 0.3028   0.09414
 H 0.2963 0.1229 0.3285   0.064952
 H 0.7167 0.8833 0.2981   0.118916
 H 0.1629 0.966 0.3   0.16741
 H 0.479 0.6395 0.1959   0.145
 H 0.4338 0.8897 0.4693   0.133139
 H 0.5304 0.5484 0.2784   0.090681
 H 0.515 0.7956 0.543   0.08825
 C 0.6416 0.3226 0.1818   0.808985
 C 0.5671 0.3179 0.0883   -0.234836
 C 0.6951 0.3069 0.0151   0.023449
 C 0.376 0.3186 0.0712   0.016858
 C 0.633 0.3019 0.9311   -0.218926
 C 0.29 0.3056 0.9804   -0.245788
 C 0.441 0.3028 0.916   0.251804
 C 0.454 0.3236 0.7702   0.256861
 C 0.4831 0.265 0.6704   -0.21792
 C 0.46 0.4314 0.8222   -0.23606
 C 0.5194 0.3152 0.6172   0.031463
 C 0.506 0.4741 0.7651   0.02523
 C 0.5397 0.4183 0.6641   -0.205269
 C 0.5868 0.4633 0.5991   0.722033
 C 0.1416 0.6774 0.8182   0.808985
 C 0.0671 0.6821 0.9117   -0.234836
 C 0.1951 0.6931 0.9849   0.023449
 C 0.876 0.6814 0.9288   0.016858
 C 0.133 0.6981 0.0689   -0.218926
 C 0.79 0.6944 0.0196   -0.245787
 C 0.941 0.6972 0.084   0.251804
 C 0.954 0.6764 0.2298   0.256861
 C 0.9831 0.735 0.3296   -0.21792
 C 0.96 0.5686 0.1778   -0.236059
 C 0.0194 0.6848 0.3828   0.031463
 C 0.006 0.5259 0.2349   0.025231
 C 0.0397 0.5817 0.3359   -0.205269
 C 0.0868 0.5367 0.4009   0.722033
 C 0.1416 0.8182 0.6774   0.808988
 C 0.0671 0.9117 0.6821   -0.234836
 C 0.1951 0.9849 0.6931   0.023452
 C 0.876 0.9288 0.6814   0.016859
 C 0.133 0.0689 0.6981   -0.218927
 C 0.79 0.0196 0.6944   -0.245787
 C 0.941 0.084 0.6972   0.251804
 C 0.954 0.2298 0.6764   0.256861
 C 0.9831 0.3296 0.735   -0.217922
 C 0.96 0.1778 0.5686   -0.236061
 C 0.0194 0.3828 0.6848   0.031463
 C 0.006 0.2349 0.5259   0.025231
 C 0.0397 0.3359 0.5817   -0.20527
 C 0.0868 0.4009 0.5367   0.722033
 C 0.6416 0.1818 0.3226   0.808988
 C 0.5671 0.0883 0.3179   -0.234836
 C 0.6951 0.0151 0.3069   0.023452
 C 0.376 0.0712 0.3186   0.01686
 C 0.633 0.9311 0.3019   -0.218927
 C 0.29 0.9804 0.3056   -0.245786
 C 0.441 0.916 0.3028   0.251804
 C 0.454 0.7702 0.3236   0.256861
 C 0.4831 0.6704 0.265   -0.217922
 C 0.46 0.8222 0.4314   -0.23606
 C 0.5194 0.6172 0.3152   0.031463
 C 0.506 0.7651 0.4741   0.025231
 C 0.5397 0.6641 0.4183   -0.20527
 C 0.5868 0.5991 0.4633   0.722033
 O 0.782 0.3152 0.1976   -0.602781
 O 0.5277 0.3421 0.2517   -0.81156
 O 0.3608 0.2768 0.82   -0.273991
 O 0.6713 0.4159 0.5237   -0.605761
 O 0.5484 0.5604 0.639   -0.627446
 O 0.282 0.6848 0.8024   -0.602781
 O 0.0277 0.6579 0.7483   -0.81156
 O 0.8608 0.7232 0.18   -0.273991
 O 0.1713 0.5841 0.4763   -0.605761
 O 0.0484 0.4396 0.361   -0.627446
 O 0.282 0.8024 0.6848   -0.602782
 O 0.0277 0.7483 0.6579   -0.811561
 O 0.8608 0.18 0.7232   -0.273991
 O 0.1713 0.4763 0.5841   -0.605762
 O 0.0484 0.361 0.4396   -0.627446
 O 0.782 0.1976 0.3152   -0.602782
 O 0.5277 0.2517 0.3421   -0.811561
 O 0.3608 0.82 0.2768   -0.273991
 O 0.6713 0.5237 0.4159   -0.605762
 O 0.5484 0.639 0.5604   -0.627446
