{'_ref': 'TBD', '_srcid': 'CAKYAQ_clean', 'submitters': [{'name': 'Dalar Nazarian Jeff Camp and David Sholl', 'email': 'dalar@gatech.edu jcamp6@gatech.edu'}], '_method': 'VASP DFT with PBE;DDEC'}
data_YbNaH16(C14O5)2
_symmetry_space_group_name_H-M   'P 1'
_cell_length_a   7.17820000
_cell_length_b   15.44409995
_cell_length_c   15.44410000
_cell_angle_alpha   119.44799955
_cell_angle_beta   90.00000000
_cell_angle_gamma   90.00000000
_symmetry_Int_Tables_number   1
_chemical_formula_structural   YbNaH16(C14O5)2
_chemical_formula_sum   'Yb2 Na2 H32 C56 O20'
_cell_volume   1490.94047942
_cell_formula_units_Z   2
loop_
 _symmetry_equiv_pos_site_id
 _symmetry_equiv_pos_as_xyz
  1  'x, y, z'
loop_
 _atom_site_label
 _atom_site_fract_x
 _atom_site_fract_y
 _atom_site_fract_z
 _atom_site_charge
 Yb 0.7686 0.3664 0.3664   1.547174
 Yb 0.2686 0.6336 0.6336   1.547174
 Na 0.7748 0.6795 0.6795   0.957405
 Na 0.2748 0.3205 0.3205   0.957405
 H 0.8138 0.3107 0.0243   0.088184
 H 0.2917 0.3053 0.1107   0.067716
 H 0.7041 0.3013 0.8803   0.120455
 H 0.1688 0.2992 0.9664   0.15392
 H 0.4573 0.1943 0.6351   0.149014
 H 0.4245 0.4727 0.8909   0.14216
 H 0.5382 0.2763 0.5493   0.088397
 H 0.5176 0.5423 0.7917   0.087329
 H 0.3138 0.6893 0.9757   0.088184
 H 0.7917 0.6947 0.8893   0.067715
 H 0.2041 0.6987 0.1197   0.120455
 H 0.6688 0.7008 0.0336   0.153921
 H 0.9573 0.8057 0.3649   0.149014
 H 0.9245 0.5273 0.1091   0.142161
 H 0.0382 0.7237 0.4507   0.088397
 H 0.0176 0.4577 0.2083   0.087328
 H 0.3138 0.9757 0.6893   0.088184
 H 0.7917 0.8893 0.6947   0.067716
 H 0.2041 0.1197 0.6987   0.120456
 H 0.6688 0.0336 0.7008   0.153921
 H 0.9573 0.3649 0.8057   0.149019
 H 0.9245 0.1091 0.5273   0.142162
 H 0.0382 0.4507 0.7237   0.088397
 H 0.0176 0.2083 0.4577   0.087329
 H 0.8138 0.0243 0.3107   0.088184
 H 0.2917 0.1107 0.3053   0.067715
 H 0.7041 0.8803 0.3013   0.120456
 H 0.1688 0.9664 0.2992   0.153921
 H 0.4573 0.6351 0.1943   0.149019
 H 0.4245 0.8909 0.4727   0.142164
 H 0.5382 0.5493 0.2763   0.088397
 H 0.5176 0.7917 0.5423   0.087328
 C 0.6339 0.3187 0.1767   0.829234
 C 0.5663 0.3132 0.0874   -0.241118
 C 0.6859 0.3091 0.0141   0.027466
 C 0.374 0.3064 0.0648   0.022067
 C 0.621 0.303 0.9274   -0.243383
 C 0.296 0.3013 0.9781   -0.246927
 C 0.432 0.2995 0.9117   0.279681
 C 0.446 0.3252 0.7688   0.248477
 C 0.4709 0.2629 0.6665   -0.208378
 C 0.452 0.4343 0.8235   -0.239293
 C 0.517 0.3127 0.6175   0.030311
 C 0.504 0.4737 0.7633   0.023323
 C 0.535 0.4158 0.6648   -0.195342
 C 0.5907 0.4639 0.6009   0.704323
 C 0.1339 0.6813 0.8233   0.829234
 C 0.0663 0.6868 0.9126   -0.241118
 C 0.1859 0.6909 0.9859   0.027466
 C 0.874 0.6936 0.9352   0.022067
 C 0.121 0.697 0.0726   -0.243383
 C 0.796 0.6987 0.0219   -0.246926
 C 0.932 0.7005 0.0883   0.279681
 C 0.946 0.6748 0.2312   0.248478
 C 0.9709 0.7371 0.3335   -0.208378
 C 0.952 0.5657 0.1765   -0.239292
 C 0.017 0.6873 0.3825   0.030311
 C 0.004 0.5263 0.2367   0.023324
 C 0.035 0.5842 0.3352   -0.195342
 C 0.0907 0.5361 0.3991   0.704323
 C 0.1339 0.8233 0.6813   0.829237
 C 0.0663 0.9126 0.6868   -0.241118
 C 0.1859 0.9859 0.6909   0.027469
 C 0.874 0.9352 0.6936   0.02207
 C 0.121 0.0726 0.697   -0.243384
 C 0.796 0.0219 0.6987   -0.246926
 C 0.932 0.0883 0.7005   0.279681
 C 0.946 0.2312 0.6748   0.248478
 C 0.9709 0.3335 0.7371   -0.20838
 C 0.952 0.1765 0.5657   -0.239294
 C 0.017 0.3825 0.6873   0.03031
 C 0.004 0.2367 0.5263   0.023324
 C 0.035 0.3352 0.5842   -0.195342
 C 0.0907 0.3991 0.5361   0.704323
 C 0.6339 0.1767 0.3187   0.829237
 C 0.5663 0.0874 0.3132   -0.241118
 C 0.6859 0.0141 0.3091   0.027469
 C 0.374 0.0648 0.3064   0.02207
 C 0.621 0.9274 0.303   -0.243384
 C 0.296 0.9781 0.3013   -0.246925
 C 0.432 0.9117 0.2995   0.279681
 C 0.446 0.7688 0.3252   0.248478
 C 0.4709 0.6665 0.2629   -0.20838
 C 0.452 0.8235 0.4343   -0.239293
 C 0.517 0.6175 0.3127   0.03031
 C 0.504 0.7633 0.4737   0.023325
 C 0.535 0.6648 0.4158   -0.195342
 C 0.5907 0.6009 0.4639   0.704323
 O 0.775 0.312 0.1914   -0.602246
 O 0.5292 0.3341 0.2477   -0.788755
 O 0.3518 0.2793 0.8185   -0.276031
 O 0.6686 0.4135 0.5209   -0.618065
 O 0.5462 0.5606 0.6406   -0.654818
 O 0.275 0.688 0.8086   -0.602246
 O 0.0292 0.6659 0.7523   -0.788754
 O 0.8518 0.7207 0.1815   -0.276031
 O 0.1686 0.5865 0.4791   -0.618065
 O 0.0462 0.4394 0.3594   -0.654818
 O 0.275 0.8086 0.688   -0.602246
 O 0.0292 0.7523 0.6659   -0.788756
 O 0.8518 0.1815 0.7207   -0.276031
 O 0.1686 0.4791 0.5865   -0.618065
 O 0.0462 0.3594 0.4394   -0.654818
 O 0.775 0.1914 0.312   -0.602246
 O 0.5292 0.2477 0.3341   -0.788756
 O 0.3518 0.8185 0.2793   -0.276031
 O 0.6686 0.5209 0.4135   -0.618065
 O 0.5462 0.6406 0.5606   -0.654818
