{'_ref': 'TBD', '_srcid': 'CAKYAQ_clean', 'submitters': [{'name': 'Dalar Nazarian Jeff Camp and David Sholl', 'email': 'dalar@gatech.edu jcamp6@gatech.edu'}], '_method': 'VASP DFT with PBE;DDEC'}
data_CdH4C8N8Cl
_symmetry_space_group_name_H-M   'P 1'
_cell_length_a   7.61109990
_cell_length_b   14.23908988
_cell_length_c   14.23908984
_cell_angle_alpha   61.55785027
_cell_angle_beta   74.49875014
_cell_angle_gamma   74.49874826
_symmetry_Int_Tables_number   1
_chemical_formula_structural   CdH4C8N8Cl
_chemical_formula_sum   'Cd2 H8 C16 N16 Cl2'
_cell_volume   1289.5789834
_cell_formula_units_Z   2
loop_
 _symmetry_equiv_pos_site_id
 _symmetry_equiv_pos_as_xyz
  1  'x, y, z'
loop_
 _atom_site_label
 _atom_site_fract_x
 _atom_site_fract_y
 _atom_site_fract_z
 _atom_site_charge
 Cd 0.5 0.0 0.0   0.62915
 Cd 0.0 0.0 0.0   0.62915
 H 0.7217 0.0019 0.5835   0.125385
 H 0.7783 0.4165 0.9981   0.125385
 H 0.8071 0.9981 0.4165   0.124914
 H 0.6929 0.5835 0.0019   0.124914
 H 0.2783 0.9981 0.4165   0.125385
 H 0.2217 0.5835 0.0019   0.125385
 H 0.1929 0.0019 0.5835   0.124914
 H 0.3071 0.4165 0.9981   0.124914
 C 0.6305 0.0012 0.5496   -0.082756
 C 0.8695 0.4504 0.9988   -0.082756
 C 0.6813 0.9988 0.4504   -0.080101
 C 0.8187 0.5496 0.0012   -0.080101
 C 0.3695 0.9988 0.4504   -0.082756
 C 0.1305 0.5496 0.0012   -0.082757
 C 0.3187 0.0012 0.5496   -0.080101
 C 0.1813 0.4504 0.9988   -0.080101
 C 0.3938 0.0028 0.7096   0.336884
 C 0.4484 0.0029 0.6003   0.040439
 C 0.1062 0.2904 0.9972   0.336885
 C 0.0516 0.3997 0.9971   0.040439
 C 0.6062 0.9972 0.2904   0.336884
 C 0.5516 0.9971 0.3997   0.040439
 C 0.8938 0.7096 0.0028   0.336885
 C 0.9484 0.6003 0.0029   0.040439
 N 0.40767 0.00403 0.85403   0.013344
 N 0.51275 0.00195 0.76335   -0.313362
 N 0.09233 0.14597 0.99597   0.013344
 N 0.98725 0.23665 0.99805   -0.313362
 N 0.76573 0.99597 0.14597   0.014289
 N 0.77805 0.99805 0.23665   -0.31452
 N 0.73427 0.85403 0.00403   0.014289
 N 0.72195 0.76335 0.00195   -0.31452
 N 0.59233 0.99597 0.14597   0.013372
 N 0.48725 0.99805 0.23665   -0.313364
 N 0.90767 0.85403 0.00403   0.013372
 N 0.01275 0.76335 0.00195   -0.313364
 N 0.23427 0.00403 0.85403   0.014317
 N 0.22195 0.00195 0.76335   -0.314522
 N 0.26573 0.14597 0.99597   0.014317
 N 0.27805 0.23665 0.99805   -0.314522
 Cl 0.25 0.87655 0.12345   -0.358234
 Cl 0.75 0.12345 0.87655   -0.358234
