{'_ref': 'TBD', '_srcid': 'CAKYAQ_clean', 'submitters': [{'name': 'Dalar Nazarian Jeff Camp and David Sholl', 'email': 'dalar@gatech.edu jcamp6@gatech.edu'}], '_method': 'VASP DFT with PBE;DDEC'}
data_NiH(C2N3)3
_symmetry_space_group_name_H-M   'P 1'
_cell_length_a   6.94599960
_cell_length_b   12.62620021
_cell_length_c   12.62620000
_cell_angle_alpha   82.60189897
_cell_angle_beta   83.89379640
_cell_angle_gamma   83.89380105
_symmetry_Int_Tables_number   1
_chemical_formula_structural   NiH(C2N3)3
_chemical_formula_sum   'Ni4 H4 C24 N36'
_cell_volume   1087.05610335
_cell_formula_units_Z   4
loop_
 _symmetry_equiv_pos_site_id
 _symmetry_equiv_pos_as_xyz
  1  'x, y, z'
loop_
 _atom_site_label
 _atom_site_fract_x
 _atom_site_fract_y
 _atom_site_fract_z
 _atom_site_charge
 Ni 0.90606 0.32101 0.94705   1.004219
 Ni 0.59394 0.05295 0.67899   1.004221
 Ni 0.09394 0.67899 0.05295   1.004223
 Ni 0.40606 0.94705 0.32101   1.004226
 H 0.4345 0.4229 0.4513   0.305579
 H 0.0655 0.5487 0.5771   0.305579
 H 0.5655 0.5771 0.5487   0.305579
 H 0.9345 0.4513 0.4229   0.305579
 C 0.4425 0.5369 0.3331   0.676854
 C 0.3624 0.3606 0.3302   0.706619
 C 0.3263 0.4859 0.1865   0.794018
 C 0.5186 0.7033 0.3495   0.643967
 C 0.314 0.1822 0.3468   0.655445
 C 0.1976 0.4473 0.0401   0.633125
 C 0.0575 0.6669 0.4631   0.676854
 C 0.1376 0.6698 0.6394   0.706619
 C 0.1737 0.8135 0.5141   0.794017
 C 0.9814 0.6505 0.2967   0.643966
 C 0.186 0.6532 0.8178   0.655445
 C 0.3024 0.9599 0.5527   0.633125
 C 0.5575 0.4631 0.6669   0.676853
 C 0.6376 0.6394 0.6698   0.706618
 C 0.6737 0.5141 0.8135   0.794018
 C 0.4814 0.2967 0.6505   0.643966
 C 0.686 0.8178 0.6532   0.655444
 C 0.8024 0.5527 0.9599   0.633124
 C 0.9425 0.3331 0.5369   0.676853
 C 0.8624 0.3302 0.3606   0.706618
 C 0.8263 0.1865 0.4859   0.794017
 C 0.0186 0.3495 0.7033   0.643966
 C 0.814 0.3468 0.1822   0.655444
 C 0.6976 0.0401 0.4473   0.633124
 N 0.4167 0.4374 0.3844   -0.463667
 N 0.398 0.5602 0.2308   -0.661169
 N 0.3122 0.3885 0.2351   -0.675342
 N 0.5102 0.6033 0.3915   -0.580214
 N 0.5287 0.7938 0.3218   -0.632675
 N 0.3498 0.266 0.391   -0.573372
 N 0.2839 0.1017 0.3207   -0.664016
 N 0.2562 0.5212 0.0914   -0.601865
 N 0.1376 0.3935 0.9877   -0.567513
 N 0.0833 0.6156 0.5626   -0.463667
 N 0.102 0.7692 0.4398   -0.661169
 N 0.1878 0.7649 0.6115   -0.675342
 N 0.9898 0.6085 0.3967   -0.580214
 N 0.9713 0.6782 0.2062   -0.632674
 N 0.1502 0.609 0.734   -0.573371
 N 0.2161 0.6793 0.8983   -0.664015
 N 0.2438 0.9086 0.4788   -0.601865
 N 0.3624 0.0123 0.6065   -0.567512
 N 0.5833 0.5626 0.6156   -0.463667
 N 0.602 0.4398 0.7692   -0.661167
 N 0.6878 0.6115 0.7649   -0.675341
 N 0.4898 0.3967 0.6085   -0.580214
 N 0.4713 0.2062 0.6782   -0.632673
 N 0.6502 0.734 0.609   -0.573371
 N 0.7161 0.8983 0.6793   -0.664015
 N 0.7438 0.4788 0.9086   -0.601865
 N 0.8624 0.6065 0.0123   -0.56751
 N 0.9167 0.3844 0.4374   -0.463667
 N 0.898 0.2308 0.5602   -0.661166
 N 0.8122 0.2351 0.3885   -0.675341
 N 0.0102 0.3915 0.6033   -0.580214
 N 0.0287 0.3218 0.7938   -0.632672
 N 0.8498 0.391 0.266   -0.573371
 N 0.7839 0.3207 0.1017   -0.664014
 N 0.7562 0.0914 0.5212   -0.601865
 N 0.6376 0.9877 0.3935   -0.567509
