{'_ref': 'TBD', '_srcid': 'CAKYAQ_clean', 'submitters': [{'name': 'Dalar Nazarian Jeff Camp and David Sholl', 'email': 'dalar@gatech.edu jcamp6@gatech.edu'}], '_method': 'VASP DFT with PBE;DDEC'}
data_CoH8C12(NO2)2
_symmetry_space_group_name_H-M   'P 1'
_cell_length_a   9.81900000
_cell_length_b   11.07309984
_cell_length_c   12.64990000
_cell_angle_alpha   90.00000000
_cell_angle_beta   90.00000000
_cell_angle_gamma   99.85200010
_symmetry_Int_Tables_number   1
_chemical_formula_structural   CoH8C12(NO2)2
_chemical_formula_sum   'Co4 H32 C48 N8 O16'
_cell_volume   1355.09998514
_cell_formula_units_Z   4
loop_
 _symmetry_equiv_pos_site_id
 _symmetry_equiv_pos_as_xyz
  1  'x, y, z'
loop_
 _atom_site_label
 _atom_site_fract_x
 _atom_site_fract_y
 _atom_site_fract_z
 _atom_site_charge
 Co 0.8728 0.75077 0.56632   1.01718
 Co 0.3764 0.74812 0.56436   1.028396
 Co 0.1272 0.24923 0.06632   1.01718
 Co 0.6236 0.25188 0.06436   1.028396
 H 0.1034 0.3674 0.4586   0.134858
 H 0.8515 0.0159 0.5155   0.07536
 H 0.4544 0.0078 0.735   0.116238
 H 0.1029 0.2413 0.3127   0.066519
 H 0.6029 0.5126 0.8394   0.112556
 H 0.1055 0.6469 0.2588   0.118999
 H 0.4454 0.1314 0.8848   0.069678
 H 0.8411 0.1482 0.377   0.123924
 H 0.1209 0.5192 0.1233   0.077725
 H 0.1947 0.6272 0.7458   0.055964
 H 0.5879 0.6418 0.6982   0.066163
 H 0.8528 0.0078 0.8001   0.103996
 H 0.8716 0.8688 0.1819   0.12237
 H 0.8718 0.7456 0.3232   0.072883
 H 0.1923 0.4942 0.8809   0.106765
 H 0.8365 0.1353 0.9398   0.064848
 H 0.8966 0.6326 0.9586   0.134849
 H 0.1485 0.9841 0.0155   0.075358
 H 0.5456 0.9922 0.235   0.116237
 H 0.8971 0.7587 0.8127   0.066519
 H 0.3971 0.4874 0.3394   0.112557
 H 0.8945 0.3531 0.7588   0.118997
 H 0.5546 0.8686 0.3848   0.069678
 H 0.1589 0.8518 0.877   0.123922
 H 0.8791 0.4808 0.6233   0.077722
 H 0.8053 0.3728 0.2458   0.055964
 H 0.4121 0.3582 0.1982   0.066163
 H 0.1472 0.9922 0.3001   0.103997
 H 0.1284 0.1312 0.6819   0.122362
 H 0.1282 0.2544 0.8232   0.072883
 H 0.8077 0.5058 0.3809   0.106765
 H 0.1635 0.8647 0.4398   0.064848
 C 0.6521 0.8978 0.6648   0.654411
 C 0.6521 0.9892 0.7541   -0.032805
 C 0.1046 0.3997 0.3907   -0.190994
 C 0.8531 0.9857 0.447   0.181284
 C 0.5323 0.03 0.777   -0.13997
 C 0.1072 0.3249 0.3016   0.172049
 C 0.4074 0.3982 0.9669   0.675406
 C 0.0929 0.6048 0.4665   0.66104
 C 0.3975 0.4869 0.875   -0.036854
 C 0.1039 0.5239 0.3741   0.024834
 C 0.5185 0.5333 0.8202   -0.15375
 C 0.1079 0.5648 0.2724   -0.173358
 C 0.5284 0.1071 0.8664   0.155634
 C 0.8474 0.0667 0.364   -0.194888
 C 0.1154 0.4869 0.1913   0.172946
 C 0.2772 0.6017 0.7637   0.173726
 C 0.5083 0.6113 0.7363   0.159843
 C 0.7686 0.0315 0.8157   -0.151188
 C 0.8641 0.9013 0.249   -0.169771
 C 0.8663 0.8277 0.3339   0.154802
 C 0.2743 0.5232 0.8454   -0.16126
 C 0.8466 0.109 0.1676   0.675697
 C 0.758 0.1083 0.8994   0.157389
 C 0.8513 0.0226 0.2583   0.020985
 C 0.3479 0.1022 0.1648   0.654411
 C 0.3479 0.0108 0.2541   -0.032805
 C 0.8954 0.6003 0.8907   -0.190992
 C 0.1469 0.0143 0.947   0.181285
 C 0.4677 0.97 0.277   -0.139973
 C 0.8928 0.6751 0.8016   0.172048
 C 0.5926 0.6018 0.4669   0.675405
 C 0.9071 0.3952 0.9665   0.66104
 C 0.6025 0.5131 0.375   -0.036855
 C 0.8961 0.4761 0.8741   0.024833
 C 0.4815 0.4667 0.3202   -0.153752
 C 0.8921 0.4352 0.7724   -0.173358
 C 0.4716 0.8929 0.3664   0.155633
 C 0.1526 0.9333 0.864   -0.194887
 C 0.8846 0.5131 0.6913   0.172947
 C 0.7228 0.3983 0.2637   0.173726
 C 0.4917 0.3887 0.2363   0.159843
 C 0.2314 0.9685 0.3157   -0.151188
 C 0.1359 0.0987 0.749   -0.16977
 C 0.1337 0.1723 0.8339   0.154801
 C 0.7257 0.4768 0.3454   -0.16126
 C 0.1534 0.891 0.6676   0.675697
 C 0.242 0.8917 0.3994   0.157389
 C 0.1487 0.9774 0.7583   0.020985
 N 0.1154 0.3652 0.202   -0.345741
 N 0.3879 0.6454 0.707   -0.34063
 N 0.8607 0.8697 0.435   -0.354934
 N 0.6418 0.1457 0.9251   -0.356371
 N 0.8846 0.6348 0.702   -0.345741
 N 0.6121 0.3546 0.207   -0.34063
 N 0.1393 0.1303 0.935   -0.354935
 N 0.3582 0.8543 0.4251   -0.356371
 O 0.5552 0.8752 0.6055   -0.56171
 O 0.299 0.3709 0.0208   -0.619701
 O 0.9848 0.6456 0.4744   -0.575841
 O 0.5182 0.3647 0.9808   -0.575195
 O 0.1938 0.6257 0.5323   -0.626287
 O 0.734 0.1472 0.1596   -0.586638
 O 0.9475 0.1263 0.1089   -0.596667
 O 0.7677 0.8516 0.6645   -0.629903
 O 0.4448 0.1248 0.1055   -0.56171
 O 0.701 0.6291 0.5208   -0.6197
 O 0.0152 0.3544 0.9744   -0.575841
 O 0.4818 0.6353 0.4808   -0.575194
 O 0.8062 0.3743 0.0323   -0.626286
 O 0.266 0.8528 0.6596   -0.586637
 O 0.0525 0.8737 0.6089   -0.596666
 O 0.2323 0.1484 0.1645   -0.629902
