{'_ref': 'TBD', '_srcid': 'CAKYAQ_clean', 'submitters': [{'name': 'Dalar Nazarian Jeff Camp and David Sholl', 'email': 'dalar@gatech.edu jcamp6@gatech.edu'}], '_method': 'VASP DFT with PBE;DDEC'}
data_Co3H38C48(N2O3)4
_symmetry_space_group_name_H-M   'P 1'
_cell_length_a   9.14100045
_cell_length_b   9.66699977
_cell_length_c   13.85500000
_cell_angle_alpha   100.83000091
_cell_angle_beta   90.81000285
_cell_angle_gamma   100.94000027
_symmetry_Int_Tables_number   1
_chemical_formula_structural   Co3H38C48(N2O3)4
_chemical_formula_sum   'Co3 H38 C48 N8 O12'
_cell_volume   1179.07652242
_cell_formula_units_Z   1
loop_
 _symmetry_equiv_pos_site_id
 _symmetry_equiv_pos_as_xyz
  1  'x, y, z'
loop_
 _atom_site_label
 _atom_site_fract_x
 _atom_site_fract_y
 _atom_site_fract_z
 _atom_site_charge
 Co 0.84945 0.03944 0.26753   0.980958
 Co 0.15055 0.96056 0.73247   0.980958
 Co 0.0 0.0 0.5   0.998679
 H 0.4596 0.2027 0.197   0.144195
 H 0.5894 0.3162 0.168   0.133713
 H 0.1631 0.0661 0.1516   0.10142
 H 0.2001 0.8994 0.0015   0.153825
 H 0.7991 0.7695 0.0963   0.109311
 H 0.7362 0.6569 0.931   0.122843
 H 0.6827 0.4436 0.8159   0.127247
 H 0.1183 0.4286 0.8133   0.120497
 H 0.1712 0.6396 0.9305   0.118231
 H 0.6516 0.1788 0.7661   0.146954
 H 0.6833 0.9864 0.6311   0.10797
 H 0.0416 0.2863 0.6533   0.091106
 H 0.6747 0.7806 0.486   0.139189
 H 0.5376 0.8424 0.4577   0.145937
 H 0.6871 0.5488 0.3314   0.105696
 H 0.3116 0.2593 0.3184   0.097994
 H 0.3266 0.665 0.451   0.123039
 H 0.1261 0.4637 0.4838   0.142622
 H 0.0748 0.4705 0.3768   0.120543
 H 0.5404 0.7973 0.803   0.144191
 H 0.4106 0.6838 0.832   0.133721
 H 0.8369 0.9339 0.8484   0.10142
 H 0.7999 0.1006 0.9985   0.153817
 H 0.2009 0.2305 0.9037   0.109313
 H 0.2638 0.3431 0.069   0.122849
 H 0.3173 0.5564 0.1841   0.127251
 H 0.8817 0.5714 0.1867   0.1205
 H 0.8288 0.3604 0.0695   0.118236
 H 0.3484 0.8212 0.2339   0.146948
 H 0.3167 0.0136 0.3689   0.107968
 H 0.9584 0.7137 0.3467   0.091104
 H 0.3253 0.2194 0.514   0.139189
 H 0.4624 0.1576 0.5423   0.145932
 H 0.3129 0.4512 0.6686   0.105693
 H 0.6884 0.7407 0.6816   0.097992
 H 0.6734 0.335 0.549   0.123039
 H 0.8739 0.5363 0.5162   0.142617
 H 0.9252 0.5295 0.6232   0.12054
 C 0.5478 0.2729 0.221   -0.349533
 C 0.0944 0.985 0.1216   0.044231
 C 0.1158 0.8935 0.0386   -0.135077
 C 0.894 0.8227 0.0919   0.142596
 C 0.9573 0.6655 0.943   0.106529
 C 0.8124 0.6097 0.9083   -0.134977
 C 0.7806 0.4826 0.8392   -0.117426
 C 0.8947 0.4144 0.8051   0.111128
 C 0.0416 0.4735 0.838   -0.13838
 C 0.0733 0.5996 0.9077   -0.113572
 C 0.7338 0.1771 0.7274   -0.149751
 C 0.7521 0.0713 0.6526   0.05634
 C 0.9486 0.2349 0.6643   0.154692
 C 0.6974 0.8539 0.3586   0.725509
 C 0.6075 0.7825 0.4317   -0.383495
 C 0.5209 0.6326 0.3959   0.171448
 C 0.5872 0.5264 0.3457   -0.219917
 C 0.5104 0.3886 0.3161   0.124271
 C 0.3637 0.3533 0.338   -0.239389
 C 0.2936 0.4559 0.3886   0.163882
 C 0.3737 0.5949 0.4168   -0.243253
 C 0.1327 0.4232 0.4148   -0.380638
 C 0.064 0.2653 0.3968   0.759871
 C 0.6603 0.202 0.2629   0.642745
 C 0.4522 0.7271 0.779   -0.349535
 C 0.9056 0.015 0.8784   0.044233
 C 0.8842 0.1065 0.9614   -0.135071
 C 0.106 0.1773 0.9081   0.142599
 C 0.0427 0.3345 0.057   0.106533
 C 0.1876 0.3903 0.0917   -0.134977
 C 0.2194 0.5174 0.1608   -0.117425
 C 0.1053 0.5856 0.1949   0.11113
 C 0.9584 0.5265 0.162   -0.138377
 C 0.9267 0.4004 0.0923   -0.113568
 C 0.2662 0.8229 0.2726   -0.149748
 C 0.2479 0.9287 0.3474   0.05634
 C 0.0514 0.7651 0.3357   0.154693
 C 0.3026 0.1461 0.6414   0.725508
 C 0.3925 0.2175 0.5683   -0.383493
 C 0.4791 0.3674 0.6041   0.171447
 C 0.4128 0.4736 0.6543   -0.219917
 C 0.4896 0.6114 0.6839   0.12427
 C 0.6363 0.6467 0.662   -0.239387
 C 0.7064 0.5441 0.6114   0.163882
 C 0.6263 0.4051 0.5832   -0.243254
 C 0.8673 0.5768 0.5852   -0.380635
 C 0.936 0.7347 0.6032   0.759871
 C 0.3397 0.798 0.7371   0.642745
 N 0.9551 0.9398 0.1548   -0.425386
 N 0.9874 0.7898 0.0201   0.028877
 N 0.8602 0.2816 0.7353   0.034791
 N 0.8879 0.1081 0.6127   -0.401112
 N 0.0449 0.0602 0.8452   -0.425386
 N 0.0126 0.2102 0.9799   0.028876
 N 0.1398 0.7184 0.2647   0.03479
 N 0.1121 0.8919 0.3873   -0.401112
 O 0.806 0.9599 0.392   -0.675689
 O 0.6692 0.819 0.2692   -0.593088
 O 0.0746 0.1994 0.465   -0.617818
 O 0.0024 0.2115 0.3139   -0.627322
 O 0.689 0.092 0.1819   -0.689296
 O 0.7003 0.2253 0.3453   -0.464429
 O 0.194 0.0401 0.608   -0.675689
 O 0.3308 0.181 0.7308   -0.593088
 O 0.9254 0.8006 0.535   -0.617818
 O 0.9976 0.7885 0.6861   -0.627322
 O 0.311 0.908 0.8181   -0.689296
 O 0.2997 0.7747 0.6547   -0.464429
