{'_ref': 'TBD', '_srcid': 'CAKYAQ_clean', 'submitters': [{'name': 'Dalar Nazarian Jeff Camp and David Sholl', 'email': 'dalar@gatech.edu jcamp6@gatech.edu'}], '_method': 'VASP DFT with PBE;DDEC'}
data_CaH2(C3O2)2
_symmetry_space_group_name_H-M   'P 1'
_cell_length_a   9.92609987
_cell_length_b   9.92609951
_cell_length_c   18.28727112
_cell_angle_alpha   95.77694284
_cell_angle_beta   103.31304766
_cell_angle_gamma   112.97400116
_symmetry_Int_Tables_number   1
_chemical_formula_structural   CaH2(C3O2)2
_chemical_formula_sum   'Ca6 H12 C36 O24'
_cell_volume   1577.3768347
_cell_formula_units_Z   6
loop_
 _symmetry_equiv_pos_site_id
 _symmetry_equiv_pos_as_xyz
  1  'x, y, z'
loop_
 _atom_site_label
 _atom_site_fract_x
 _atom_site_fract_y
 _atom_site_fract_z
 _atom_site_charge
 Ca 0.79008 0.45028 0.04872   1.563801
 Ca 0.90156 0.74136 0.45128   1.563622
 Ca 0.20992 0.54972 0.95128   1.563801
 Ca 0.09844 0.25864 0.54872   1.563622
 Ca 0.70626 0.45626 0.25   1.686225
 Ca 0.29374 0.54374 0.75   1.686225
 H 0.8856 0.8198 0.2752   0.084727
 H 0.7588 0.9492 0.08   0.105797
 H 0.911 0.2356 0.2836   0.080621
 H 0.0446 0.6104 0.2248   0.083492
 H 0.3692 0.6788 0.42   0.105688
 H 0.452 0.6274 0.2164   0.080755
 H 0.1144 0.1802 0.7248   0.084727
 H 0.2412 0.0508 0.92   0.105797
 H 0.089 0.7644 0.7164   0.080621
 H 0.9554 0.3896 0.7752   0.083492
 H 0.6308 0.3212 0.58   0.105688
 H 0.548 0.3726 0.7836   0.080755
 C 0.87237 0.8929 0.25027   0.039905
 C 0.81457 0.861 0.17077   -0.178928
 C 0.83023 0.11064 0.17587   -0.195387
 C 0.7787 0.709 0.1263   0.756419
 C 0.79523 0.96994 0.13337   0.040211
 C 0.80822 0.227 0.13462   0.763422
 C 0.97246 0.0649 0.37936   0.777733
 C 0.88765 0.142 0.25525   0.020906
 C 0.91073 0.034 0.29293   -0.185315
 C 0.14263 0.6221 0.24973   0.040484
 C 0.19023 0.6438 0.32923   -0.178688
 C 0.43477 0.65436 0.32413   -0.194024
 C 0.0827 0.6524 0.3737   0.755979
 C 0.33657 0.66186 0.36663   0.039803
 C 0.59238 0.6736 0.36538   0.763587
 C 0.18554 0.5931 0.12064   0.776028
 C 0.38675 0.6324 0.24475   0.019457
 C 0.24107 0.6178 0.20707   -0.183736
 C 0.12763 0.1071 0.74973   0.039905
 C 0.18543 0.139 0.82923   -0.178928
 C 0.16977 0.88936 0.82413   -0.195387
 C 0.2213 0.291 0.8737   0.756419
 C 0.20477 0.03006 0.86663   0.040211
 C 0.19178 0.773 0.86538   0.763422
 C 0.02754 0.9351 0.62064   0.777733
 C 0.11235 0.858 0.74475   0.020906
 C 0.08927 0.966 0.70707   -0.185315
 C 0.85737 0.3779 0.75027   0.040484
 C 0.80977 0.3562 0.67077   -0.178688
 C 0.56523 0.34564 0.67587   -0.194024
 C 0.9173 0.3476 0.6263   0.755979
 C 0.66343 0.33814 0.63337   0.039803
 C 0.40762 0.3264 0.63462   0.763587
 C 0.81446 0.4069 0.87936   0.776028
 C 0.61325 0.3676 0.75525   0.019457
 C 0.75893 0.3822 0.79293   -0.183736
 O 0.76788 0.6044 0.16148   -0.849133
 O 0.76384 0.69099 0.05503   -0.66391
 O 0.79539 0.33433 0.17152   -0.880932
 O 0.8039 0.21643 0.06533   -0.647492
 O 0.01196 0.1954 0.41576   -0.728634
 O 0.98177 0.95961 0.40978   -0.746963
 O 0.94292 0.6064 0.33852   -0.848478
 O 0.13596 0.70881 0.44497   -0.663693
 O 0.66281 0.62387 0.32848   -0.88186
 O 0.6511 0.73857 0.43467   -0.647318
 O 0.27964 0.5962 0.08424   -0.727685
 O 0.04983 0.57199 0.09022   -0.746489
 O 0.23212 0.3956 0.83852   -0.849133
 O 0.23616 0.30901 0.94497   -0.66391
 O 0.20461 0.66567 0.82848   -0.880932
 O 0.1961 0.78357 0.93467   -0.647492
 O 0.98804 0.8046 0.58424   -0.728634
 O 0.01823 0.04039 0.59022   -0.746963
 O 0.05708 0.3936 0.66148   -0.848478
 O 0.86404 0.29119 0.55503   -0.663693
 O 0.33719 0.37613 0.67152   -0.88186
 O 0.3489 0.26143 0.56533   -0.647318
 O 0.72036 0.4038 0.91576   -0.727685
 O 0.95017 0.42801 0.90978   -0.746489
