{'_ref': 'TBD', '_srcid': 'CAKYAQ_clean', 'submitters': [{'name': 'Dalar Nazarian Jeff Camp and David Sholl', 'email': 'dalar@gatech.edu jcamp6@gatech.edu'}], '_method': 'VASP DFT with PBE;DDEC'}
data_ZnH3(C3N4)3
_symmetry_space_group_name_H-M   'P 1'
_cell_length_a   13.60100000
_cell_length_b   15.60500000
_cell_length_c   15.60500000
_cell_angle_alpha   90.00000000
_cell_angle_beta   90.00000000
_cell_angle_gamma   90.00000000
_symmetry_Int_Tables_number   1
_chemical_formula_structural   ZnH3(C3N4)3
_chemical_formula_sum   'Zn4 H12 C36 N48'
_cell_volume   3312.06145603
_cell_formula_units_Z   4
loop_
 _symmetry_equiv_pos_site_id
 _symmetry_equiv_pos_as_xyz
  1  'x, y, z'
loop_
 _atom_site_label
 _atom_site_fract_x
 _atom_site_fract_y
 _atom_site_fract_z
 _atom_site_charge
 Zn 0.64124 0.0 0.0   0.593978
 Zn 0.14124 0.5 0.5   0.593978
 Zn 0.85876 0.5 0.5   0.593953
 Zn 0.35876 0.0 0.0   0.593953
 H 0.5 0.3944 0.6056   0.128273
 H 0.5 0.6056 0.3944   0.128273
 H 0.0 0.8944 0.8944   0.128273
 H 0.0 0.1056 0.1056   0.128273
 H 0.3525 0.2379 0.7621   0.122345
 H 0.3525 0.7621 0.2379   0.122345
 H 0.8525 0.7379 0.7379   0.122345
 H 0.8525 0.2621 0.2621   0.122345
 H 0.1475 0.2621 0.2621   0.122345
 H 0.1475 0.7379 0.7379   0.122345
 H 0.6475 0.7621 0.2379   0.122345
 H 0.6475 0.2379 0.7621   0.122345
 C 0.5 0.1612 0.8388   0.365627
 C 0.5 0.2285 0.7715   -0.049512
 C 0.5 0.3522 0.6478   -0.037529
 C 0.5 0.8388 0.1612   0.365627
 C 0.5 0.7715 0.2285   -0.049512
 C 0.5 0.6478 0.3522   -0.037529
 C 0.0 0.6612 0.6612   0.365627
 C 0.0 0.7285 0.7285   -0.049512
 C 0.0 0.8522 0.8522   -0.037529
 C 0.0 0.3388 0.3388   0.365627
 C 0.0 0.2715 0.2715   -0.049512
 C 0.0 0.1478 0.1478   -0.037529
 C 0.4117 0.259 0.741   -7.1e-05
 C 0.4127 0.3218 0.6782   -0.009176
 C 0.3178 0.3558 0.6442   0.35481
 C 0.4117 0.741 0.259   -7.1e-05
 C 0.4127 0.6782 0.3218   -0.009176
 C 0.3178 0.6442 0.3558   0.35481
 C 0.9117 0.759 0.759   -7.1e-05
 C 0.9127 0.8218 0.8218   -0.009176
 C 0.8178 0.8558 0.8558   0.35481
 C 0.9117 0.241 0.241   -7.1e-05
 C 0.9127 0.1782 0.1782   -0.009176
 C 0.8178 0.1442 0.1442   0.35481
 C 0.0883 0.241 0.241   -7.1e-05
 C 0.0873 0.1782 0.1782   -0.009176
 C 0.1822 0.1442 0.1442   0.35481
 C 0.0883 0.759 0.759   -7.1e-05
 C 0.0873 0.8218 0.8218   -0.009175
 C 0.1822 0.8558 0.8558   0.35481
 C 0.5883 0.741 0.259   -7.1e-05
 C 0.5873 0.6782 0.3218   -0.009176
 C 0.6822 0.6442 0.3558   0.35481
 C 0.5883 0.259 0.741   -7.1e-05
 C 0.5873 0.3218 0.6782   -0.009175
 C 0.6822 0.3558 0.6442   0.35481
 N 0.5486 0.07117 0.92883   -0.001622
 N 0.5816 0.12829 0.87171   -0.31542
 N 0.2135 0.4238 0.5762   0.071217
 N 0.3091 0.41444 0.58556   -0.335986
 N 0.2315 0.328 0.672   -0.279208
 N 0.1676 0.3744 0.6256   -0.107342
 N 0.5486 0.92883 0.07117   -0.001622
 N 0.5816 0.87171 0.12829   -0.31542
 N 0.2135 0.5762 0.4238   0.071217
 N 0.3091 0.58556 0.41444   -0.335987
 N 0.2315 0.672 0.328   -0.279208
 N 0.1676 0.6256 0.3744   -0.107342
 N 0.0486 0.57117 0.57117   -0.001622
 N 0.0816 0.62829 0.62829   -0.31542
 N 0.7135 0.9238 0.9238   0.071217
 N 0.8091 0.91444 0.91444   -0.335986
 N 0.7315 0.828 0.828   -0.279208
 N 0.6676 0.8744 0.8744   -0.107342
 N 0.0486 0.42883 0.42883   -0.001622
 N 0.0816 0.37171 0.37171   -0.31542
 N 0.7135 0.0762 0.0762   0.071217
 N 0.8091 0.08556 0.08556   -0.335987
 N 0.7315 0.172 0.172   -0.279208
 N 0.6676 0.1256 0.1256   -0.107342
 N 0.9514 0.42883 0.42883   -0.00153
 N 0.9184 0.37171 0.37171   -0.315433
 N 0.2865 0.0762 0.0762   0.07122
 N 0.1909 0.08556 0.08556   -0.335986
 N 0.2685 0.172 0.172   -0.279207
 N 0.3324 0.1256 0.1256   -0.107344
 N 0.9514 0.57117 0.57117   -0.00153
 N 0.9184 0.62829 0.62829   -0.315433
 N 0.2865 0.9238 0.9238   0.07122
 N 0.1909 0.91444 0.91444   -0.335987
 N 0.2685 0.828 0.828   -0.279207
 N 0.3324 0.8744 0.8744   -0.107344
 N 0.4514 0.92883 0.07117   -0.001531
 N 0.4184 0.87171 0.12829   -0.315433
 N 0.7865 0.5762 0.4238   0.07122
 N 0.6909 0.58556 0.41444   -0.335986
 N 0.7685 0.672 0.328   -0.279207
 N 0.8324 0.6256 0.3744   -0.107344
 N 0.4514 0.07117 0.92883   -0.001531
 N 0.4184 0.12829 0.87171   -0.315433
 N 0.7865 0.4238 0.5762   0.07122
 N 0.6909 0.41444 0.58556   -0.335987
 N 0.7685 0.328 0.672   -0.279207
 N 0.8324 0.3744 0.6256   -0.107344
