{'_ref': 'TBD', '_srcid': 'CAKYAQ_clean', 'submitters': [{'name': 'Dalar Nazarian Jeff Camp and David Sholl', 'email': 'dalar@gatech.edu jcamp6@gatech.edu'}], '_method': 'VASP DFT with PBE;DDEC'}
data_Zn2H3C9(N6Cl)2
_symmetry_space_group_name_H-M   'P 1'
_cell_length_a   18.26939956
_cell_length_b   18.26940001
_cell_length_c   18.26940000
_cell_angle_alpha   105.02499961
_cell_angle_beta   105.02499999
_cell_angle_gamma   105.02499874
_symmetry_Int_Tables_number   1
_chemical_formula_structural   Zn2H3C9(N6Cl)2
_chemical_formula_sum   'Zn12 H18 C54 N72 Cl12'
_cell_volume   5328.2949115
_cell_formula_units_Z   6
loop_
 _symmetry_equiv_pos_site_id
 _symmetry_equiv_pos_as_xyz
  1  'x, y, z'
loop_
 _atom_site_label
 _atom_site_fract_x
 _atom_site_fract_y
 _atom_site_fract_z
 _atom_site_charge
 Zn 0.48785 0.05546 0.5988   0.628484
 Zn 0.5988 0.48785 0.05546   0.628484
 Zn 0.05546 0.5988 0.48785   0.628484
 Zn 0.44454 0.01215 0.9012   0.628485
 Zn 0.01215 0.9012 0.44454   0.628485
 Zn 0.9012 0.44454 0.01215   0.628485
 Zn 0.51215 0.94454 0.4012   0.628484
 Zn 0.4012 0.51215 0.94454   0.628484
 Zn 0.94454 0.4012 0.51215   0.628484
 Zn 0.55546 0.98785 0.0988   0.628485
 Zn 0.98785 0.0988 0.55546   0.628485
 Zn 0.0988 0.55546 0.98785   0.628485
 H 0.3176 0.014 0.648   0.101992
 H 0.648 0.3176 0.014   0.101992
 H 0.014 0.648 0.3176   0.101992
 H 0.486 0.1824 0.852   0.101992
 H 0.1824 0.852 0.486   0.101992
 H 0.852 0.486 0.1824   0.101992
 H 0.6824 0.986 0.352   0.101992
 H 0.352 0.6824 0.986   0.101992
 H 0.986 0.352 0.6824   0.101992
 H 0.514 0.8176 0.148   0.101992
 H 0.8176 0.148 0.514   0.101992
 H 0.148 0.514 0.8176   0.101992
 H 0.28355 0.21645 0.75   0.119964
 H 0.75 0.28355 0.21645   0.119964
 H 0.21645 0.75 0.28355   0.119964
 H 0.71645 0.78355 0.25   0.119964
 H 0.25 0.71645 0.78355   0.119964
 H 0.78355 0.25 0.71645   0.119964
 C 0.206 0.0774 0.6302   0.37927
 C 0.3354 0.0632 0.6899   -0.017719
 C 0.287 0.109 0.6913   -0.006803
 C 0.6302 0.206 0.0774   0.37927
 C 0.6899 0.3354 0.0632   -0.01772
 C 0.6913 0.287 0.109   -0.006803
 C 0.0774 0.6302 0.206   0.37927
 C 0.0632 0.6899 0.3354   -0.01772
 C 0.109 0.6913 0.287   -0.006803
 C 0.4226 0.294 0.8698   0.379269
 C 0.4368 0.1646 0.8101   -0.017719
 C 0.391 0.213 0.8087   -0.006804
 C 0.294 0.8698 0.4226   0.379269
 C 0.1646 0.8101 0.4368   -0.017719
 C 0.213 0.8087 0.391   -0.006804
 C 0.8698 0.4226 0.294   0.379269
 C 0.8101 0.4368 0.1646   -0.017719
 C 0.8087 0.391 0.213   -0.006804
 C 0.794 0.9226 0.3698   0.379269
 C 0.6646 0.9368 0.3101   -0.017719
 C 0.713 0.891 0.3087   -0.006803
 C 0.3698 0.794 0.9226   0.379269
 C 0.3101 0.6646 0.9368   -0.01772
 C 0.3087 0.713 0.891   -0.006803
 C 0.9226 0.3698 0.794   0.37927
 C 0.9368 0.3101 0.6646   -0.01772
 C 0.891 0.3087 0.713   -0.006803
 C 0.5774 0.706 0.1302   0.379269
 C 0.5632 0.8354 0.1899   -0.017719
 C 0.609 0.787 0.1913   -0.006804
 C 0.706 0.1302 0.5774   0.379269
 C 0.8354 0.1899 0.5632   -0.017719
 C 0.787 0.1913 0.609   -0.006804
 C 0.1302 0.5774 0.706   0.379269
 C 0.1899 0.5632 0.8354   -0.017719
 C 0.1913 0.609 0.787   -0.006804
 C 0.46225 0.03775 0.75   0.370401
 C 0.41095 0.08905 0.75   -0.068557
 C 0.31565 0.18435 0.75   -0.011374
 C 0.75 0.46225 0.03775   0.370401
 C 0.75 0.41095 0.08905   -0.068557
 C 0.75 0.31565 0.18435   -0.011374
 C 0.03775 0.75 0.46225   0.370401
 C 0.08905 0.75 0.41095   -0.068557
 C 0.18435 0.75 0.31565   -0.011374
 C 0.53775 0.96225 0.25   0.370401
 C 0.58905 0.91095 0.25   -0.068557
 C 0.68435 0.81565 0.25   -0.011374
 C 0.25 0.53775 0.96225   0.370401
 C 0.25 0.58905 0.91095   -0.068557
 C 0.25 0.68435 0.81565   -0.011374
 C 0.96225 0.25 0.53775   0.370401
 C 0.91095 0.25 0.58905   -0.068557
 C 0.81565 0.25 0.68435   -0.011374
 N 0.08919 0.07223 0.56489   0.004706
 N 0.09546 0.99986 0.5373   -0.007078
 N 0.1689 0.00402 0.57934   -0.311893
 N 0.15874 0.1211 0.62398   -0.313019
 N 0.49289 0.02001 0.6953   -0.2568
 N 0.5351 0.9715 0.7178   -0.050262
 N 0.56489 0.08919 0.07223   0.004706
 N 0.5373 0.09546 0.99986   -0.007078
 N 0.57934 0.1689 0.00402   -0.311893
 N 0.62398 0.15874 0.1211   -0.313019
 N 0.6953 0.49289 0.02001   -0.2568
 N 0.7178 0.5351 0.9715   -0.050262
 N 0.07223 0.56489 0.08919   0.004706
 N 0.99986 0.5373 0.09546   -0.007078
 N 0.00402 0.57934 0.1689   -0.311893
 N 0.1211 0.62398 0.15874   -0.313019
 N 0.02001 0.6953 0.49289   -0.2568
 N 0.9715 0.7178 0.5351   -0.050262
 N 0.42777 0.41081 0.93511   0.004706
 N 0.50014 0.40454 0.9627   -0.007078
 N 0.49598 0.3311 0.92066   -0.311893
 N 0.3789 0.34126 0.87602   -0.313018
 N 0.47999 0.00711 0.8047   -0.256809
 N 0.5285 0.9649 0.7822   -0.050184
 N 0.41081 0.93511 0.42777   0.004706
 N 0.40454 0.9627 0.50014   -0.007078
 N 0.3311 0.92066 0.49598   -0.311893
 N 0.34126 0.87602 0.3789   -0.313018
 N 0.00711 0.8047 0.47999   -0.256809
 N 0.9649 0.7822 0.5285   -0.050184
 N 0.93511 0.42777 0.41081   0.004706
 N 0.9627 0.50014 0.40454   -0.007078
 N 0.92066 0.49598 0.3311   -0.311893
 N 0.87602 0.3789 0.34126   -0.313018
 N 0.8047 0.47999 0.00711   -0.256809
 N 0.7822 0.5285 0.9649   -0.050184
 N 0.91081 0.92777 0.43511   0.004706
 N 0.90454 0.000140000000002 0.4627   -0.007078
 N 0.8311 0.99598 0.42066   -0.311893
 N 0.84126 0.8789 0.37602   -0.313018
 N 0.50711 0.97999 0.3047   -0.2568
 N 0.4649 0.0285 0.2822   -0.050261
 N 0.43511 0.91081 0.92777   0.004706
 N 0.4627 0.90454 0.000140000000002   -0.007078
 N 0.42066 0.8311 0.99598   -0.311893
 N 0.37602 0.84126 0.8789   -0.313018
 N 0.3047 0.50711 0.97999   -0.2568
 N 0.2822 0.4649 0.0285   -0.050261
 N 0.92777 0.43511 0.91081   0.004706
 N 0.000140000000002 0.4627 0.90454   -0.007078
 N 0.99598 0.42066 0.8311   -0.311893
 N 0.8789 0.37602 0.84126   -0.313018
 N 0.97999 0.3047 0.50711   -0.2568
 N 0.0285 0.2822 0.4649   -0.050261
 N 0.57223 0.58919 0.06489   0.004706
 N 0.49986 0.59546 0.0373   -0.007078
 N 0.50402 0.6689 0.07934   -0.311893
 N 0.6211 0.65874 0.12398   -0.313018
 N 0.52001 0.99289 0.1953   -0.256809
 N 0.4715 0.0351 0.2178   -0.050183
 N 0.58919 0.06489 0.57223   0.004706
 N 0.59546 0.0373 0.49986   -0.007078
 N 0.6689 0.07934 0.50402   -0.311893
 N 0.65874 0.12398 0.6211   -0.313018
 N 0.99289 0.1953 0.52001   -0.256809
 N 0.0351 0.2178 0.4715   -0.050183
 N 0.06489 0.57223 0.58919   0.004706
 N 0.0373 0.49986 0.59546   -0.007078
 N 0.07934 0.50402 0.6689   -0.311893
 N 0.12398 0.6211 0.65874   -0.313018
 N 0.1953 0.52001 0.99289   -0.256809
 N 0.2178 0.4715 0.0351   -0.050183
 Cl 0.46784 0.17041 0.60994   -0.356129
 Cl 0.60994 0.46784 0.17041   -0.356129
 Cl 0.17041 0.60994 0.46784   -0.356129
 Cl 0.32959 0.03216 0.89006   -0.356129
 Cl 0.03216 0.89006 0.32959   -0.356129
 Cl 0.89006 0.32959 0.03216   -0.356129
 Cl 0.53216 0.82959 0.39006   -0.356129
 Cl 0.39006 0.53216 0.82959   -0.356129
 Cl 0.82959 0.39006 0.53216   -0.356129
 Cl 0.67041 0.96784 0.10994   -0.356129
 Cl 0.96784 0.10994 0.67041   -0.356129
 Cl 0.10994 0.67041 0.96784   -0.356129
