{'_ref': 'TBD', '_srcid': 'CAKYAQ_clean', 'submitters': [{'name': 'Dalar Nazarian Jeff Camp and David Sholl', 'email': 'dalar@gatech.edu jcamp6@gatech.edu'}], '_method': 'VASP DFT with PBE;DDEC'}
data_SmH4C7(NO3)2
_symmetry_space_group_name_H-M   'P 1'
_cell_length_a   10.28149983
_cell_length_b   11.29280000
_cell_length_c   22.24800000
_cell_angle_alpha   90.00000000
_cell_angle_beta   97.46199934
_cell_angle_gamma   90.00000000
_symmetry_Int_Tables_number   1
_chemical_formula_structural   SmH4C7(NO3)2
_chemical_formula_sum   'Sm8 H32 C56 N16 O48'
_cell_volume   2561.27066526
_cell_formula_units_Z   8
loop_
 _symmetry_equiv_pos_site_id
 _symmetry_equiv_pos_as_xyz
  1  'x, y, z'
loop_
 _atom_site_label
 _atom_site_fract_x
 _atom_site_fract_y
 _atom_site_fract_z
 _atom_site_charge
 Sm 0.60982 0.31369 0.22582   2.197956
 Sm 0.73958 0.41173 0.93571   2.354842
 Sm 0.89018 0.81369 0.27418   2.197956
 Sm 0.76042 0.91173 0.56429   2.354843
 Sm 0.39018 0.68631 0.77418   2.197956
 Sm 0.26042 0.58827 0.06429   2.354847
 Sm 0.10982 0.18631 0.72582   2.197956
 Sm 0.23958 0.08827 0.43571   2.354847
 H 0.1572 0.0327 0.1639   0.339278
 H 0.1182 0.3809 0.1636   0.312226
 H 0.247 0.108 0.0748   0.143862
 H 0.3995 0.1239 0.0881   0.177311
 H 0.3072 0.2347 0.0864   0.160746
 H 0.1189 0.3576 0.2729   0.125987
 H 0.0095 0.2696 0.2877   0.162158
 H 0.9898 0.4064 0.2943   0.183036
 H 0.3428 0.5327 0.3361   0.339278
 H 0.3818 0.8809 0.3364   0.312226
 H 0.253 0.608 0.4252   0.143862
 H 0.1005 0.6239 0.4119   0.177311
 H 0.1928 0.7347 0.4136   0.160746
 H 0.3811 0.8576 0.2271   0.125986
 H 0.4905 0.7696 0.2123   0.162158
 H 0.5102 0.9064 0.2057   0.183036
 H 0.8428 0.9673 0.8361   0.339278
 H 0.8818 0.6191 0.8364   0.312226
 H 0.753 0.892 0.9252   0.143862
 H 0.6005 0.8761 0.9119   0.17731
 H 0.6928 0.7653 0.9136   0.160746
 H 0.8811 0.6424 0.7271   0.125987
 H 0.9905 0.7304 0.7123   0.162158
 H 0.0102 0.5936 0.7057   0.183036
 H 0.6572 0.4673 0.6639   0.339278
 H 0.6182 0.1191 0.6636   0.312226
 H 0.747 0.392 0.5748   0.143862
 H 0.8995 0.3761 0.5881   0.17731
 H 0.8072 0.2653 0.5864   0.160746
 H 0.6189 0.1424 0.7729   0.125986
 H 0.5095 0.2304 0.7877   0.162158
 H 0.4898 0.0936 0.7943   0.183036
 C 0.3095 0.1388 0.1637   0.471481
 C 0.2399 0.0748 0.2487   -0.09492
 C 0.3465 0.1487 0.2619   0.027319
 C 0.3164 0.1526 0.0973   -0.452833
 C 0.1584 0.9973 0.2831   0.756354
 C 0.419 0.1889 0.3204   0.747838
 C 0.964 0.352 0.2072   0.486126
 C 0.9497 0.3707 0.1067   -0.083587
 C 0.8273 0.3519 0.1239   0.053747
 C 0.026 0.3458 0.2712   -0.474009
 C 0.0071 0.3855 0.0492   0.810653
 C 0.6943 0.3487 0.0882   0.803609
 C 0.735 0.0459 0.2145   0.538572
 C 0.7959 0.0917 0.2782   0.539348
 C 0.1905 0.6388 0.3363   0.471481
 C 0.2601 0.5748 0.2513   -0.09492
 C 0.1535 0.6487 0.2381   0.027319
 C 0.1836 0.6526 0.4027   -0.452833
 C 0.3416 0.4973 0.2169   0.756354
 C 0.081 0.6889 0.1796   0.747838
 C 0.536 0.852 0.2928   0.486125
 C 0.5503 0.8707 0.3933   -0.083587
 C 0.6727 0.8519 0.3761   0.053747
 C 0.474 0.8458 0.2288   -0.474009
 C 0.4929 0.8855 0.4508   0.810653
 C 0.8057 0.8487 0.4118   0.803609
 C 0.765 0.5459 0.2855   0.538572
 C 0.7041 0.5917 0.2218   0.539348
 C 0.6905 0.8612 0.8363   0.471481
 C 0.7601 0.9252 0.7513   -0.09492
 C 0.6535 0.8513 0.7381   0.027319
 C 0.6836 0.8474 0.9027   -0.452833
 C 0.8416 0.0027 0.7169   0.756354
 C 0.581 0.8111 0.6796   0.747838
 C 0.036 0.648 0.7928   0.486126
 C 0.0503 0.6293 0.8933   -0.083587
 C 0.1727 0.6481 0.8761   0.053747
 C 0.974 0.6542 0.7288   -0.474009
 C 0.9929 0.6145 0.9508   0.810653
 C 0.3057 0.6513 0.9118   0.803609
 C 0.265 0.9541 0.7855   0.538572
 C 0.2041 0.9083 0.7218   0.539348
 C 0.8095 0.3612 0.6637   0.471481
 C 0.7399 0.4252 0.7487   -0.09492
 C 0.8465 0.3513 0.7619   0.027319
 C 0.8164 0.3474 0.5973   -0.452833
 C 0.6584 0.5027 0.7831   0.756354
 C 0.919 0.3111 0.8204   0.747838
 C 0.464 0.148 0.7072   0.486125
 C 0.4497 0.1293 0.6067   -0.083587
 C 0.3273 0.1481 0.6239   0.053747
 C 0.526 0.1542 0.7712   -0.474009
 C 0.5071 0.1145 0.5492   0.810653
 C 0.1943 0.1513 0.5882   0.803609
 C 0.235 0.4541 0.7145   0.538572
 C 0.2959 0.4083 0.7782   0.539348
 N 0.21855 0.0715 0.18545   -0.302101
 N 0.39048 0.1876 0.20888   -0.564838
 N 0.03469 0.3707 0.16039   -0.290618
 N 0.83661 0.3404 0.18651   -0.544171
 N 0.28145 0.5715 0.31455   -0.302101
 N 0.10952 0.6876 0.29112   -0.564838
 N 0.46531 0.8707 0.33961   -0.290618
 N 0.66339 0.8404 0.31349   -0.544171
 N 0.78145 0.9285 0.81455   -0.302101
 N 0.60952 0.8124 0.79112   -0.564838
 N 0.96531 0.6293 0.83961   -0.290618
 N 0.16339 0.6596 0.81349   -0.544171
 N 0.71855 0.4285 0.68545   -0.302101
 N 0.89048 0.3124 0.70888   -0.564838
 N 0.53469 0.1293 0.66039   -0.290618
 N 0.33661 0.1596 0.68651   -0.544171
 O 0.07034 0.9407 0.25064   -0.670412
 O 0.18459 0.9888 0.33939   -0.831737
 O 0.37453 0.1671 0.36893   -0.820124
 O 0.52346 0.2439 0.31806   -0.599336
 O 0.12536 0.4156 0.05476   -0.764395
 O 0.9396 0.3627 0.9993   -0.730033
 O 0.68006 0.3732 0.03256   -0.896477
 O 0.59818 0.3234 0.11608   -0.659039
 O 0.76954 0.9448 0.19904   -0.637273
 O 0.6562 0.1134 0.1841   -0.662855
 O 0.86736 0.0214 0.31086   -0.679319
 O 0.76893 0.1962 0.29163   -0.634374
 O 0.42966 0.4407 0.24936   -0.670412
 O 0.31541 0.4888 0.16061   -0.831737
 O 0.12547 0.6671 0.13107   -0.820124
 O 0.97654 0.7439 0.18194   -0.599336
 O 0.37464 0.9156 0.44524   -0.764395
 O 0.5604 0.8627 0.5007   -0.730033
 O 0.81994 0.8732 0.46744   -0.896477
 O 0.90182 0.8234 0.38392   -0.659039
 O 0.73046 0.4448 0.30096   -0.637273
 O 0.8438 0.6134 0.3159   -0.662855
 O 0.63264 0.5214 0.18914   -0.679319
 O 0.73107 0.6962 0.20837   -0.634374
 O 0.92966 0.0593 0.74936   -0.670412
 O 0.81541 0.0112 0.66061   -0.831737
 O 0.62547 0.8329 0.63107   -0.820124
 O 0.47654 0.7561 0.68194   -0.599336
 O 0.87464 0.5844 0.94524   -0.764395
 O 0.0604 0.6373 0.000700000000002   -0.730033
 O 0.31994 0.6268 0.96744   -0.896477
 O 0.40182 0.6766 0.88392   -0.659039
 O 0.23046 0.0552 0.80096   -0.637273
 O 0.3438 0.8866 0.8159   -0.662855
 O 0.13264 0.9786 0.68914   -0.679319
 O 0.23107 0.8038 0.70837   -0.634374
 O 0.57034 0.5593 0.75064   -0.670412
 O 0.68459 0.5112 0.83939   -0.831737
 O 0.87453 0.3329 0.86893   -0.820124
 O 0.02346 0.2561 0.81806   -0.599336
 O 0.62536 0.0844 0.55476   -0.764395
 O 0.4396 0.1373 0.4993   -0.730033
 O 0.18006 0.1268 0.53256   -0.896477
 O 0.09818 0.1766 0.61608   -0.659039
 O 0.26954 0.5552 0.69904   -0.637273
 O 0.1562 0.3866 0.6841   -0.662855
 O 0.36736 0.4786 0.81086   -0.679319
 O 0.26893 0.3038 0.79163   -0.634374
