{'_ref': 'TBD', '_srcid': 'CAKYAQ_clean', 'submitters': [{'name': 'Dalar Nazarian Jeff Camp and David Sholl', 'email': 'dalar@gatech.edu jcamp6@gatech.edu'}], '_method': 'VASP DFT with PBE;DDEC'}
data_GdH4C7(NO3)2
_symmetry_space_group_name_H-M   'P 1'
_cell_length_a   10.22880005
_cell_length_b   11.29620000
_cell_length_c   22.26890000
_cell_angle_alpha   90.00000000
_cell_angle_beta   97.06620195
_cell_angle_gamma   90.00000000
_symmetry_Int_Tables_number   1
_chemical_formula_structural   GdH4C7(NO3)2
_chemical_formula_sum   'Gd8 H32 C56 N16 O48'
_cell_volume   2553.55154736
_cell_formula_units_Z   8
loop_
 _symmetry_equiv_pos_site_id
 _symmetry_equiv_pos_as_xyz
  1  'x, y, z'
loop_
 _atom_site_label
 _atom_site_fract_x
 _atom_site_fract_y
 _atom_site_fract_z
 _atom_site_charge
 Gd 0.61119 0.68532 0.22515   2.078804
 Gd 0.24163 0.90914 0.4358   2.103325
 Gd 0.88881 0.18532 0.27485   2.078803
 Gd 0.25837 0.40914 0.0642   2.103323
 Gd 0.38881 0.31468 0.77485   2.078774
 Gd 0.75837 0.09086 0.5642   2.103055
 Gd 0.11119 0.81468 0.72515   2.078773
 Gd 0.74163 0.59086 0.9358   2.103054
 H 0.1573 0.9663 0.1646   0.342495
 H 0.1193 0.6186 0.1621   0.310243
 H 0.2499 0.8909 0.0744   0.15101
 H 0.3103 0.7643 0.0863   0.169047
 H 0.403 0.875 0.0874   0.178847
 H 0.1194 0.6411 0.272   0.128353
 H 0.9895 0.5913 0.2932   0.176001
 H 0.009 0.7283 0.2873   0.161495
 H 0.3427 0.4663 0.3354   0.342487
 H 0.3807 0.1186 0.3379   0.310243
 H 0.2501 0.3909 0.4256   0.151009
 H 0.1897 0.2643 0.4137   0.169046
 H 0.097 0.375 0.4126   0.178829
 H 0.3806 0.1411 0.228   0.128345
 H 0.5105 0.0913 0.2068   0.175982
 H 0.491 0.2283 0.2127   0.161493
 H 0.8427 0.0337 0.8354   0.342485
 H 0.8807 0.3814 0.8379   0.310242
 H 0.7501 0.1091 0.9256   0.150981
 H 0.6897 0.2357 0.9137   0.169043
 H 0.597 0.125 0.9126   0.178813
 H 0.8806 0.3589 0.728   0.128353
 H 0.0105 0.4087 0.7068   0.176001
 H 0.991 0.2717 0.7127   0.161496
 H 0.6573 0.5337 0.6646   0.342477
 H 0.6193 0.8814 0.6621   0.310242
 H 0.7499 0.6091 0.5744   0.15098
 H 0.8103 0.7357 0.5863   0.169041
 H 0.903 0.625 0.5874   0.178795
 H 0.6194 0.8589 0.772   0.128345
 H 0.4895 0.9087 0.7932   0.175982
 H 0.509 0.7717 0.7873   0.161493
 C 0.3122 0.8611 0.1633   0.462846
 C 0.34847 0.8515 0.26187   0.027693
 C 0.24112 0.9249 0.24872   -0.084961
 C 0.3196 0.8465 0.0969   -0.453317
 C 0.42103 0.8104 0.32033   0.718496
 C 0.1588 0.0021 0.284   0.727785
 C 0.96417 0.6476 0.20607   0.472373
 C 0.82636 0.6489 0.12336   0.046545
 C 0.95 0.63 0.1058   -0.067253
 C 0.0261 0.6525 0.2704   -0.467938
 C 0.69329 0.6534 0.08759   0.777956
 C 0.00918 0.615 0.04818   0.775614
 C 0.79626 0.9072 0.27836   0.522744
 C 0.73842 0.9535 0.21502   0.526798
 C 0.1878 0.3611 0.3367   0.462841
 C 0.15153 0.3515 0.23813   0.0277
 C 0.25888 0.4249 0.25128   -0.084961
 C 0.1804 0.3465 0.4031   -0.45331
 C 0.07897 0.3104 0.17967   0.718489
 C 0.3412 0.5021 0.216   0.727783
 C 0.53583 0.1476 0.29393   0.472382
 C 0.67364 0.1489 0.37664   0.046543
 C 0.55 0.13 0.3942   -0.067257
 C 0.4739 0.1525 0.2296   -0.467924
 C 0.80671 0.1534 0.41241   0.777955
 C 0.49082 0.115 0.45182   0.775614
 C 0.70374 0.4072 0.22164   0.522739
 C 0.76158 0.4535 0.28498   0.526804
 C 0.6878 0.1389 0.8367   0.462839
 C 0.65153 0.1485 0.73813   0.027693
 C 0.75888 0.0751 0.75128   -0.084963
 C 0.6804 0.1535 0.9031   -0.453295
 C 0.57897 0.1896 0.67967   0.718491
 C 0.8412 0.9979 0.716   0.727782
 C 0.03583 0.3524 0.79393   0.472373
 C 0.17364 0.3511 0.87664   0.046545
 C 0.05 0.37 0.8942   -0.067253
 C 0.9739 0.3475 0.7296   -0.467938
 C 0.30671 0.3466 0.91241   0.77796
 C 0.99082 0.385 0.95182   0.775614
 C 0.20374 0.0928 0.72164   0.522744
 C 0.26158 0.0465 0.78498   0.526796
 C 0.8122 0.6389 0.6633   0.462834
 C 0.84847 0.6485 0.76187   0.0277
 C 0.74112 0.5751 0.74872   -0.084962
 C 0.8196 0.6535 0.5969   -0.453287
 C 0.92103 0.6896 0.82033   0.718485
 C 0.6588 0.4979 0.784   0.72778
 C 0.46417 0.8524 0.70607   0.472382
 C 0.32636 0.8511 0.62336   0.046543
 C 0.45 0.87 0.6058   -0.067257
 C 0.5261 0.8475 0.7704   -0.467924
 C 0.19329 0.8466 0.58759   0.77796
 C 0.50918 0.885 0.54818   0.775615
 C 0.29626 0.5928 0.77836   0.522739
 C 0.23842 0.5465 0.71502   0.526802
 N 0.39344 0.8121 0.20884   -0.553351
 N 0.21948 0.9281 0.18578   -0.30627
 N 0.83664 0.6595 0.18554   -0.554879
 N 0.03555 0.6291 0.15915   -0.28651
 N 0.10656 0.3121 0.29116   -0.553351
 N 0.28052 0.4281 0.31422   -0.306267
 N 0.66336 0.1595 0.31446   -0.55488
 N 0.46445 0.1291 0.34085   -0.286511
 N 0.60656 0.1879 0.79116   -0.553349
 N 0.78052 0.0719 0.81422   -0.306265
 N 0.16336 0.3405 0.81446   -0.554878
 N 0.96445 0.3709 0.84085   -0.286511
 N 0.89344 0.6879 0.70884   -0.553349
 N 0.71948 0.5719 0.68578   -0.306262
 N 0.33664 0.8405 0.68554   -0.554879
 N 0.53555 0.8709 0.65915   -0.286511
 O 0.52506 0.7519 0.31736   -0.590293
 O 0.37825 0.8345 0.36925   -0.765595
 O 0.18536 0.0105 0.34026   -0.771334
 O 0.06953 0.0591 0.25183   -0.662494
 O 0.59637 0.676 0.11607   -0.645576
 O 0.68024 0.633 0.03164   -0.833077
 O 0.94225 0.6368 0.99825   -0.702255
 O 0.12897 0.584 0.05407   -0.740122
 O 0.86671 0.9778 0.31171   -0.609987
 O 0.76936 0.802 0.29126   -0.581108
 O 0.77183 0.0552 0.20023   -0.569111
 O 0.65979 0.8846 0.18369   -0.61289
 O 0.97494 0.2519 0.18264   -0.590278
 O 0.12175 0.3345 0.13075   -0.765594
 O 0.31464 0.5105 0.15974   -0.771333
 O 0.43047 0.5591 0.24817   -0.66248
 O 0.90363 0.176 0.38393   -0.645568
 O 0.81976 0.133 0.46836   -0.833077
 O 0.55775 0.1368 0.50175   -0.702255
 O 0.37103 0.084 0.44593   -0.740122
 O 0.63329 0.4778 0.18829   -0.609979
 O 0.73064 0.302 0.20874   -0.581089
 O 0.72817 0.5552 0.29977   -0.569094
 O 0.84021 0.3846 0.31631   -0.612891
 O 0.47494 0.2481 0.68264   -0.590292
 O 0.62175 0.1655 0.63075   -0.765583
 O 0.81464 0.9895 0.65974   -0.771324
 O 0.93047 0.9409 0.74817   -0.662492
 O 0.40363 0.324 0.88393   -0.645574
 O 0.31976 0.367 0.96836   -0.83309
 O 0.05775 0.3632 0.00175   -0.702259
 O 0.87103 0.416 0.94593   -0.740113
 O 0.13329 0.0222 0.68829   -0.609986
 O 0.23064 0.198 0.70874   -0.581107
 O 0.22817 0.9448 0.79977   -0.56911
 O 0.34021 0.1154 0.81631   -0.612889
 O 0.02506 0.7481 0.81736   -0.590278
 O 0.87825 0.6655 0.86925   -0.765582
 O 0.68536 0.4895 0.84026   -0.771323
 O 0.56953 0.4409 0.75183   -0.662478
 O 0.09637 0.824 0.61607   -0.645566
 O 0.18024 0.867 0.53164   -0.83309
 O 0.44225 0.8632 0.49825   -0.702259
 O 0.62897 0.916 0.55407   -0.740113
 O 0.36671 0.5222 0.81171   -0.609978
 O 0.26936 0.698 0.79126   -0.581088
 O 0.27183 0.4448 0.70023   -0.569093
 O 0.15979 0.6154 0.68369   -0.61289
