{'_ref': 'TBD', '_srcid': 'CAKYAQ_clean', 'submitters': [{'name': 'Dalar Nazarian Jeff Camp and David Sholl', 'email': 'dalar@gatech.edu jcamp6@gatech.edu'}], '_method': 'VASP DFT with PBE;DDEC'}
data_SmH4C7(NO3)2
_symmetry_space_group_name_H-M   'P 1'
_cell_length_a   10.27499978
_cell_length_b   11.28760000
_cell_length_c   22.22720000
_cell_angle_alpha   90.00000000
_cell_angle_beta   97.32099889
_cell_angle_gamma   90.00000000
_symmetry_Int_Tables_number   1
_chemical_formula_structural   SmH4C7(NO3)2
_chemical_formula_sum   'Sm8 H32 C56 N16 O48'
_cell_volume   2556.89696051
_cell_formula_units_Z   8
loop_
 _symmetry_equiv_pos_site_id
 _symmetry_equiv_pos_as_xyz
  1  'x, y, z'
loop_
 _atom_site_label
 _atom_site_fract_x
 _atom_site_fract_y
 _atom_site_fract_z
 _atom_site_charge
 Sm 0.39027 0.81314 0.77403   2.196494
 Sm 0.76069 0.58681 0.56417   2.351554
 Sm 0.10973 0.31314 0.72597   2.196494
 Sm 0.73931 0.08681 0.93583   2.351554
 Sm 0.60973 0.18686 0.22597   2.196494
 Sm 0.23931 0.41319 0.43583   2.351557
 Sm 0.89027 0.68686 0.27403   2.196494
 Sm 0.26069 0.91319 0.06417   2.351557
 H 0.8436 0.5311 0.836   0.339268
 H 0.8812 0.8804 0.837   0.311915
 H 0.6023 0.6209 0.9131   0.175848
 H 0.7556 0.6122 0.9254   0.144732
 H 0.688 0.7358 0.9132   0.161904
 H 0.0066 0.7769 0.7101   0.170489
 H 0.881 0.8397 0.728   0.124731
 H 0.9963 0.9155 0.7082   0.1763
 H 0.6564 0.0311 0.664   0.339268
 H 0.6188 0.3804 0.663   0.311915
 H 0.8977 0.1209 0.5869   0.175847
 H 0.7444 0.1122 0.5746   0.144732
 H 0.812 0.2358 0.5868   0.161904
 H 0.4934 0.2769 0.7899   0.170489
 H 0.619 0.3397 0.772   0.124731
 H 0.5037 0.4155 0.7918   0.1763
 H 0.1564 0.4689 0.164   0.339268
 H 0.1188 0.1196 0.163   0.311915
 H 0.3977 0.3791 0.0869   0.175847
 H 0.2444 0.3878 0.0746   0.144732
 H 0.312 0.2642 0.0868   0.161904
 H 0.9934 0.2231 0.2899   0.170489
 H 0.119 0.1603 0.272   0.124731
 H 0.0037 0.0845 0.2918   0.1763
 H 0.3436 0.9689 0.336   0.339268
 H 0.3812 0.6196 0.337   0.311915
 H 0.1023 0.8791 0.4131   0.175846
 H 0.2556 0.8878 0.4254   0.144732
 H 0.188 0.7642 0.4132   0.161904
 H 0.5066 0.7231 0.2101   0.170489
 H 0.381 0.6603 0.228   0.124731
 H 0.4963 0.5845 0.2082   0.1763
 C 0.8423 0.4953 0.7172   0.756336
 C 0.7597 0.5734 0.752   -0.080076
 C 0.6526 0.6473 0.7381   0.016767
 C 0.5809 0.6876 0.68   0.742865
 C 0.689 0.6385 0.8364   0.463368
 C 0.6832 0.6532 0.903   -0.451747
 C 0.3058 0.8491 0.9122   0.803866
 C 0.1733 0.8522 0.8762   0.055765
 C 0.0508 0.8705 0.8932   -0.088166
 C 0.9944 0.8843 0.9514   0.81435
 C 0.036 0.8511 0.7932   0.483928
 C 0.9746 0.8453 0.7292   -0.476021
 C 0.2356 0.0458 0.7144   0.542172
 C 0.2955 0.0913 0.778   0.540601
 C 0.6577 0.9953 0.7828   0.756336
 C 0.7403 0.0734 0.748   -0.080076
 C 0.8474 0.1473 0.7619   0.016767
 C 0.9191 0.1876 0.82   0.742865
 C 0.811 0.1385 0.6636   0.463368
 C 0.8168 0.1532 0.597   -0.451747
 C 0.1942 0.3491 0.5878   0.803866
 C 0.3267 0.3522 0.6238   0.055764
 C 0.4492 0.3705 0.6068   -0.088166
 C 0.5056 0.3843 0.5486   0.81435
 C 0.464 0.3511 0.7068   0.483927
 C 0.5254 0.3453 0.7708   -0.476021
 C 0.2644 0.5458 0.7856   0.542171
 C 0.2045 0.5913 0.722   0.540601
 C 0.1577 0.5047 0.2828   0.756336
 C 0.2403 0.4266 0.248   -0.080076
 C 0.3474 0.3527 0.2619   0.016767
 C 0.4191 0.3124 0.32   0.742865
 C 0.311 0.3615 0.1636   0.463368
 C 0.3168 0.3468 0.097   -0.451747
 C 0.6942 0.1509 0.0878   0.803866
 C 0.8267 0.1478 0.1238   0.055765
 C 0.9492 0.1295 0.1068   -0.088166
 C 0.0056 0.1157 0.0486   0.81435
 C 0.964 0.1489 0.2068   0.483928
 C 0.0254 0.1547 0.2708   -0.476021
 C 0.7644 0.9542 0.2856   0.542172
 C 0.7045 0.9087 0.222   0.540601
 C 0.3423 0.0047 0.2172   0.756336
 C 0.2597 0.9266 0.252   -0.080076
 C 0.1526 0.8527 0.2381   0.016767
 C 0.0809 0.8124 0.18   0.742865
 C 0.189 0.8615 0.3364   0.463368
 C 0.1832 0.8468 0.403   -0.451746
 C 0.8058 0.6509 0.4122   0.803866
 C 0.6733 0.6478 0.3762   0.055764
 C 0.5508 0.6295 0.3932   -0.088166
 C 0.4944 0.6157 0.4514   0.81435
 C 0.536 0.6489 0.2932   0.483927
 C 0.4746 0.6547 0.2292   -0.476021
 C 0.7356 0.4542 0.2144   0.542171
 C 0.7955 0.4087 0.278   0.540601
 N 0.7807 0.5706 0.8141   -0.2979
 N 0.6095 0.6867 0.79095   -0.558891
 N 0.163 0.8397 0.81431   -0.546887
 N 0.9666 0.87 0.8401   -0.283798
 N 0.7193 0.0706 0.6859   -0.2979
 N 0.8905 0.1867 0.70905   -0.558891
 N 0.337 0.3397 0.68569   -0.546887
 N 0.5334 0.37 0.6599   -0.283798
 N 0.2193 0.4294 0.1859   -0.2979
 N 0.3905 0.3133 0.20905   -0.558891
 N 0.837 0.1603 0.18569   -0.546887
 N 0.0334 0.13 0.1599   -0.283798
 N 0.2807 0.9294 0.3141   -0.2979
 N 0.1095 0.8133 0.29095   -0.558891
 N 0.663 0.6603 0.31431   -0.546887
 N 0.4666 0.63 0.3401   -0.283798
 O 0.9295 0.4397 0.74901   -0.662271
 O 0.8156 0.4861 0.66042   -0.83748
 O 0.6248 0.6645 0.63059   -0.82692
 O 0.4766 0.7435 0.68179   -0.594115
 O 0.4022 0.8225 0.88394   -0.668259
 O 0.3203 0.8748 0.96706   -0.887866
 O 0.0607 0.8628 0.000509999999999   -0.719778
 O 0.8755 0.9141 0.94559   -0.774091
 O 0.2702 0.9446 0.69893   -0.640608
 O 0.1568 0.1132 0.6842   -0.661659
 O 0.3674 0.0206 0.81087   -0.684065
 O 0.2684 0.1951 0.7913   -0.632655
 O 0.5705 0.9397 0.75099   -0.662271
 O 0.6844 0.9861 0.83958   -0.83748
 O 0.8752 0.1645 0.86941   -0.82692
 O 0.0234 0.2435 0.81821   -0.594114
 O 0.0978 0.3225 0.61606   -0.668259
 O 0.1797 0.3748 0.53294   -0.887866
 O 0.4393 0.3628 0.49949   -0.719778
 O 0.6245 0.4141 0.55441   -0.774091
 O 0.2298 0.4446 0.80107   -0.640608
 O 0.3432 0.6132 0.8158   -0.661659
 O 0.1326 0.5206 0.68913   -0.684065
 O 0.2316 0.6951 0.7087   -0.632655
 O 0.0705 0.5603 0.25099   -0.662271
 O 0.1844 0.5139 0.33958   -0.83748
 O 0.3752 0.3355 0.36941   -0.82692
 O 0.5234 0.2565 0.31821   -0.594115
 O 0.5978 0.1775 0.11606   -0.668259
 O 0.6797 0.1252 0.03294   -0.887866
 O 0.9393 0.1372 0.99949   -0.719778
 O 0.1245 0.0859 0.05441   -0.774091
 O 0.7298 0.0554 0.30107   -0.640608
 O 0.8432 0.8868 0.3158   -0.661659
 O 0.6326 0.9794 0.18913   -0.684065
 O 0.7316 0.8049 0.2087   -0.632655
 O 0.4295 0.0603 0.24901   -0.662271
 O 0.3156 0.0139 0.16042   -0.83748
 O 0.1248 0.8355 0.13059   -0.82692
 O 0.9766 0.7565 0.18179   -0.594114
 O 0.9022 0.6775 0.38394   -0.668259
 O 0.8203 0.6252 0.46706   -0.887866
 O 0.5607 0.6372 0.50051   -0.719778
 O 0.3755 0.5859 0.44559   -0.774091
 O 0.7702 0.5554 0.19893   -0.640608
 O 0.6568 0.3868 0.1842   -0.661659
 O 0.8674 0.4794 0.31087   -0.684065
 O 0.7684 0.3049 0.2913   -0.632655
