{'_ref': 'TBD', '_srcid': 'CAKYAQ_clean', 'submitters': [{'name': 'Dalar Nazarian Jeff Camp and David Sholl', 'email': 'dalar@gatech.edu jcamp6@gatech.edu'}], '_method': 'VASP DFT with PBE;DDEC'}
data_Cd2H12C16N11O2
_symmetry_space_group_name_H-M   'P 1'
_cell_length_a   9.42300000
_cell_length_b   18.21999966
_cell_length_c   19.28000000
_cell_angle_alpha   90.00000000
_cell_angle_beta   90.00000000
_cell_angle_gamma   101.33999940
_symmetry_Int_Tables_number   1
_chemical_formula_structural   Cd2H12C16N11O2
_chemical_formula_sum   'Cd8 H48 C64 N44 O8'
_cell_volume   3245.50492614
_cell_formula_units_Z   4
loop_
 _symmetry_equiv_pos_site_id
 _symmetry_equiv_pos_as_xyz
  1  'x, y, z'
loop_
 _atom_site_label
 _atom_site_fract_x
 _atom_site_fract_y
 _atom_site_fract_z
 _atom_site_charge
 Cd 0.08148 0.92373 0.9929   0.430972
 Cd 0.51271 0.02715 0.75684   0.730638
 Cd 0.41852 0.57627 0.4929   0.430972
 Cd 0.98729 0.47285 0.25684   0.730638
 Cd 0.91852 0.07627 0.0071   0.430972
 Cd 0.48729 0.97285 0.24316   0.730638
 Cd 0.58148 0.42373 0.5071   0.430972
 Cd 0.01271 0.52715 0.74316   0.730638
 H 0.3618 0.207 0.2672   0.299911
 H 0.4386 0.1433 0.2604   0.304509
 H 0.1383 0.7843 0.6101   0.132912
 H 0.2133 0.6702 0.8092   0.040371
 H 0.3453 0.1434 0.7193   0.312436
 H 0.2831 0.2125 0.7161   0.307793
 H 0.3463 0.9377 0.0989   0.008847
 H 0.3229 0.7897 0.7957   0.117368
 H 0.0253 0.1906 0.1248   0.014576
 H 0.3109 0.9481 0.8758   0.024167
 H 0.0109 0.208 0.9018   0.024342
 H 0.0351 0.6613 0.632   0.065277
 H 0.1382 0.293 0.7672   0.299912
 H 0.0614 0.3567 0.7604   0.304509
 H 0.3617 0.7157 0.1101   0.132913
 H 0.2867 0.8298 0.3092   0.040371
 H 0.1547 0.3566 0.2193   0.312436
 H 0.2169 0.2875 0.2161   0.307793
 H 0.1537 0.5623 0.5989   0.008847
 H 0.1771 0.7103 0.2957   0.117368
 H 0.4747 0.3094 0.6248   0.014576
 H 0.1891 0.5519 0.3758   0.024167
 H 0.4891 0.292 0.4018   0.024342
 H 0.4649 0.8387 0.132   0.065277
 H 0.6382 0.793 0.7328   0.299911
 H 0.5614 0.8567 0.7396   0.304509
 H 0.8617 0.2157 0.3899   0.132912
 H 0.7867 0.3298 0.1908   0.040371
 H 0.6547 0.8566 0.2807   0.312436
 H 0.7169 0.7875 0.2839   0.307793
 H 0.6537 0.0623 0.9011   0.008847
 H 0.6771 0.2103 0.2043   0.117368
 H 0.9747 0.8094 0.8752   0.014576
 H 0.6891 0.0519 0.1242   0.024167
 H 0.9891 0.792 0.0982   0.024343
 H 0.9649 0.3387 0.368   0.065277
 H 0.8618 0.707 0.2328   0.299911
 H 0.9386 0.6433 0.2396   0.304509
 H 0.6383 0.2843 0.8899   0.132913
 H 0.7133 0.1702 0.6908   0.040372
 H 0.8453 0.6434 0.7807   0.312436
 H 0.7831 0.7125 0.7839   0.307793
 H 0.8463 0.4377 0.4011   0.008847
 H 0.8229 0.2897 0.7043   0.117368
 H 0.5253 0.6906 0.3752   0.014576
 H 0.8109 0.4481 0.6242   0.024167
 H 0.5109 0.708 0.5982   0.024342
 H 0.5351 0.1613 0.868   0.065277
 C 0.3023 0.8826 0.6926   0.63808
 C 0.152 0.7626 0.6526   -0.140133
 C 0.2301 0.8029 0.7037   0.001627
 C 0.197 0.6934 0.7679   0.172278
 C 0.1876 0.0609 0.1056   0.410156
 C 0.2437 0.0935 0.833   -0.108334
 C 0.3109 0.9802 0.1109   0.281126
 C 0.2604 0.7658 0.7617   -0.169773
 C 0.1618 0.0741 0.8928   0.375422
 C 0.2897 0.1406 0.1972   0.503779
 C 0.2853 0.0773 0.1593   -0.136327
 C 0.0953 0.1617 0.1313   0.369462
 C 0.2285 0.1549 0.7997   0.484664
 C 0.2779 0.9928 0.8719   0.286409
 C 0.07 0.1769 0.885   0.370729
 C 0.094 0.6884 0.6658   0.121222
 C 0.1977 0.6174 0.1926   0.63808
 C 0.348 0.7374 0.1526   -0.140133
 C 0.2699 0.6971 0.2037   0.001628
 C 0.303 0.8066 0.2679   0.172278
 C 0.3124 0.4391 0.6056   0.410156
 C 0.2563 0.4065 0.333   -0.108334
 C 0.1891 0.5198 0.6109   0.281126
 C 0.2396 0.7342 0.2617   -0.169773
 C 0.3382 0.4259 0.3928   0.375422
 C 0.2103 0.3594 0.6972   0.503779
 C 0.2147 0.4227 0.6593   -0.136327
 C 0.4047 0.3383 0.6313   0.369462
 C 0.2715 0.3451 0.2997   0.484664
 C 0.2221 0.5072 0.3719   0.286409
 C 0.43 0.3231 0.385   0.370729
 C 0.406 0.8116 0.1658   0.121222
 C 0.6977 0.1174 0.3074   0.63808
 C 0.848 0.2374 0.3474   -0.140133
 C 0.7699 0.1971 0.2963   0.001627
 C 0.803 0.3066 0.2321   0.172278
 C 0.8124 0.9391 0.8944   0.410156
 C 0.7563 0.9065 0.167   -0.108334
 C 0.6891 0.0198 0.8891   0.281126
 C 0.7396 0.2342 0.2383   -0.169773
 C 0.8382 0.9259 0.1072   0.375422
 C 0.7103 0.8594 0.8028   0.503779
 C 0.7147 0.9227 0.8407   -0.136327
 C 0.9047 0.8383 0.8687   0.369462
 C 0.7715 0.8451 0.2003   0.484664
 C 0.7221 0.0072 0.1281   0.286409
 C 0.93 0.8231 0.115   0.370729
 C 0.906 0.3116 0.3342   0.121222
 C 0.8023 0.3826 0.8074   0.63808
 C 0.652 0.2626 0.8474   -0.140133
 C 0.7301 0.3029 0.7963   0.001627
 C 0.697 0.1934 0.7321   0.172278
 C 0.6876 0.5609 0.3944   0.410156
 C 0.7437 0.5935 0.667   -0.108334
 C 0.8109 0.4802 0.3891   0.281126
 C 0.7604 0.2658 0.7383   -0.169773
 C 0.6618 0.5741 0.6072   0.375422
 C 0.7897 0.6406 0.3028   0.503779
 C 0.7853 0.5773 0.3407   -0.136327
 C 0.5953 0.6617 0.3687   0.369462
 C 0.7285 0.6549 0.7003   0.484664
 C 0.7779 0.4928 0.6281   0.286409
 C 0.57 0.6769 0.615   0.370729
 C 0.594 0.1884 0.8342   0.121222
 N 0.3722 0.1664 0.2469   -0.586775
 N 0.1841 0.0104 0.9164   -0.402556
 N 0.3239 0.0408 0.8213   -0.365154
 N 0.1166 0.6533 0.7244   -0.357446
 N 0.2014 0.000500000000002 0.0754   -0.430416
 N 0.0921 0.1045 0.0905   -0.441519
 N 0.1477 0.1995 0.8273   -0.525204
 N 0.1931 0.182 0.1824   -0.535641
 N 0.2936 0.1724 0.7374   -0.643104
 N 0.3633 0.0212 0.161   -0.357763
 N 0.0712 0.1165 0.9186   -0.413502
 N 0.1278 0.3336 0.7469   -0.586775
 N 0.3159 0.4896 0.4164   -0.402556
 N 0.1761 0.4592 0.3213   -0.365154
 N 0.3834 0.8467 0.2244   -0.357446
 N 0.2986 0.4995 0.5754   -0.430416
 N 0.4079 0.3955 0.5905   -0.441519
 N 0.3523 0.3005 0.3273   -0.525204
 N 0.3069 0.318 0.6824   -0.535641
 N 0.2064 0.3276 0.2374   -0.643104
 N 0.1367 0.4788 0.661   -0.357763
 N 0.4288 0.3835 0.4186   -0.413502
 N 0.6278 0.8336 0.7531   -0.586775
 N 0.8159 0.9896 0.0836   -0.402556
 N 0.6761 0.9592 0.1787   -0.365154
 N 0.8834 0.3467 0.2756   -0.357446
 N 0.7986 0.9995 0.9246   -0.430416
 N 0.9079 0.8955 0.9095   -0.441519
 N 0.8523 0.8005 0.1727   -0.525204
 N 0.8069 0.818 0.8176   -0.535641
 N 0.7064 0.8276 0.2626   -0.643104
 N 0.6367 0.9788 0.839   -0.357763
 N 0.9288 0.8835 0.0814   -0.413502
 N 0.8722 0.6664 0.2531   -0.586775
 N 0.6841 0.5104 0.5836   -0.402556
 N 0.8239 0.5408 0.6787   -0.365154
 N 0.6166 0.1533 0.7756   -0.357446
 N 0.7014 0.5005 0.4246   -0.430416
 N 0.5921 0.6045 0.4095   -0.441519
 N 0.6477 0.6995 0.6727   -0.525204
 N 0.6931 0.682 0.3176   -0.535641
 N 0.7936 0.6724 0.7626   -0.643104
 N 0.8633 0.5212 0.339   -0.357763
 N 0.5712 0.6165 0.5814   -0.413502
 O 0.4014 0.9095 0.7334   -0.601324
 O 0.258 0.9173 0.6447   -0.614103
 O 0.0986 0.5905 0.2334   -0.601324
 O 0.242 0.5827 0.1447   -0.614103
 O 0.5986 0.0905 0.2666   -0.601324
 O 0.742 0.0827 0.3553   -0.614103
 O 0.9014 0.4095 0.7666   -0.601324
 O 0.758 0.4173 0.8553   -0.614103
