{'_ref': 'TBD', '_srcid': 'CAKYAQ_clean', 'submitters': [{'name': 'Dalar Nazarian Jeff Camp and David Sholl', 'email': 'dalar@gatech.edu jcamp6@gatech.edu'}], '_method': 'VASP DFT with PBE;DDEC'}
data_Co2H11C15NO8
_symmetry_space_group_name_H-M   'P 1'
_cell_length_a   9.12380007
_cell_length_b   9.62009948
_cell_length_c   12.64750000
_cell_angle_alpha   94.47500231
_cell_angle_beta   104.72199872
_cell_angle_gamma   114.43699846
_symmetry_Int_Tables_number   1
_chemical_formula_structural   Co2H11C15NO8
_chemical_formula_sum   'Co4 H22 C30 N2 O16'
_cell_volume   956.089632767
_cell_formula_units_Z   2
loop_
 _symmetry_equiv_pos_site_id
 _symmetry_equiv_pos_as_xyz
  1  'x, y, z'
loop_
 _atom_site_label
 _atom_site_fract_x
 _atom_site_fract_y
 _atom_site_fract_z
 _atom_site_charge
 Co 0.87208 0.51391 0.70196   1.039627
 Co 0.12792 0.48609 0.29804   1.039626
 Co 0.5 0.5 0.5   1.223912
 Co 0.0 0.0 0.5   0.7744
 H 0.3623 0.8751 0.5978   0.10917
 H 0.7273 0.8817 0.8165   0.100224
 H 0.513 0.7162 0.8648   0.077579
 H 0.4452 0.5877 0.7554   0.099469
 H 0.3971 0.8583 0.7775   0.076855
 H 0.6367 0.973 0.6798   0.115115
 H 0.423 0.1363 0.8348   0.12895
 H 0.9928 0.3941 0.9029   0.082874
 H 0.8948 0.2257 0.014   0.139903
 H 0.5369 0.3064 0.7291   0.089846
 H 0.685 0.033 0.071   0.121554
 H 0.6377 0.1249 0.4022   0.109169
 H 0.2727 0.1183 0.1835   0.100236
 H 0.487 0.2838 0.1352   0.077606
 H 0.5548 0.4123 0.2446   0.099471
 H 0.6029 0.1417 0.2225   0.076857
 H 0.3633 0.027 0.3202   0.115114
 H 0.577 0.8637 0.1652   0.128998
 H 0.0072 0.6059 0.0971   0.082884
 H 0.1052 0.7743 0.986   0.139912
 H 0.4631 0.6936 0.2709   0.089845
 H 0.315 0.967 0.929   0.121593
 C 0.6703 0.8487 0.559   0.703843
 C 0.7395 0.6951 0.7411   0.684114
 C 0.2968 0.6499 0.5244   0.670349
 C 0.3954 0.7937 0.6183   -0.157241
 C 0.6508 0.7933 0.7539   -0.152373
 C 0.4894 0.6985 0.7844   -0.11926
 C 0.3637 0.758 0.7299   -0.132638
 C 0.1812 0.6558 0.7197   0.645656
 C 0.581 0.0413 0.0039   -0.117497
 C 0.5919 0.861 0.651   -0.155952
 C 0.6447 0.155 0.9359   0.137947
 C 0.54 0.1858 0.8497   -0.204308
 C 0.8762 0.3402 0.8887   0.187829
 C 0.8185 0.2385 0.9559   -0.196716
 C 0.6094 0.2891 0.787   0.181499
 C 0.3297 0.1513 0.441   0.703843
 C 0.2605 0.3049 0.2589   0.684115
 C 0.7032 0.3501 0.4756   0.67035
 C 0.6046 0.2063 0.3817   -0.157241
 C 0.3492 0.2067 0.2461   -0.152375
 C 0.5106 0.3015 0.2156   -0.11927
 C 0.6363 0.242 0.2701   -0.132636
 C 0.8188 0.3442 0.2803   0.645657
 C 0.419 0.9587 0.9961   -0.117449
 C 0.4081 0.139 0.349   -0.155951
 C 0.3553 0.845 0.0641   0.137948
 C 0.46 0.8142 0.1503   -0.204321
 C 0.1238 0.6598 0.1113   0.187831
 C 0.1815 0.7615 0.0441   -0.196719
 C 0.3906 0.7109 0.213   0.181504
 N 0.7769 0.3664 0.8052   -0.378869
 N 0.2231 0.6336 0.1948   -0.378869
 O 0.8799 0.7254 0.8078   -0.573346
 O 0.5994 0.7293 0.4814   -0.637955
 O 0.6701 0.5746 0.6612   -0.66935
 O 0.2078 0.659 0.4347   -0.54813
 O 0.3069 0.5256 0.5432   -0.60004
 O 0.8088 0.9624 0.5703   -0.578005
 O 0.0678 0.6832 0.6579   -0.583363
 O 0.1399 0.5484 0.7723   -0.586586
 O 0.1201 0.2746 0.1922   -0.573346
 O 0.4006 0.2707 0.5186   -0.63796
 O 0.3299 0.4254 0.3388   -0.66935
 O 0.7922 0.341 0.5653   -0.548138
 O 0.6931 0.4744 0.4568   -0.600052
 O 0.1912 0.0376 0.4297   -0.578011
 O 0.9322 0.3168 0.3421   -0.583369
 O 0.8601 0.4516 0.2277   -0.586587
