{'_ref': 'TBD', '_srcid': 'CAKYAQ_clean', 'submitters': [{'name': 'Dalar Nazarian Jeff Camp and David Sholl', 'email': 'dalar@gatech.edu jcamp6@gatech.edu'}], '_method': 'VASP DFT with PBE;DDEC'}
data_CdH16C24S(N2O3)2
_symmetry_space_group_name_H-M   'P 1'
_cell_length_a   14.92559974
_cell_length_b   19.54060000
_cell_length_c   20.38740000
_cell_angle_alpha   90.00000000
_cell_angle_beta   94.37899987
_cell_angle_gamma   90.00000000
_symmetry_Int_Tables_number   1
_chemical_formula_structural   CdH16C24S(N2O3)2
_chemical_formula_sum   'Cd8 H128 C192 S8 N32 O48'
_cell_volume   5928.73290032
_cell_formula_units_Z   8
loop_
 _symmetry_equiv_pos_site_id
 _symmetry_equiv_pos_as_xyz
  1  'x, y, z'
loop_
 _atom_site_label
 _atom_site_fract_x
 _atom_site_fract_y
 _atom_site_fract_z
 _atom_site_charge
 Cd 0.37334 0.45283 0.66783   0.977013
 Cd 0.14328 0.54668 0.67247   0.977259
 Cd 0.12666 0.95283 0.33217   0.977013
 Cd 0.35672 0.04668 0.32753   0.977259
 Cd 0.62666 0.54717 0.33217   0.977013
 Cd 0.85672 0.45332 0.32753   0.977259
 Cd 0.87334 0.04717 0.66783   0.977013
 Cd 0.64328 0.95332 0.67247   0.977259
 H 0.3804 0.5206 0.3368   0.301134
 H 0.352 0.4167 0.0011   0.303961
 H 0.1045 0.4811 0.3395   0.299512
 H 0.1697 0.5793 0.01   0.311986
 H 0.3494 0.5591 0.2409   0.109943
 H 0.3663 0.5833 0.1311   0.097565
 H 0.3868 0.3875 0.0907   0.093195
 H 0.3681 0.3605 0.2011   0.103473
 H 0.4012 0.5559 0.5494   0.07074
 H 0.3971 0.5677 0.4394   0.153331
 H 0.326 0.371 0.4213   0.152976
 H 0.3298 0.3666 0.5336   0.081654
 H 0.414 0.5473 0.7947   0.070644
 H 0.4101 0.5532 0.9061   0.144695
 H 0.3215 0.3631 0.9001   0.139365
 H 0.3273 0.362 0.7903   0.086209
 H 0.113 0.6395 0.2052   0.10308
 H 0.1078 0.6134 0.0921   0.099195
 H 0.1185 0.4164 0.1364   0.103898
 H 0.1261 0.4423 0.2477   0.107771
 H 0.1653 0.6348 0.5416   0.080144
 H 0.1634 0.6309 0.4285   0.15511
 H 0.0944 0.4335 0.4414   0.153381
 H 0.098 0.4452 0.5515   0.068978
 H 0.2009 0.6334 0.8018   0.087019
 H 0.1958 0.6341 0.9131   0.141859
 H 0.1027 0.4462 0.9059   0.142366
 H 0.1114 0.4494 0.7936   0.073256
 H 0.2645 0.7182 0.6564   0.12326
 H 0.335 0.8312 0.6511   0.108315
 H 0.2483 0.2824 0.6546   0.122221
 H 0.1781 0.1689 0.6538   0.108265
 H 0.1196 0.0206 0.6632   0.301134
 H 0.148 0.9167 0.9989   0.303961
 H 0.3955 0.9811 0.6605   0.299512
 H 0.3303 0.0793 0.99   0.311986
 H 0.1506 0.0591 0.7591   0.109943
 H 0.1337 0.0833 0.8689   0.097566
 H 0.1132 0.8875 0.9093   0.093195
 H 0.1319 0.8605 0.7989   0.103473
 H 0.0988 0.0559 0.4506   0.07074
 H 0.1029 0.0677 0.5606   0.153331
 H 0.174 0.871 0.5787   0.152976
 H 0.1702 0.8666 0.4664   0.081654
 H 0.086 0.0473 0.2053   0.070644
 H 0.0899 0.0532 0.0939   0.144695
 H 0.1785 0.8631 0.0999   0.139365
 H 0.1727 0.862 0.2097   0.086209
 H 0.387 0.1395 0.7948   0.10308
 H 0.3922 0.1134 0.9079   0.099195
 H 0.3815 0.9164 0.8636   0.103898
 H 0.3739 0.9423 0.7523   0.107771
 H 0.3347 0.1348 0.4584   0.080144
 H 0.3366 0.1309 0.5715   0.15511
 H 0.4056 0.9335 0.5586   0.153381
 H 0.402 0.9452 0.4485   0.068978
 H 0.2991 0.1334 0.1982   0.087019
 H 0.3042 0.1341 0.0869   0.141859
 H 0.3973 0.9462 0.0941   0.142366
 H 0.3886 0.9494 0.2064   0.073256
 H 0.2355 0.2182 0.3436   0.12326
 H 0.165 0.3312 0.3489   0.108315
 H 0.2517 0.7824 0.3454   0.122221
 H 0.3219 0.6689 0.3462   0.108265
 H 0.6196 0.4794 0.6632   0.301134
 H 0.648 0.5833 0.9989   0.303961
 H 0.8955 0.5189 0.6605   0.299512
 H 0.8303 0.4207 0.99   0.311986
 H 0.6506 0.4409 0.7591   0.109943
 H 0.6337 0.4167 0.8689   0.097565
 H 0.6132 0.6125 0.9093   0.093195
 H 0.6319 0.6395 0.7989   0.103473
 H 0.5988 0.4441 0.4506   0.07074
 H 0.6029 0.4323 0.5606   0.153331
 H 0.674 0.629 0.5787   0.152976
 H 0.6702 0.6334 0.4664   0.081654
 H 0.586 0.4527 0.2053   0.070644
 H 0.5899 0.4468 0.0939   0.144695
 H 0.6785 0.6369 0.0999   0.139365
 H 0.6727 0.638 0.2097   0.086209
 H 0.887 0.3605 0.7948   0.10308
 H 0.8922 0.3866 0.9079   0.099195
 H 0.8815 0.5836 0.8636   0.103898
 H 0.8739 0.5577 0.7523   0.107771
 H 0.8347 0.3652 0.4584   0.080144
 H 0.8366 0.3691 0.5715   0.15511
 H 0.9056 0.5665 0.5586   0.153381
 H 0.902 0.5548 0.4485   0.068978
 H 0.7991 0.3666 0.1982   0.087019
 H 0.8042 0.3659 0.0869   0.141859
 H 0.8973 0.5538 0.0941   0.142366
 H 0.8886 0.5506 0.2064   0.073256
 H 0.7355 0.2818 0.3436   0.12326
 H 0.665 0.1688 0.3489   0.108315
 H 0.7517 0.7176 0.3454   0.122221
 H 0.8219 0.8311 0.3462   0.108265
 H 0.8804 0.9794 0.3368   0.301134
 H 0.852 0.0833 0.0011   0.303961
 H 0.6045 0.0189 0.3395   0.299512
 H 0.6697 0.9207 0.01   0.311986
 H 0.8494 0.9409 0.2409   0.109943
 H 0.8663 0.9167 0.1311   0.097566
 H 0.8868 0.1125 0.0907   0.093195
 H 0.8681 0.1395 0.2011   0.103473
 H 0.9012 0.9441 0.5494   0.07074
 H 0.8971 0.9323 0.4394   0.153331
 H 0.826 0.129 0.4213   0.152976
 H 0.8298 0.1334 0.5336   0.081654
 H 0.914 0.9527 0.7947   0.070644
 H 0.9101 0.9468 0.9061   0.144695
 H 0.8215 0.1369 0.9001   0.139365
 H 0.8273 0.138 0.7903   0.086209
 H 0.613 0.8605 0.2052   0.10308
 H 0.6078 0.8866 0.0921   0.099195
 H 0.6185 0.0836 0.1364   0.103898
 H 0.6261 0.0577 0.2477   0.107771
 H 0.6653 0.8652 0.5416   0.080144
 H 0.6634 0.8691 0.4285   0.15511
 H 0.5944 0.0665 0.4414   0.153381
 H 0.598 0.0548 0.5515   0.068978
 H 0.7009 0.8666 0.8018   0.087019
 H 0.6958 0.8659 0.9131   0.141859
 H 0.6027 0.0538 0.9059   0.142366
 H 0.6114 0.0506 0.7936   0.073256
 H 0.7645 0.7818 0.6564   0.12326
 H 0.835 0.6688 0.6511   0.108315
 H 0.7483 0.2176 0.6546   0.122221
 H 0.6781 0.3311 0.6538   0.108265
 C 0.3409 0.4337 0.3007   0.529378
 C 0.3788 0.5067 0.0291   0.553316
 C 0.3566 0.4574 0.2319   -0.086548
 C 0.3558 0.5236 0.2112   -0.056592
 C 0.3648 0.5378 0.1444   -0.034782
 C 0.3713 0.4887 0.0993   -0.1476
 C 0.3767 0.4222 0.1205   -0.085594
 C 0.3672 0.4059 0.1874   -0.052021
 C 0.3843 0.5184 0.5234   0.194447
 C 0.383 0.5257 0.4575   -0.278069
 C 0.3609 0.4707 0.417   0.322799
 C 0.3407 0.4097 0.4463   -0.289057
 C 0.3431 0.408 0.514   0.197227
 C 0.3953 0.5087 0.8165   0.204991
 C 0.3935 0.5129 0.8841   -0.288534
 C 0.3676 0.458 0.9176   0.326884
 C 0.3419 0.4019 0.8795   -0.298476
 C 0.3452 0.4014 0.8132   0.202312
 C 0.1439 0.5664 0.3071   0.523135
 C 0.1163 0.4949 0.0324   0.540131
 C 0.1284 0.5433 0.2366   -0.086829
 C 0.1176 0.5943 0.1915   -0.050109
 C 0.1132 0.5785 0.1232   -0.094694
 C 0.117 0.5119 0.1033   -0.12949
 C 0.1199 0.4619 0.1496   -0.035867
 C 0.125 0.4774 0.2168   -0.058662
 C 0.1517 0.5933 0.5209   0.191713
 C 0.1505 0.5921 0.4524   -0.292068
 C 0.1289 0.53 0.4213   0.320623
 C 0.1096 0.4756 0.4604   -0.282749
 C 0.1127 0.483 0.5268   0.191851
 C 0.1789 0.5949 0.8221   0.196314
 C 0.1763 0.5954 0.8896   -0.296138
 C 0.1452 0.5398 0.9229   0.326612
 C 0.1222 0.4859 0.8863   -0.281322
 C 0.127 0.4885 0.8179   0.202914
 C 0.3711 0.599 0.6691   0.687417
 C 0.9915 0.1548 0.6663   0.667678
 C 0.3862 0.6739 0.6656   -0.223958
 C 0.3263 0.725 0.6592   -0.051764
 C 0.3671 0.7906 0.6573   -0.066403
 C 0.4576 0.7874 0.6654   -0.200403
 C 0.145 0.4002 0.669   0.674155
 C 0.5238 0.8452 0.6705   0.664456
 C 0.1279 0.3266 0.6654   -0.232234
 C 0.1873 0.2754 0.6584   -0.046898
 C 0.1467 0.2097 0.6576   -0.069781
 C 0.0579 0.2132 0.663   -0.200195
 C 0.1591 0.9337 0.6993   0.529378
 C 0.1212 0.0067 0.9709   0.553316
 C 0.1434 0.9574 0.7681   -0.086548
 C 0.1442 0.0236 0.7888   -0.056592
 C 0.1352 0.0378 0.8556   -0.034782
 C 0.1287 0.9887 0.9007   -0.1476
 C 0.1233 0.9222 0.8795   -0.085594
 C 0.1328 0.9059 0.8126   -0.052021
 C 0.1157 0.0184 0.4766   0.194447
 C 0.117 0.0257 0.5425   -0.278069
 C 0.1391 0.9707 0.583   0.322799
 C 0.1593 0.9097 0.5537   -0.289057
 C 0.1569 0.908 0.486   0.197227
 C 0.1047 0.0087 0.1835   0.204991
 C 0.1065 0.0129 0.1159   -0.288534
 C 0.1324 0.958 0.0824   0.326884
 C 0.1581 0.9019 0.1205   -0.298476
 C 0.1548 0.9014 0.1868   0.202312
 C 0.3561 0.0664 0.6929   0.523135
 C 0.3837 0.9949 0.9676   0.540131
 C 0.3716 0.0433 0.7634   -0.086829
 C 0.3824 0.0943 0.8085   -0.050109
 C 0.3868 0.0785 0.8768   -0.094694
 C 0.383 0.0119 0.8967   -0.12949
 C 0.3801 0.9619 0.8504   -0.035867
 C 0.375 0.9774 0.7832   -0.058662
 C 0.3483 0.0933 0.4791   0.191713
 C 0.3495 0.0921 0.5476   -0.292068
 C 0.3711 0.03 0.5787   0.320623
 C 0.3904 0.9756 0.5396   -0.282749
 C 0.3873 0.983 0.4732   0.191851
 C 0.3211 0.0949 0.1779   0.196314
 C 0.3237 0.0954 0.1104   -0.296138
 C 0.3548 0.0398 0.0771   0.326612
 C 0.3778 0.9859 0.1137   -0.281322
 C 0.373 0.9885 0.1821   0.202914
 C 0.1289 0.099 0.3309   0.687417
 C 0.5085 0.6548 0.3337   0.667678
 C 0.1138 0.1739 0.3344   -0.223958
 C 0.1737 0.225 0.3408   -0.051764
 C 0.1329 0.2906 0.3427   -0.066403
 C 0.0424 0.2874 0.3346   -0.200403
 C 0.355 0.9002 0.331   0.674155
 C 0.9762 0.3452 0.3295   0.664456
 C 0.3721 0.8266 0.3346   -0.232234
 C 0.3127 0.7754 0.3416   -0.046898
 C 0.3533 0.7097 0.3424   -0.069781
 C 0.4421 0.7132 0.337   -0.200195
 C 0.6591 0.5663 0.6993   0.529378
 C 0.6212 0.4933 0.9709   0.553316
 C 0.6434 0.5426 0.7681   -0.086548
 C 0.6442 0.4764 0.7888   -0.056592
 C 0.6352 0.4622 0.8556   -0.034782
 C 0.6287 0.5113 0.9007   -0.1476
 C 0.6233 0.5778 0.8795   -0.085594
 C 0.6328 0.5941 0.8126   -0.052021
 C 0.6157 0.4816 0.4766   0.194447
 C 0.617 0.4743 0.5425   -0.278069
 C 0.6391 0.5293 0.583   0.322799
 C 0.6593 0.5903 0.5537   -0.289057
 C 0.6569 0.592 0.486   0.197227
 C 0.6047 0.4913 0.1835   0.204991
 C 0.6065 0.4871 0.1159   -0.288534
 C 0.6324 0.542 0.0824   0.326884
 C 0.6581 0.5981 0.1205   -0.298476
 C 0.6548 0.5986 0.1868   0.202311
 C 0.8561 0.4336 0.6929   0.523135
 C 0.8837 0.5051 0.9676   0.540131
 C 0.8716 0.4567 0.7634   -0.086829
 C 0.8824 0.4057 0.8085   -0.050109
 C 0.8868 0.4215 0.8768   -0.094694
 C 0.883 0.4881 0.8967   -0.12949
 C 0.8801 0.5381 0.8504   -0.035867
 C 0.875 0.5226 0.7832   -0.058662
 C 0.8483 0.4067 0.4791   0.191713
 C 0.8495 0.4079 0.5476   -0.292068
 C 0.8711 0.47 0.5787   0.320623
 C 0.8904 0.5244 0.5396   -0.282749
 C 0.8873 0.517 0.4732   0.191851
 C 0.8211 0.4051 0.1779   0.196314
 C 0.8237 0.4046 0.1104   -0.296138
 C 0.8548 0.4602 0.0771   0.326612
 C 0.8778 0.5141 0.1137   -0.281322
 C 0.873 0.5115 0.1821   0.202914
 C 0.6289 0.401 0.3309   0.687417
 C 0.0085 0.8452 0.3337   0.667678
 C 0.6138 0.3261 0.3344   -0.223958
 C 0.6737 0.275 0.3408   -0.051764
 C 0.6329 0.2094 0.3427   -0.066403
 C 0.5424 0.2126 0.3346   -0.200403
 C 0.855 0.5998 0.331   0.674155
 C 0.4762 0.1548 0.3295   0.664456
 C 0.8721 0.6734 0.3346   -0.232234
 C 0.8127 0.7246 0.3416   -0.046898
 C 0.8533 0.7903 0.3424   -0.069781
 C 0.9421 0.7868 0.337   -0.200195
 C 0.8409 0.0663 0.3007   0.529378
 C 0.8788 0.9933 0.0291   0.553316
 C 0.8566 0.0426 0.2319   -0.086548
 C 0.8558 0.9764 0.2112   -0.056592
 C 0.8648 0.9622 0.1444   -0.034782
 C 0.8713 0.0113 0.0993   -0.1476
 C 0.8767 0.0778 0.1205   -0.085594
 C 0.8672 0.0941 0.1874   -0.052021
 C 0.8843 0.9816 0.5234   0.194447
 C 0.883 0.9743 0.4575   -0.278069
 C 0.8609 0.0293 0.417   0.322799
 C 0.8407 0.0903 0.4463   -0.289057
 C 0.8431 0.092 0.514   0.197227
 C 0.8953 0.9913 0.8165   0.204991
 C 0.8935 0.9871 0.8841   -0.288534
 C 0.8676 0.042 0.9176   0.326884
 C 0.8419 0.0981 0.8795   -0.298476
 C 0.8452 0.0986 0.8132   0.202311
 C 0.6439 0.9336 0.3071   0.523135
 C 0.6163 0.0051 0.0324   0.540131
 C 0.6284 0.9567 0.2366   -0.086829
 C 0.6176 0.9057 0.1915   -0.050109
 C 0.6132 0.9215 0.1232   -0.094694
 C 0.617 0.9881 0.1033   -0.12949
 C 0.6199 0.0381 0.1496   -0.035867
 C 0.625 0.0226 0.2168   -0.058662
 C 0.6517 0.9067 0.5209   0.191713
 C 0.6505 0.9079 0.4524   -0.292068
 C 0.6289 0.97 0.4213   0.320623
 C 0.6096 0.0244 0.4604   -0.282749
 C 0.6127 0.017 0.5268   0.191851
 C 0.6789 0.9051 0.8221   0.196314
 C 0.6763 0.9046 0.8896   -0.296138
 C 0.6452 0.9602 0.9229   0.326612
 C 0.6222 0.0141 0.8863   -0.281322
 C 0.627 0.0115 0.8179   0.202914
 C 0.8711 0.901 0.6691   0.687417
 C 0.4915 0.3452 0.6663   0.667678
 C 0.8862 0.8261 0.6656   -0.223958
 C 0.8263 0.775 0.6592   -0.051764
 C 0.8671 0.7094 0.6573   -0.066403
 C 0.9576 0.7126 0.6654   -0.200403
 C 0.645 0.0998 0.669   0.674155
 C 0.0238 0.6548 0.6705   0.664456
 C 0.6279 0.1734 0.6654   -0.232234
 C 0.6873 0.2246 0.6584   -0.046898
 C 0.6467 0.2903 0.6576   -0.069781
 C 0.5579 0.2868 0.663   -0.200195
 S 0.02116 0.29566 0.66976   0.159534
 S 0.49487 0.70444 0.67159   0.141305
 S 0.47884 0.79566 0.33024   0.159534
 S 0.00513 0.20444 0.32841   0.141305
 S 0.97884 0.70434 0.33024   0.159534
 S 0.50513 0.29556 0.32841   0.141305
 S 0.52116 0.20434 0.66976   0.159534
 S 0.99487 0.79556 0.67159   0.141305
 N 0.3633 0.481 0.3492   -0.40831
 N 0.3628 0.4608 0.5534   -0.378322
 N 0.3646 0.4559 0.985   -0.417086
 N 0.3724 0.4541 0.78   -0.359752
 N 0.1232 0.5205 0.3536   -0.391785
 N 0.1351 0.5406 0.5591   -0.370442
 N 0.1469 0.543 0.9917   -0.428016
 N 0.1523 0.5433 0.7857   -0.351941
 N 0.1367 0.981 0.6508   -0.40831
 N 0.1372 0.9608 0.4466   -0.378322
 N 0.1354 0.9559 0.015   -0.417086
 N 0.1276 0.9541 0.22   -0.359752
 N 0.3768 0.0205 0.6464   -0.391785
 N 0.3649 0.0406 0.4409   -0.370442
 N 0.3531 0.043 0.0083   -0.428016
 N 0.3477 0.0433 0.2143   -0.351941
 N 0.6367 0.519 0.6508   -0.40831
 N 0.6372 0.5392 0.4466   -0.378322
 N 0.6354 0.5441 0.015   -0.417086
 N 0.6276 0.5459 0.22   -0.359752
 N 0.8768 0.4795 0.6464   -0.391785
 N 0.8649 0.4594 0.4409   -0.370442
 N 0.8531 0.457 0.0083   -0.428016
 N 0.8477 0.4567 0.2143   -0.351941
 N 0.8633 0.019 0.3492   -0.40831
 N 0.8628 0.0392 0.5534   -0.378322
 N 0.8646 0.0441 0.985   -0.417086
 N 0.8724 0.0459 0.78   -0.359752
 N 0.6232 0.9795 0.3536   -0.391785
 N 0.6351 0.9594 0.5591   -0.370442
 N 0.6469 0.957 0.9917   -0.428016
 N 0.6523 0.9567 0.7857   -0.351941
 O 0.3064 0.3797 0.31115   -0.464256
 O 0.3979 0.5637 0.0129   -0.504621
 O 0.1751 0.6221 0.3206   -0.470717
 O 0.0919 0.4368 0.0132   -0.513078
 O 0.2218 0.4243 0.6659   -0.628425
 O 0.0761 0.43886 0.6743   -0.602532
 O 0.9105 0.16795 0.6687   -0.604472
 O 0.0211 0.09537 0.66395   -0.612244
 O 0.2926 0.57783 0.6677   -0.637315
 O 0.4382 0.56127 0.673   -0.592389
 O 0.6057 0.83295 0.6733   -0.602093
 O 0.4926 0.90509 0.66777   -0.617325
 O 0.1936 0.8797 0.68885   -0.464256
 O 0.1021 0.0637 0.9871   -0.504621
 O 0.3249 0.1221 0.6794   -0.470717
 O 0.4081 0.9368 0.9868   -0.513078
 O 0.2782 0.9243 0.3341   -0.628425
 O 0.4239 0.93886 0.3257   -0.602532
 O 0.5895 0.66795 0.3313   -0.604472
 O 0.4789 0.59537 0.33605   -0.612244
 O 0.2074 0.07783 0.3323   -0.637315
 O 0.0618 0.06127 0.327   -0.592389
 O 0.8943 0.33295 0.3267   -0.602093
 O 0.0074 0.40509 0.33223   -0.617325
 O 0.6936 0.6203 0.68885   -0.464256
 O 0.6021 0.4363 0.9871   -0.504621
 O 0.8249 0.3779 0.6794   -0.470717
 O 0.9081 0.5632 0.9868   -0.513078
 O 0.7782 0.5757 0.3341   -0.628425
 O 0.9239 0.56114 0.3257   -0.602532
 O 0.0895 0.83205 0.3313   -0.604472
 O 0.9789 0.90463 0.33605   -0.612244
 O 0.7074 0.42217 0.3323   -0.637315
 O 0.5618 0.43873 0.327   -0.592389
 O 0.3943 0.16705 0.3267   -0.602093
 O 0.5074 0.09491 0.33223   -0.617325
 O 0.8064 0.1203 0.31115   -0.464256
 O 0.8979 0.9363 0.0129   -0.504621
 O 0.6751 0.8779 0.3206   -0.470717
 O 0.5919 0.0632 0.0132   -0.513078
 O 0.7218 0.0757 0.6659   -0.628425
 O 0.5761 0.06114 0.6743   -0.602532
 O 0.4105 0.33205 0.6687   -0.604472
 O 0.5211 0.40463 0.66395   -0.612244
 O 0.7926 0.92217 0.6677   -0.637315
 O 0.9382 0.93873 0.673   -0.592389
 O 0.1057 0.66705 0.6733   -0.602093
 O 0.9926 0.59491 0.66777   -0.617325
