{'_ref': 'TBD', '_srcid': 'CAKYAQ_clean', 'submitters': [{'name': 'Dalar Nazarian Jeff Camp and David Sholl', 'email': 'dalar@gatech.edu jcamp6@gatech.edu'}], '_method': 'VASP DFT with PBE;DDEC'}
data_ZnH2(CO2)2
_symmetry_space_group_name_H-M   'P 1'
_cell_length_a   9.66820000
_cell_length_b   11.21510003
_cell_length_c   14.43620000
_cell_angle_alpha   91.25890107
_cell_angle_beta   90.00000000
_cell_angle_gamma   90.00000000
_symmetry_Int_Tables_number   1
_chemical_formula_structural   ZnH2(CO2)2
_chemical_formula_sum   'Zn12 H24 C24 O48'
_cell_volume   1564.93688766
_cell_formula_units_Z   12
loop_
 _symmetry_equiv_pos_site_id
 _symmetry_equiv_pos_as_xyz
  1  'x, y, z'
loop_
 _atom_site_label
 _atom_site_fract_x
 _atom_site_fract_y
 _atom_site_fract_z
 _atom_site_charge
 Zn 0.91715 0.75658 0.13099   1.083916
 Zn 0.09961 0.73933 0.31541   1.068902
 Zn 0.41715 0.74342 0.36901   1.083916
 Zn 0.59961 0.76067 0.18459   1.068902
 Zn 0.08285 0.24342 0.86901   1.083916
 Zn 0.90039 0.26067 0.68459   1.068902
 Zn 0.58285 0.25658 0.63099   1.083916
 Zn 0.40039 0.23933 0.81541   1.068902
 Zn 0.0 0.5 0.0   1.073965
 Zn 0.5 0.0 0.5   1.073965
 Zn 0.0 0.0 0.0   1.083143
 Zn 0.5 0.5 0.5   1.083143
 H 0.7437 0.8673 0.3642   -0.00466
 H 0.0194 0.4717 0.2682   0.014055
 H 0.6106 0.5636 0.0339   0.008445
 H 0.1842 0.9847 0.2373   0.005136
 H 0.1808 0.6966 0.9386   0.012691
 H 0.6965 0.9939 0.0059   0.012467
 H 0.2437 0.6327 0.1358   -0.00466
 H 0.5194 0.0283 0.2318   0.014055
 H 0.1106 0.9364 0.4661   0.008445
 H 0.6842 0.5153 0.2627   0.005136
 H 0.6808 0.8034 0.5614   0.012691
 H 0.1965 0.5061 0.4941   0.012467
 H 0.2563 0.1327 0.6358   -0.00466
 H 0.9806 0.5283 0.7318   0.014055
 H 0.3894 0.4364 0.9661   0.008446
 H 0.8158 0.0153 0.7627   0.005136
 H 0.8192 0.3034 0.0614   0.012691
 H 0.3035 0.0061 0.9941   0.012467
 H 0.7563 0.3673 0.8642   -0.00466
 H 0.4806 0.9717 0.7682   0.014055
 H 0.8894 0.0636 0.5339   0.008446
 H 0.3158 0.4847 0.7373   0.005136
 H 0.3192 0.1966 0.4386   0.012691
 H 0.8035 0.4939 0.5059   0.012467
 C 0.8177 0.8357 0.328   0.68563
 C 0.0023 0.5146 0.2134   0.671279
 C 0.7062 0.5787 0.0436   0.67521
 C 0.1259 0.956 0.1888   0.672606
 C 0.1155 0.7418 0.9738   0.687396
 C 0.7131 0.9313 0.0477   0.682337
 C 0.3177 0.6643 0.172   0.68563
 C 0.5023 0.9854 0.2866   0.671279
 C 0.2062 0.9213 0.4564   0.67521
 C 0.6259 0.544 0.3112   0.672606
 C 0.6155 0.7582 0.5262   0.687396
 C 0.2131 0.5687 0.4523   0.682337
 C 0.1823 0.1643 0.672   0.68563
 C 0.9977 0.4854 0.7866   0.671279
 C 0.2938 0.4213 0.9564   0.67521
 C 0.8741 0.044 0.8112   0.672606
 C 0.8845 0.2582 0.0262   0.687395
 C 0.2869 0.0687 0.9523   0.682337
 C 0.6823 0.3357 0.828   0.68563
 C 0.4977 0.0146 0.7134   0.671279
 C 0.7938 0.0787 0.5436   0.67521
 C 0.3741 0.456 0.6888   0.672606
 C 0.3845 0.2418 0.4738   0.687395
 C 0.7869 0.4313 0.5477   0.682337
 O 0.7927 0.81421 0.24281   -0.642017
 O 0.9295 0.81942 0.36892   -0.586055
 O 0.9949 0.62772 0.22192   -0.650945
 O 0.9895 0.45506 0.14096   -0.581353
 O 0.7373 0.65293 0.10843   -0.650495
 O 0.788 0.52449 0.99219   -0.566593
 O 0.0797 0.84933 0.19593   -0.657817
 O 0.1024 0.02475 0.12555   -0.566776
 O 0.0308 0.68339 0.02539   -0.656994
 O 0.1187 0.85055 0.96655   -0.574628
 O 0.8391 0.89754 0.05714   -0.642226
 O 0.6111 0.88986 0.08786   -0.578064
 O 0.2927 0.68579 0.25719   -0.642017
 O 0.4295 0.68058 0.13108   -0.586054
 O 0.4949 0.87228 0.27808   -0.650945
 O 0.4895 0.04494 0.35904   -0.581353
 O 0.2373 0.84707 0.39157   -0.650495
 O 0.288 0.97551 0.50781   -0.566593
 O 0.5797 0.65067 0.30407   -0.657817
 O 0.6024 0.47525 0.37445   -0.566776
 O 0.5308 0.81661 0.47461   -0.656994
 O 0.6187 0.64945 0.53345   -0.574628
 O 0.3391 0.60246 0.44286   -0.642226
 O 0.1111 0.61014 0.41214   -0.578064
 O 0.2073 0.18579 0.75719   -0.642017
 O 0.0705 0.18058 0.63108   -0.586055
 O 0.0051 0.37228 0.77808   -0.650945
 O 0.0105 0.54494 0.85904   -0.581354
 O 0.2627 0.34707 0.89157   -0.650494
 O 0.212 0.47551 0.00781   -0.566593
 O 0.9203 0.15067 0.80407   -0.657817
 O 0.8976 0.97525 0.87445   -0.566776
 O 0.9692 0.31661 0.97461   -0.656994
 O 0.8813 0.14945 0.03345   -0.574628
 O 0.1609 0.10246 0.94286   -0.642226
 O 0.3889 0.11014 0.91214   -0.578064
 O 0.7073 0.31421 0.74281   -0.642017
 O 0.5705 0.31942 0.86892   -0.586054
 O 0.5051 0.12772 0.72192   -0.650945
 O 0.5105 0.95506 0.64096   -0.581353
 O 0.7627 0.15293 0.60843   -0.650494
 O 0.712 0.02449 0.49219   -0.566593
 O 0.4203 0.34933 0.69593   -0.657817
 O 0.3976 0.52475 0.62555   -0.566776
 O 0.4692 0.18339 0.52539   -0.656994
 O 0.3813 0.35055 0.46655   -0.574628
 O 0.6609 0.39754 0.55714   -0.642226
 O 0.8889 0.38986 0.58786   -0.578064
