{'_ref': 'TBD', '_srcid': 'CAKYAQ_clean', 'submitters': [{'name': 'Dalar Nazarian Jeff Camp and David Sholl', 'email': 'dalar@gatech.edu jcamp6@gatech.edu'}], '_method': 'VASP DFT with PBE;DDEC'}
data_CuH26C32(N2O5)2
_symmetry_space_group_name_H-M   'P 1'
_cell_length_a   15.31070006
_cell_length_b   16.72840002
_cell_length_c   17.78807533
_cell_angle_alpha   118.04811655
_cell_angle_beta   115.49015576
_cell_angle_gamma   90.00009874
_symmetry_Int_Tables_number   1
_chemical_formula_structural   CuH26C32(N2O5)2
_chemical_formula_sum   'Cu4 H104 C128 N16 O40'
_cell_volume   3510.42194003
_cell_formula_units_Z   4
loop_
 _symmetry_equiv_pos_site_id
 _symmetry_equiv_pos_as_xyz
  1  'x, y, z'
loop_
 _atom_site_label
 _atom_site_fract_x
 _atom_site_fract_y
 _atom_site_fract_z
 _atom_site_charge
 Cu 0.5 0.5 0.5   0.867033
 Cu 0.0 0.5 0.5   0.868338
 Cu 0.0 0.0 0.5   0.866887
 Cu 0.5 0.0 0.5   0.867727
 H 0.5237 0.612 0.4166   0.088739
 H 0.438 0.6978 0.3522   0.150861
 H 0.216 0.6392 0.399   0.152437
 H 0.3063 0.5541 0.4612   0.084148
 H 0.303 0.7724 0.3222   0.113482
 H 0.2295 0.7713 0.3644   0.101841
 H 0.1137 0.4933 0.939   0.125059
 H 0.5478 0.6174 0.7998   0.108685
 H 0.5477 0.7074 0.9468   0.104015
 H 0.6838 0.6762 0.7386   0.050173
 H 0.7522 0.6165 0.699   0.035509
 H 0.7649 0.7235 0.7276   0.057445
 H 0.6254 0.5783 0.5696   0.247641
 H 0.8929 0.3046 0.4166   0.088477
 H 0.9142 0.1544 0.3522   0.150412
 H 0.183 0.2598 0.399   0.153536
 H 0.1549 0.4071 0.4612   0.084097
 H 0.0192 0.0498 0.3222   0.113713
 H 0.1349 0.0931 0.3644   0.100877
 H 0.8253 0.9457 0.939   0.125635
 H 0.252 0.6824 0.7998   0.10894
 H 0.3991 0.7394 0.9468   0.102429
 H 0.0548 0.5624 0.7386   0.04879
 H 0.9468 0.5825 0.699   0.03474
 H 0.9627 0.5041 0.7276   0.057651
 H 0.9442 0.4913 0.5696   0.24673
 H 0.4763 0.388 0.5834   0.088739
 H 0.562 0.3022 0.6478   0.150861
 H 0.784 0.3608 0.601   0.152437
 H 0.6937 0.4459 0.5388   0.084148
 H 0.697 0.2276 0.6778   0.113482
 H 0.7705 0.2287 0.6356   0.101841
 H 0.8863 0.5067 0.061   0.125059
 H 0.4522 0.3826 0.2002   0.108685
 H 0.4523 0.2926 0.0532   0.104015
 H 0.3162 0.3238 0.2614   0.050173
 H 0.2478 0.3835 0.301   0.035509
 H 0.2351 0.2765 0.2724   0.057444
 H 0.3746 0.4217 0.4304   0.247641
 H 0.1071 0.6954 0.5834   0.088477
 H 0.0858 0.8456 0.6478   0.150412
 H 0.817 0.7402 0.601   0.153536
 H 0.8451 0.5929 0.5388   0.084096
 H 0.9808 0.9502 0.6778   0.113713
 H 0.8651 0.9069 0.6356   0.100877
 H 0.1747 0.0543 0.061   0.125635
 H 0.748 0.3176 0.2002   0.10894
 H 0.6009 0.2606 0.0532   0.102429
 H 0.9452 0.4376 0.2614   0.04879
 H 0.0532 0.4175 0.301   0.034739
 H 0.0373 0.4959 0.2724   0.057651
 H 0.0558 0.5087 0.4304   0.24673
 H 0.9763 0.1954 0.5834   0.088878
 H 0.062 0.3456 0.6478   0.150181
 H 0.284 0.2402 0.601   0.153976
 H 0.1937 0.0929 0.5388   0.083724
 H 0.197 0.4502 0.6778   0.113044
 H 0.2705 0.4069 0.6356   0.101658
 H 0.3863 0.5543 0.061   0.125533
 H 0.9522 0.8176 0.2002   0.108282
 H 0.9523 0.7606 0.0532   0.103763
 H 0.8162 0.9376 0.2614   0.050156
 H 0.7478 0.9175 0.301   0.035427
 H 0.7351 0.9959 0.2724   0.057219
 H 0.8746 0.0087 0.4304   0.248431
 H 0.6071 0.888 0.5834   0.088608
 H 0.5858 0.8022 0.6478   0.150303
 H 0.317 0.8608 0.601   0.153296
 H 0.3451 0.9459 0.5388   0.083654
 H 0.4808 0.7276 0.6778   0.113254
 H 0.3651 0.7287 0.6356   0.100643
 H 0.6747 0.0067 0.061   0.125638
 H 0.248 0.8826 0.2002   0.108881
 H 0.1009 0.7926 0.0532   0.102569
 H 0.4452 0.8238 0.2614   0.048423
 H 0.5532 0.8835 0.301   0.035131
 H 0.5373 0.7765 0.2724   0.057583
 H 0.5558 0.9217 0.4304   0.247753
 H 0.0237 0.8046 0.4166   0.088878
 H 0.938 0.6544 0.3522   0.150181
 H 0.716 0.7598 0.399   0.153976
 H 0.8063 0.9071 0.4612   0.083724
 H 0.803 0.5498 0.3222   0.113044
 H 0.7295 0.5931 0.3644   0.101658
 H 0.6137 0.4457 0.939   0.125533
 H 0.0478 0.1824 0.7998   0.108282
 H 0.0477 0.2394 0.9468   0.103763
 H 0.1838 0.0624 0.7386   0.050156
 H 0.2522 0.0825 0.699   0.035427
 H 0.2649 0.0041 0.7276   0.057219
 H 0.1254 0.9913 0.5696   0.248431
 H 0.3929 0.112 0.4166   0.088608
 H 0.4142 0.1978 0.3522   0.150303
 H 0.683 0.1392 0.399   0.153296
 H 0.6549 0.0541 0.4612   0.083653
 H 0.5192 0.2724 0.3222   0.113254
 H 0.6349 0.2713 0.3644   0.100643
 H 0.3253 0.9933 0.939   0.125638
 H 0.752 0.1174 0.7998   0.108881
 H 0.8991 0.2074 0.9468   0.102569
 H 0.5548 0.1762 0.7386   0.048423
 H 0.4468 0.1165 0.699   0.035131
 H 0.4627 0.2235 0.7276   0.057583
 H 0.4442 0.0783 0.5696   0.247753
 C 0.46027 0.61727 0.41254   0.188292
 C 0.40958 0.66878 0.37416   -0.205535
 C 0.31718 0.67788 0.36796   0.120205
 C 0.27892 0.63412 0.40164   -0.212884
 C 0.33326 0.58366 0.43872   0.164713
 C 0.25821 0.73131 0.32382   -0.043391
 C 0.19184 0.62444 0.14368   0.486691
 C 0.08111 0.63041 0.20182   0.475555
 C 0.09421 0.55621 0.05982   -0.097131
 C 0.06864 0.49604 0.96328   0.003551
 C 0.97218 0.44028 0.90516   -0.09644
 C 0.40031 0.53241 0.61702   0.623112
 C 0.39996 0.59476 0.71092   -0.087223
 C 0.48717 0.63017 0.79934   -0.072553
 C 0.48737 0.68377 0.88674   -0.104988
 C 0.7168 0.6655 0.6994   0.056911
 C 0.95227 0.29527 0.41254   0.189003
 C 0.96458 0.20538 0.37416   -0.204958
 C 0.05078 0.19008 0.36796   0.12139
 C 0.12272 0.26752 0.40164   -0.215233
 C 0.10546 0.35506 0.43872   0.165858
 C 0.06561 0.09251 0.32382   -0.04344
 C 0.95184 0.01924 0.14368   0.486464
 C 0.12071 0.07141 0.20182   0.475793
 C 0.96561 0.00361 0.05982   -0.095831
 C 0.89464 0.96724 0.96328   0.000513
 C 0.93298 0.96488 0.90516   -0.095518
 C 0.21671 0.58461 0.61702   0.620491
 C 0.31096 0.61616 0.71092   -0.08413
 C 0.31217 0.66917 0.79934   -0.073755
 C 0.39937 0.70297 0.88674   -0.103472
 C 0.9826 0.5339 0.6994   0.059052
 C 0.53973 0.38273 0.58746   0.188292
 C 0.59042 0.33122 0.62584   -0.205535
 C 0.68282 0.32212 0.63204   0.120205
 C 0.72108 0.36588 0.59836   -0.212885
 C 0.66674 0.41634 0.56128   0.164713
 C 0.74179 0.26869 0.67618   -0.043391
 C 0.80816 0.37556 0.85632   0.486691
 C 0.91889 0.36959 0.79818   0.475555
 C 0.90579 0.44379 0.94018   -0.097129
 C 0.93136 0.50396 0.03672   0.003551
 C 0.02782 0.55972 0.09484   -0.096439
 C 0.59969 0.46759 0.38298   0.623112
 C 0.60004 0.40524 0.28908   -0.087223
 C 0.51283 0.36983 0.20066   -0.072553
 C 0.51263 0.31623 0.11326   -0.104988
 C 0.2832 0.3345 0.3006   0.056911
 C 0.04773 0.70473 0.58746   0.189003
 C 0.03542 0.79462 0.62584   -0.204958
 C 0.94922 0.80992 0.63204   0.12139
 C 0.87728 0.73248 0.59836   -0.215234
 C 0.89454 0.64494 0.56128   0.165858
 C 0.93439 0.90749 0.67618   -0.04344
 C 0.04816 0.98076 0.85632   0.486464
 C 0.87929 0.92859 0.79818   0.475793
 C 0.03439 0.99639 0.94018   -0.095829
 C 0.10536 0.03276 0.03672   0.000513
 C 0.06702 0.03512 0.09484   -0.095517
 C 0.78329 0.41539 0.38298   0.620491
 C 0.68904 0.38384 0.28908   -0.08413
 C 0.68783 0.33083 0.20066   -0.073755
 C 0.60063 0.29703 0.11326   -0.103472
 C 0.0174 0.4661 0.3006   0.059052
 C 0.03973 0.20473 0.58746   0.188616
 C 0.09042 0.29462 0.62584   -0.204779
 C 0.18282 0.30992 0.63204   0.119933
 C 0.22108 0.23248 0.59836   -0.214896
 C 0.16674 0.14494 0.56128   0.166171
 C 0.24179 0.40749 0.67618   -0.041943
 C 0.30816 0.48076 0.85632   0.486893
 C 0.41889 0.42859 0.79818   0.475642
 C 0.40579 0.49639 0.94018   -0.09634
 C 0.43136 0.53276 0.03672   0.001819
 C 0.52782 0.53512 0.09484   -0.095798
 C 0.09969 0.91539 0.38298   0.621784
 C 0.10004 0.88384 0.28908   -0.086288
 C 0.01283 0.83083 0.20066   -0.072786
 C 0.01263 0.79703 0.11326   -0.104866
 C 0.7832 0.9661 0.3006   0.057144
 C 0.54773 0.88273 0.58746   0.188497
 C 0.53542 0.83122 0.62584   -0.204991
 C 0.44922 0.82212 0.63204   0.120986
 C 0.37728 0.86588 0.59836   -0.215144
 C 0.39454 0.91634 0.56128   0.166199
 C 0.43439 0.76869 0.67618   -0.04209
 C 0.54816 0.87556 0.85632   0.486726
 C 0.37929 0.86959 0.79818   0.475147
 C 0.53439 0.94379 0.94018   -0.095931
 C 0.60536 0.00396 0.03672   0.00073
 C 0.56702 0.05972 0.09484   -0.095633
 C 0.28329 0.96759 0.38298   0.620873
 C 0.18904 0.90524 0.28908   -0.083738
 C 0.18783 0.86983 0.20066   -0.074433
 C 0.10063 0.81623 0.11326   -0.103361
 C 0.5174 0.8345 0.3006   0.059358
 C 0.96027 0.79527 0.41254   0.188616
 C 0.90958 0.70538 0.37416   -0.204779
 C 0.81718 0.69008 0.36796   0.119933
 C 0.77892 0.76752 0.40164   -0.214896
 C 0.83326 0.85506 0.43872   0.166171
 C 0.75821 0.59251 0.32382   -0.041943
 C 0.69184 0.51924 0.14368   0.486893
 C 0.58111 0.57141 0.20182   0.475642
 C 0.59421 0.50361 0.05982   -0.096339
 C 0.56864 0.46724 0.96328   0.001819
 C 0.47218 0.46488 0.90516   -0.095798
 C 0.90031 0.08461 0.61702   0.621784
 C 0.89996 0.11616 0.71092   -0.086288
 C 0.98717 0.16917 0.79934   -0.072786
 C 0.98737 0.20297 0.88674   -0.104866
 C 0.2168 0.0339 0.6994   0.057144
 C 0.45227 0.11727 0.41254   0.188497
 C 0.46458 0.16878 0.37416   -0.204991
 C 0.55078 0.17788 0.36796   0.120986
 C 0.62272 0.13412 0.40164   -0.215144
 C 0.60546 0.08366 0.43872   0.166199
 C 0.56561 0.23131 0.32382   -0.04209
 C 0.45184 0.12444 0.14368   0.486725
 C 0.62071 0.13041 0.20182   0.475147
 C 0.46561 0.05621 0.05982   -0.095929
 C 0.39464 0.99604 0.96328   0.00073
 C 0.43298 0.94028 0.90516   -0.095632
 C 0.71671 0.03241 0.61702   0.620873
 C 0.81096 0.09476 0.71092   -0.083738
 C 0.81217 0.13017 0.79934   -0.074433
 C 0.89937 0.18377 0.88674   -0.103361
 C 0.4826 0.1655 0.6994   0.059358
 N 0.42337 0.57407 0.44474   -0.348689
 N 0.17766 0.66606 0.22472   -0.228472
 N 0.02137 0.37067 0.44474   -0.350086
 N 0.04706 0.05866 0.22472   -0.226761
 N 0.57663 0.42593 0.55526   -0.348689
 N 0.82234 0.33394 0.77528   -0.228472
 N 0.97863 0.62933 0.55526   -0.350086
 N 0.95294 0.94134 0.77528   -0.226761
 N 0.07663 0.12933 0.55526   -0.349696
 N 0.32234 0.44134 0.77528   -0.2291
 N 0.47863 0.92593 0.55526   -0.349256
 N 0.45294 0.83394 0.77528   -0.227525
 N 0.92337 0.87067 0.44474   -0.349696
 N 0.67766 0.55866 0.22472   -0.2291
 N 0.52137 0.07407 0.44474   -0.349256
 N 0.54706 0.16606 0.22472   -0.227525
 O 0.26912 0.64152 0.14404   -0.439514
 O 0.05097 0.65327 0.25974   -0.413058
 O 0.4725 0.56045 0.6098   -0.592546
 O 0.33371 0.4571 0.55464   -0.540126
 O 0.64468 0.63708 0.60336   -0.491015
 O 0.87492 0.00252 0.14404   -0.439596
 O 0.20877 0.10647 0.25974   -0.413746
 O 0.1373 0.54935 0.6098   -0.591983
 O 0.22093 0.59754 0.55464   -0.538916
 O 0.95868 0.46628 0.60336   -0.490532
 O 0.73088 0.35848 0.85596   -0.439514
 O 0.94903 0.34673 0.74026   -0.413058
 O 0.5275 0.43955 0.3902   -0.592546
 O 0.66629 0.5429 0.44536   -0.540126
 O 0.35532 0.36292 0.39664   -0.491015
 O 0.12508 0.99748 0.85596   -0.439596
 O 0.79123 0.89353 0.74026   -0.413746
 O 0.8627 0.45065 0.3902   -0.591983
 O 0.77907 0.40246 0.44536   -0.538917
 O 0.04132 0.53372 0.39664   -0.490532
 O 0.23088 0.49748 0.85596   -0.439619
 O 0.44903 0.39353 0.74026   -0.413029
 O 0.0275 0.95065 0.3902   -0.592089
 O 0.16629 0.90246 0.44536   -0.53931
 O 0.85532 0.03372 0.39664   -0.491759
 O 0.62508 0.85848 0.85596   -0.439545
 O 0.29123 0.84673 0.74026   -0.413057
 O 0.3627 0.93955 0.3902   -0.591621
 O 0.27907 0.0429 0.44536   -0.539246
 O 0.54132 0.86292 0.39664   -0.491785
 O 0.76912 0.50252 0.14404   -0.439619
 O 0.55097 0.60647 0.25974   -0.413029
 O 0.9725 0.04935 0.6098   -0.592089
 O 0.83371 0.09754 0.55464   -0.53931
 O 0.14468 0.96628 0.60336   -0.491759
 O 0.37492 0.14152 0.14404   -0.439545
 O 0.70877 0.15327 0.25974   -0.413057
 O 0.6373 0.06045 0.6098   -0.591621
 O 0.72093 0.9571 0.55464   -0.539246
 O 0.45868 0.13708 0.60336   -0.491785
