{'_ref': 'TBD', '_srcid': 'CAKYAQ_clean', 'submitters': [{'name': 'Dalar Nazarian Jeff Camp and David Sholl', 'email': 'dalar@gatech.edu jcamp6@gatech.edu'}], '_method': 'VASP DFT with PBE;DDEC'}
data_Ce2CoH8C24(NO2)8
_symmetry_space_group_name_H-M   'P 1'
_cell_length_a   6.20350000
_cell_length_b   12.04449970
_cell_length_c   22.73730000
_cell_angle_alpha   90.00000000
_cell_angle_beta   90.00000000
_cell_angle_gamma   91.66899913
_symmetry_Int_Tables_number   1
_chemical_formula_structural   Ce2CoH8C24(NO2)8
_chemical_formula_sum   'Ce4 Co2 H16 C48 N16 O32'
_cell_volume   1698.16607921
_cell_formula_units_Z   2
loop_
 _symmetry_equiv_pos_site_id
 _symmetry_equiv_pos_as_xyz
  1  'x, y, z'
loop_
 _atom_site_label
 _atom_site_fract_x
 _atom_site_fract_y
 _atom_site_fract_z
 _atom_site_charge
 Ce 0.44066 0.93666 0.85339   2.181997
 Ce 0.05934 0.56334 0.35339   2.181997
 Ce 0.55934 0.06334 0.14661   2.18199
 Ce 0.94066 0.43666 0.64661   2.18199
 Co 0.0 0.5 0.0   0.95138
 Co 0.5 0.0 0.5   0.95138
 H 0.0548 0.6018 0.7859   0.082735
 H 0.5283 0.4217 0.8196   0.084322
 H 0.9162 0.7415 0.8428   0.100533
 H 0.8123 0.3882 0.881   0.109687
 H 0.4452 0.8982 0.2859   0.082735
 H 0.9717 0.0783 0.3196   0.084322
 H 0.5838 0.7585 0.3428   0.100533
 H 0.6877 0.1118 0.381   0.109687
 H 0.9452 0.3982 0.2141   0.082735
 H 0.4717 0.5783 0.1804   0.084322
 H 0.0838 0.2585 0.1572   0.100533
 H 0.1877 0.6118 0.119   0.109687
 H 0.5548 0.1018 0.7141   0.082735
 H 0.0283 0.9217 0.6804   0.084322
 H 0.4162 0.2415 0.6572   0.100533
 H 0.3123 0.8882 0.619   0.109687
 C 0.4632 0.5378 0.6867   0.734584
 C 0.9167 0.6262 0.7783   0.153015
 C 0.5988 0.6133 0.72736   0.097889
 C 0.6577 0.6514 0.0066   0.622933
 C 0.6096 0.5856 0.95073   0.017776
 C 0.3301 0.7697 0.7366   0.638696
 C 0.2619 0.6835 0.9257   0.738278
 C 0.5284 0.7074 0.75531   0.116792
 C 0.5454 0.4647 0.8534   0.131549
 C 0.4367 0.6019 0.9133   0.067467
 C 0.8366 0.7134 0.8112   0.162478
 C 0.7181 0.4443 0.8901   0.098239
 C 0.0368 0.9622 0.1867   0.734584
 C 0.5833 0.8738 0.2783   0.153015
 C 0.9012 0.8867 0.22736   0.097889
 C 0.8423 0.8486 0.5066   0.622933
 C 0.8904 0.9144 0.45073   0.017776
 C 0.1699 0.7303 0.2366   0.638696
 C 0.2381 0.8165 0.4257   0.738278
 C 0.9716 0.7926 0.25531   0.116792
 C 0.9546 0.0353 0.3534   0.131549
 C 0.0633 0.8981 0.4133   0.067467
 C 0.6634 0.7866 0.3112   0.162478
 C 0.7819 0.0557 0.3901   0.098239
 C 0.5368 0.4622 0.3133   0.734584
 C 0.0833 0.3738 0.2217   0.153015
 C 0.4012 0.3867 0.27264   0.097889
 C 0.3423 0.3486 0.9934   0.622932
 C 0.3904 0.4144 0.04927   0.017775
 C 0.6699 0.2303 0.2634   0.638696
 C 0.7381 0.3165 0.0743   0.738278
 C 0.4716 0.2926 0.24469   0.116792
 C 0.4546 0.5353 0.1466   0.13155
 C 0.5633 0.3981 0.0867   0.067467
 C 0.1634 0.2866 0.1888   0.162478
 C 0.2819 0.5557 0.1099   0.098239
 C 0.9632 0.0378 0.8133   0.734584
 C 0.4167 0.1262 0.7217   0.153015
 C 0.0988 0.1133 0.77264   0.097889
 C 0.1577 0.1514 0.4934   0.622932
 C 0.1096 0.0856 0.54927   0.017775
 C 0.8301 0.2697 0.7634   0.638696
 C 0.7619 0.1835 0.5743   0.738278
 C 0.0284 0.2074 0.74469   0.116792
 C 0.0454 0.9647 0.6466   0.13155
 C 0.9367 0.1019 0.5867   0.067467
 C 0.3366 0.2134 0.6888   0.162478
 C 0.2181 0.9443 0.6099   0.098239
 N 0.8001 0.5771 0.73611   -0.415599
 N 0.7493 0.5048 0.93863   -0.271326
 N 0.647 0.7576 0.79809   -0.440721
 N 0.4042 0.5421 0.86382   -0.330088
 N 0.6999 0.9229 0.23611   -0.415599
 N 0.7507 0.9952 0.43863   -0.271326
 N 0.853 0.7424 0.29809   -0.440721
 N 0.0958 0.9579 0.36382   -0.330088
 N 0.1999 0.4229 0.26389   -0.415599
 N 0.2507 0.4952 0.06137   -0.271326
 N 0.353 0.2424 0.20191   -0.440721
 N 0.5958 0.4579 0.13618   -0.330088
 N 0.3001 0.0771 0.76389   -0.415599
 N 0.2493 0.0048 0.56137   -0.271326
 N 0.147 0.2576 0.70191   -0.440721
 N 0.9042 0.0421 0.63618   -0.330088
 O 0.5639 0.4991 0.64303   -0.728288
 O 0.2714 0.515 0.69961   -0.68968
 O 0.7994 0.6116 0.04002   -0.568629
 O 0.1111 0.6519 0.95844   -0.539113
 O 0.2645 0.8412 0.77175   -0.700293
 O 0.5572 0.7379 0.01396   -0.618045
 O 0.2712 0.7748 0.8995   -0.779806
 O 0.259 0.7485 0.68752   -0.533069
 O 0.9361 0.000900000000001 0.14303   -0.728288
 O 0.2286 0.985 0.19961   -0.68968
 O 0.7006 0.8884 0.54002   -0.568629
 O 0.3889 0.8481 0.45844   -0.539113
 O 0.2355 0.6588 0.27175   -0.700293
 O 0.9428 0.7621 0.51396   -0.618045
 O 0.2288 0.7252 0.3995   -0.779806
 O 0.241 0.7515 0.18752   -0.533069
 O 0.4361 0.5009 0.35697   -0.728289
 O 0.7286 0.485 0.30039   -0.68968
 O 0.2006 0.3884 0.95998   -0.568629
 O 0.8889 0.3481 0.04156   -0.539113
 O 0.7355 0.1588 0.22825   -0.700293
 O 0.4428 0.2621 0.98604   -0.618045
 O 0.7288 0.2252 0.1005   -0.779806
 O 0.741 0.2515 0.31248   -0.533069
 O 0.0639 0.9991 0.85697   -0.728289
 O 0.7714 0.015 0.80039   -0.68968
 O 0.2994 0.1116 0.45998   -0.568629
 O 0.6111 0.1519 0.54156   -0.539113
 O 0.7645 0.3412 0.72825   -0.700293
 O 0.0572 0.2379 0.48604   -0.618045
 O 0.7712 0.2748 0.6005   -0.779806
 O 0.759 0.2485 0.81248   -0.533069
