{'_ref': 'TBD', '_srcid': 'CAKYAQ_clean', 'submitters': [{'name': 'Dalar Nazarian Jeff Camp and David Sholl', 'email': 'dalar@gatech.edu jcamp6@gatech.edu'}], '_method': 'VASP DFT with PBE;DDEC'}
data_Cu7H12(C8O11)2
_symmetry_space_group_name_H-M   'P 1'
_cell_length_a   10.16630000
_cell_length_b   10.56370000
_cell_length_c   14.26040011
_cell_angle_alpha   91.80299881
_cell_angle_beta   90.00000000
_cell_angle_gamma   90.00000000
_symmetry_Int_Tables_number   1
_chemical_formula_structural   Cu7H12(C8O11)2
_chemical_formula_sum   'Cu14 H24 C32 O44'
_cell_volume   1530.71953727
_cell_formula_units_Z   2
loop_
 _symmetry_equiv_pos_site_id
 _symmetry_equiv_pos_as_xyz
  1  'x, y, z'
loop_
 _atom_site_label
 _atom_site_fract_x
 _atom_site_fract_y
 _atom_site_fract_z
 _atom_site_charge
 Cu 0.84576 0.23643 0.000979999999998   0.834803
 Cu 0.50224 0.47432 0.89868   0.635938
 Cu 0.34576 0.26357 0.99902   0.834805
 Cu 0.00224 0.02568 0.10132   0.635939
 Cu 0.15424 0.76357 0.99902   0.834803
 Cu 0.49776 0.52568 0.10132   0.635939
 Cu 0.65424 0.73643 0.000979999999998   0.834805
 Cu 0.99776 0.97432 0.89868   0.63594
 Cu 0.0 0.5 0.5   1.001316
 Cu 0.5 0.0 0.5   1.001316
 Cu 0.0 0.0 0.5   0.983801
 Cu 0.5 0.5 0.5   0.983802
 Cu 0.0 0.5 0.0   0.854311
 Cu 0.5 0.0 0.0   0.854311
 H 0.876 0.349 0.686   0.126956
 H 0.065 0.193 0.739   0.133356
 H 0.237 0.289 0.682   0.130036
 H 0.175 0.539 0.719   0.110478
 H 0.831 0.019 0.996   0.405458
 H 0.819 0.42 0.065   0.436299
 H 0.376 0.151 0.314   0.126956
 H 0.565 0.307 0.261   0.133356
 H 0.737 0.211 0.318   0.130036
 H 0.675 0.961 0.281   0.110478
 H 0.331 0.481 0.004   0.405458
 H 0.319 0.08 0.935   0.436299
 H 0.124 0.651 0.314   0.126956
 H 0.935 0.807 0.261   0.133356
 H 0.763 0.711 0.318   0.130037
 H 0.825 0.461 0.281   0.110479
 H 0.169 0.981 0.004   0.405458
 H 0.181 0.58 0.935   0.436299
 H 0.624 0.849 0.686   0.126956
 H 0.435 0.693 0.739   0.133356
 H 0.263 0.789 0.682   0.130037
 H 0.325 0.039 0.719   0.110479
 H 0.669 0.519 0.996   0.405458
 H 0.681 0.92 0.065   0.436299
 C 0.9725 0.3359 0.66703   0.045543
 C 0.0578 0.2797 0.74402   -0.180595
 C 0.1923 0.3385 0.72372   -0.17536
 C 0.1618 0.4631 0.67577   0.055313
 C 0.9822 0.259 0.57448   0.633989
 C 0.9996 0.3201 0.83943   0.685715
 C 0.2825 0.3531 0.80878   0.688446
 C 0.2437 0.4825 0.58662   0.62064
 C 0.4725 0.1641 0.33297   0.045543
 C 0.5578 0.2203 0.25598   -0.180595
 C 0.6923 0.1615 0.27628   -0.17536
 C 0.6618 0.0369 0.32423   0.055313
 C 0.4822 0.241 0.42552   0.633989
 C 0.4996 0.1799 0.16057   0.685715
 C 0.7825 0.1469 0.19122   0.688446
 C 0.7437 0.0175 0.41338   0.62064
 C 0.0275 0.6641 0.33297   0.045543
 C 0.9422 0.7203 0.25598   -0.180595
 C 0.8077 0.6615 0.27628   -0.17536
 C 0.8382 0.5369 0.32423   0.055313
 C 0.0178 0.741 0.42552   0.633989
 C 0.000399999999999 0.6799 0.16057   0.685715
 C 0.7175 0.6469 0.19122   0.688446
 C 0.7563 0.5175 0.41338   0.62064
 C 0.5275 0.8359 0.66703   0.045543
 C 0.4422 0.7797 0.74402   -0.180595
 C 0.3077 0.8385 0.72372   -0.17536
 C 0.3382 0.9631 0.67577   0.055313
 C 0.5178 0.759 0.57448   0.633989
 C 0.5004 0.8201 0.83943   0.685715
 C 0.2175 0.8531 0.80878   0.688446
 C 0.2563 0.9825 0.58662   0.62064
 O 0.02175 0.46267 0.65634   -0.331474
 O 0.01536 0.3132 0.50084   -0.557881
 O 0.95555 0.144 0.58129   -0.560193
 O 0.92538 0.23954 0.87536   -0.596217
 O 0.02636 0.42901 0.8709   -0.56008
 O 0.2726 0.26964 0.86919   -0.58683
 O 0.36102 0.44555 0.80984   -0.546121
 O 0.36329 0.4641 0.59443   -0.535024
 O 0.18788 0.5194 0.51302   -0.578009
 O 0.88367 0.05254 0.99391   -0.867572
 O 0.83338 0.41882 0.01864   -0.887331
 O 0.52175 0.03733 0.34366   -0.331474
 O 0.51536 0.1868 0.49916   -0.557881
 O 0.45555 0.356 0.41871   -0.560193
 O 0.42538 0.26046 0.12464   -0.596217
 O 0.52636 0.07099 0.1291   -0.56008
 O 0.7726 0.23036 0.13081   -0.58683
 O 0.86102 0.05445 0.19016   -0.546121
 O 0.86329 0.0359 0.40557   -0.535024
 O 0.68788 0.9806 0.48698   -0.578009
 O 0.38367 0.44746 0.00609   -0.867572
 O 0.33338 0.08118 0.98136   -0.887331
 O 0.97825 0.53733 0.34366   -0.331474
 O 0.98464 0.6868 0.49916   -0.557881
 O 0.04445 0.856 0.41871   -0.560194
 O 0.07462 0.76046 0.12464   -0.596217
 O 0.97364 0.57099 0.1291   -0.56008
 O 0.7274 0.73036 0.13081   -0.58683
 O 0.63898 0.55445 0.19016   -0.546121
 O 0.63671 0.5359 0.40557   -0.535024
 O 0.81212 0.4806 0.48698   -0.578009
 O 0.11633 0.94746 0.00609   -0.867572
 O 0.16662 0.58118 0.98136   -0.887331
 O 0.47825 0.96267 0.65634   -0.331474
 O 0.48464 0.8132 0.50084   -0.557881
 O 0.54445 0.644 0.58129   -0.560194
 O 0.57462 0.73954 0.87536   -0.596217
 O 0.47364 0.92901 0.8709   -0.56008
 O 0.2274 0.76964 0.86919   -0.58683
 O 0.13898 0.94555 0.80984   -0.546121
 O 0.13671 0.9641 0.59443   -0.535024
 O 0.31212 0.0194 0.51302   -0.578009
 O 0.61633 0.55254 0.99391   -0.867572
 O 0.66662 0.91882 0.01864   -0.887331
