{'_ref': 'TBD', '_srcid': 'CAKYAQ_clean', 'submitters': [{'name': 'Dalar Nazarian Jeff Camp and David Sholl', 'email': 'dalar@gatech.edu jcamp6@gatech.edu'}], '_method': 'VASP DFT with PBE;DDEC'}
data_Na6DyH24C40S8N8ClO36
_symmetry_space_group_name_H-M   'P 1'
_cell_length_a   12.21300000
_cell_length_b   12.21300000
_cell_length_c   12.34500000
_cell_angle_alpha   90.00000000
_cell_angle_beta   90.00000000
_cell_angle_gamma   90.00000000
_symmetry_Int_Tables_number   1
_chemical_formula_structural   Na6DyH24C40S8N8ClO36
_chemical_formula_sum   'Na6 Dy1 H24 C40 S8 N8 Cl1 O36'
_cell_volume   1841.3477203
_cell_formula_units_Z   1
loop_
 _symmetry_equiv_pos_site_id
 _symmetry_equiv_pos_as_xyz
  1  'x, y, z'
loop_
 _atom_site_label
 _atom_site_fract_x
 _atom_site_fract_y
 _atom_site_fract_z
 _atom_site_charge
 Na 0.2795 0.4717 0.5046   0.909948
 Na 0.7205 0.5283 0.5046   0.909948
 Na 0.4717 0.7205 0.4954   0.909949
 Na 0.5283 0.2795 0.4954   0.909949
 Na 0.5 0.0 0.5121   0.935318
 Na 0.0 0.5 0.4879   0.935318
 Dy 0.0 0.0 0.0   2.224052
 H 0.2794 0.1048 0.1234   0.1431
 H 0.3504 0.1186 0.2949   0.116337
 H 0.0582 0.2239 0.4012   0.137571
 H 0.9792 0.3905 0.2661   0.123087
 H 0.6748 0.3323 0.1614   0.143872
 H 0.7252 0.1552 0.1195   0.148199
 H 0.7206 0.8952 0.1234   0.1431
 H 0.6496 0.8814 0.2949   0.116337
 H 0.9418 0.7761 0.4012   0.137571
 H 0.0208 0.6095 0.2661   0.123087
 H 0.3252 0.6677 0.1614   0.143873
 H 0.2748 0.8448 0.1195   0.148199
 H 0.1048 0.7206 0.8766   0.1431
 H 0.1186 0.6496 0.7051   0.116337
 H 0.2239 0.9418 0.5988   0.137571
 H 0.3905 0.0208 0.7339   0.123087
 H 0.3323 0.3252 0.8386   0.143874
 H 0.1552 0.2748 0.8805   0.148199
 H 0.8952 0.2794 0.8766   0.1431
 H 0.8814 0.3504 0.7051   0.116337
 H 0.7761 0.0582 0.5988   0.137571
 H 0.6095 0.9792 0.7339   0.123087
 H 0.6677 0.6748 0.8386   0.143875
 H 0.8448 0.7252 0.8805   0.148199
 C 0.2356 0.1304 0.1796   -0.014405
 C 0.2776 0.1367 0.2821   -0.024119
 C 0.211 0.1703 0.3664   -0.144947
 C 0.1036 0.2002 0.3455   -0.036113
 C 0.0651 0.1942 0.2401   0.076128
 C 0.9555 0.2358 0.2125   0.05848
 C 0.927 0.3431 0.2377   -0.045165
 C 0.8211 0.3794 0.2207   -0.16488
 C 0.7458 0.3086 0.1752   -0.040267
 C 0.776 0.2026 0.1503   -0.012705
 C 0.7644 0.8696 0.1796   -0.014405
 C 0.7224 0.8633 0.2821   -0.024119
 C 0.789 0.8297 0.3664   -0.144946
 C 0.8964 0.7998 0.3455   -0.036114
 C 0.9349 0.8058 0.2401   0.076128
 C 0.0445 0.7642 0.2125   0.05848
 C 0.073 0.6569 0.2377   -0.045165
 C 0.1789 0.6206 0.2207   -0.16488
 C 0.2542 0.6914 0.1752   -0.040268
 C 0.224 0.7974 0.1503   -0.012706
 C 0.1304 0.7644 0.8204   -0.014404
 C 0.1367 0.7224 0.7179   -0.024119
 C 0.1703 0.789 0.6336   -0.144946
 C 0.2002 0.8964 0.6545   -0.036114
 C 0.1942 0.9349 0.7599   0.076128
 C 0.2358 0.0445 0.7875   0.05848
 C 0.3431 0.073 0.7623   -0.045165
 C 0.3794 0.1789 0.7793   -0.16488
 C 0.3086 0.2542 0.8248   -0.040268
 C 0.2026 0.224 0.8497   -0.012705
 C 0.8696 0.2356 0.8204   -0.014405
 C 0.8633 0.2776 0.7179   -0.024119
 C 0.8297 0.211 0.6336   -0.144946
 C 0.7998 0.1036 0.6545   -0.036114
 C 0.8058 0.0651 0.7599   0.076128
 C 0.7642 0.9555 0.7875   0.05848
 C 0.6569 0.927 0.7623   -0.045165
 C 0.6206 0.8211 0.7793   -0.16488
 C 0.6914 0.7458 0.8248   -0.040268
 C 0.7974 0.776 0.8497   -0.012705
 S 0.2652 0.18292 0.49998   1.367676
 S 0.78663 0.51534 0.25906   1.329139
 S 0.7348 0.81708 0.49998   1.367676
 S 0.21337 0.48466 0.25906   1.329139
 S 0.18292 0.7348 0.50002   1.367676
 S 0.51534 0.21337 0.74094   1.329139
 S 0.81708 0.2652 0.50002   1.367676
 S 0.48466 0.78663 0.74094   1.329139
 N 0.1326 0.1604 0.1591   0.359839
 N 0.8781 0.1675 0.17   0.35393
 N 0.8674 0.8396 0.1591   0.35984
 N 0.1219 0.8325 0.17   0.35393
 N 0.1604 0.8674 0.8409   0.359839
 N 0.1675 0.1219 0.83   0.35393
 N 0.8396 0.1326 0.8409   0.359839
 N 0.8325 0.8781 0.83   0.35393
 Cl 0.5 0.5 0.5   -0.563975
 O 0.0949 0.1547 0.0583   -0.660243
 O 0.9037 0.0645 0.1526   -0.617774
 O 0.3305 0.0848 0.5136   -0.715341
 O 0.3315 0.2823 0.4974   -0.79703
 O 0.173 0.1911 0.5724   -0.5761
 O 0.8572 0.5412 0.3488   -0.742338
 O 0.8065 0.5826 0.1658   -0.595982
 O 0.673 0.5097 0.2915   -0.616232
 O 0.5835 0.1169 0.3824   -0.346344
 O 0.9051 0.8453 0.0583   -0.660243
 O 0.0963 0.9355 0.1526   -0.617774
 O 0.6695 0.9152 0.5136   -0.715341
 O 0.6685 0.7177 0.4974   -0.79703
 O 0.827 0.8089 0.5724   -0.5761
 O 0.1428 0.4588 0.3488   -0.742338
 O 0.1935 0.4174 0.1658   -0.595982
 O 0.327 0.4903 0.2915   -0.616231
 O 0.4165 0.8831 0.3824   -0.346344
 O 0.1547 0.9051 0.9417   -0.660243
 O 0.0645 0.0963 0.8474   -0.617775
 O 0.0848 0.6695 0.4864   -0.715341
 O 0.2823 0.6685 0.5026   -0.79703
 O 0.1911 0.827 0.4276   -0.576102
 O 0.5412 0.1428 0.6512   -0.742338
 O 0.5826 0.1935 0.8342   -0.595982
 O 0.5097 0.327 0.7085   -0.616232
 O 0.1169 0.4165 0.6176   -0.346346
 O 0.8453 0.0949 0.9417   -0.660243
 O 0.9355 0.9037 0.8474   -0.617774
 O 0.9152 0.3305 0.4864   -0.715341
 O 0.7177 0.3315 0.5026   -0.79703
 O 0.8089 0.173 0.4276   -0.576102
 O 0.4588 0.8572 0.6512   -0.742338
 O 0.4174 0.8065 0.8342   -0.595982
 O 0.4903 0.673 0.7085   -0.616231
 O 0.8831 0.5835 0.6176   -0.346346
