{'_ref': 'TBD', '_srcid': 'CAKYAQ_clean', 'submitters': [{'name': 'Dalar Nazarian Jeff Camp and David Sholl', 'email': 'dalar@gatech.edu jcamp6@gatech.edu'}], '_method': 'VASP DFT with PBE;DDEC'}
data_Zn7H16C32(N9O8)2
_symmetry_space_group_name_H-M   'P 1'
_cell_length_a   14.20360032
_cell_length_b   14.46010010
_cell_length_c   18.07238768
_cell_angle_alpha   88.19771863
_cell_angle_beta   66.86099143
_cell_angle_gamma   60.58510230
_symmetry_Int_Tables_number   1
_chemical_formula_structural   Zn7H16C32(N9O8)2
_chemical_formula_sum   'Zn14 H32 C64 N36 O32'
_cell_volume   2912.10399308
_cell_formula_units_Z   2
loop_
 _symmetry_equiv_pos_site_id
 _symmetry_equiv_pos_as_xyz
  1  'x, y, z'
loop_
 _atom_site_label
 _atom_site_fract_x
 _atom_site_fract_y
 _atom_site_fract_z
 _atom_site_charge
 Zn 0.39316 0.00816 0.36492   0.927948
 Zn 0.80227 0.20428 0.5765   0.9789
 Zn 0.78456 0.58403 0.40527   0.930281
 Zn 0.26624 0.49184 0.13508   0.927759
 Zn 0.08305 0.29572 0.9235   0.978954
 Zn 0.27386 0.91597 0.09473   0.930103
 Zn 0.60684 0.99184 0.63508   0.927948
 Zn 0.19773 0.79572 0.4235   0.9789
 Zn 0.21544 0.41597 0.59473   0.930282
 Zn 0.73376 0.50816 0.86492   0.927759
 Zn 0.91695 0.70428 0.0765   0.978954
 Zn 0.72614 0.08403 0.90527   0.930105
 Zn 0.0 0.5 0.5   0.502913
 Zn 0.5 0.0 0.0   0.505599
 H 0.9501 0.3089 0.5625   0.089248
 H 0.2143 0.4617 0.3195   0.099701
 H 0.9902 0.5639 0.2225   0.088427
 H 0.3799 0.1631 0.4923   0.089726
 H 0.2863 0.5969 0.5221   0.100502
 H 0.9948 0.1526 0.7452   0.10295
 H 0.382 0.9657 0.5407   0.098293
 H 0.1677 0.2462 0.3862   0.096721
 H 0.3215 0.1911 0.9375   0.088428
 H 0.4955 0.0383 0.1805   0.098519
 H 0.2766 0.9361 0.2775   0.088455
 H 0.5353 0.3369 0.0077   0.090561
 H 0.9053 0.9031 0.9779   0.10018
 H 0.3926 0.3474 0.7548   0.103776
 H 0.3884 0.5343 0.9593   0.09879
 H 0.3001 0.2538 0.1138   0.094965
 H 0.0499 0.6911 0.4375   0.089248
 H 0.7857 0.5383 0.6805   0.099701
 H 0.0098 0.4361 0.7775   0.088427
 H 0.6201 0.8369 0.5077   0.089726
 H 0.7137 0.4031 0.4779   0.100501
 H 0.0052 0.8474 0.2548   0.10295
 H 0.618 0.0343 0.4593   0.098293
 H 0.8323 0.7538 0.6138   0.096721
 H 0.6785 0.8089 0.0625   0.088428
 H 0.5045 0.9617 0.8195   0.098519
 H 0.7234 0.0639 0.7225   0.088455
 H 0.4647 0.6631 0.9923   0.090561
 H 0.0947 0.0969 0.0221   0.10018
 H 0.6074 0.6526 0.2452   0.103776
 H 0.6116 0.4657 0.0407   0.09879
 H 0.6999 0.7462 0.8862   0.094965
 C 0.901 0.3468 0.5368   0.238541
 C 0.991 0.0708 0.6224   0.689817
 C 0.2131 0.0035 0.5699   -0.146231
 C 0.3839 0.0366 0.6714   0.673196
 C 0.1447 0.4873 0.3125   0.235404
 C 0.0234 0.5427 0.2597   0.315845
 C 0.3183 0.2034 0.4768   0.300762
 C 0.2808 0.0543 0.6565   -0.099677
 C 0.2267 0.6026 0.509   0.291141
 C 0.2413 0.9359 0.4949   0.712735
 C 0.1224 0.1743 0.8009   0.670704
 C 0.0735 0.1132 0.7046   -0.086065
 C 0.1619 0.1106 0.7192   -0.057659
 C 0.3042 0.002 0.5824   -0.067166
 C 0.2027 0.249 0.4194   0.243134
 C 0.0958 0.0598 0.632   -0.041689
 C 0.2846 0.1532 0.9632   0.239978
 C 0.1842 0.4292 0.8776   0.692794
 C 0.2865 0.4965 0.9301   -0.144601
 C 0.5919 0.4634 0.8286   0.67512
 C 0.4445 0.0127 0.1875   0.238799
 C 0.3258 0.9573 0.2403   0.315413
 C 0.4985 0.2966 0.0232   0.300797
 C 0.4916 0.4457 0.8435   -0.102769
 C 0.8383 0.8974 0.991   0.292055
 C 0.1721 0.5641 0.0051   0.710771
 C 0.5976 0.3257 0.6991   0.669881
 C 0.3913 0.3868 0.7954   -0.08819
 C 0.4917 0.3894 0.7808   -0.054587
 C 0.3886 0.498 0.9176   -0.067594
 C 0.3711 0.251 0.0806   0.245552
 C 0.2876 0.4402 0.868   -0.042852
 C 0.099 0.6532 0.4632   0.238538
 C 0.009 0.9292 0.3776   0.689817
 C 0.7869 0.9965 0.4301   -0.146231
 C 0.6161 0.9634 0.3286   0.673196
 C 0.8553 0.5127 0.6875   0.235404
 C 0.9766 0.4573 0.7403   0.315845
 C 0.6817 0.7966 0.5232   0.300762
 C 0.7192 0.9457 0.3435   -0.099677
 C 0.7733 0.3974 0.491   0.291139
 C 0.7587 0.0641 0.5051   0.712735
 C 0.8776 0.8257 0.1991   0.670704
 C 0.9265 0.8868 0.2954   -0.086066
 C 0.8381 0.8894 0.2808   -0.057659
 C 0.6958 0.998 0.4176   -0.067167
 C 0.7973 0.751 0.5806   0.243134
 C 0.9042 0.9402 0.368   -0.041689
 C 0.7154 0.8468 0.0368   0.239975
 C 0.8158 0.5708 0.1224   0.692794
 C 0.7135 0.5035 0.0699   -0.144601
 C 0.4081 0.5366 0.1714   0.67512
 C 0.5555 0.9873 0.8125   0.2388
 C 0.6742 0.0427 0.7597   0.315413
 C 0.5015 0.7034 0.9768   0.300797
 C 0.5084 0.5543 0.1565   -0.102769
 C 0.1617 0.1026 0.009   0.292052
 C 0.8279 0.4359 0.9949   0.710771
 C 0.4024 0.6743 0.3009   0.669881
 C 0.6087 0.6132 0.2046   -0.08819
 C 0.5083 0.6106 0.2192   -0.054587
 C 0.6114 0.502 0.0824   -0.067594
 C 0.6289 0.749 0.9194   0.245552
 C 0.7124 0.5598 0.132   -0.042852
 N 0.0434 0.5047 0.3707   -0.193702
 N 0.96381 0.54058 0.3366   -0.332492
 N 0.18221 0.53918 0.5282   -0.356997
 N 0.8231 0.3248 0.531   -0.395727
 N 0.2996 0.1619 0.4219   -0.456756
 N 0.1377 0.5103 0.2415   -0.445824
 N 0.2391 0.3077 0.5059   -0.338081
 N 0.90063 0.42804 0.5021   -0.169721
 N 0.1631 0.3376 0.4682   -0.171045
 N 0.4188 0.9953 0.1293   -0.194174
 N 0.34099 0.95942 0.1634   -0.334081
 N 0.74959 0.96082 0.9718   -0.358054
 N 0.1789 0.1752 0.969   -0.396248
 N 0.3834 0.3381 0.0781   -0.4583
 N 0.3895 0.9897 0.2585   -0.446022
 N 0.5527 0.1923 0.9941   -0.335332
 N 0.33077 0.07196 0.9979   -0.170054
 N 0.4689 0.1624 0.0318   -0.173946
 N 0.9566 0.4953 0.6293   -0.193702
 N 0.03619 0.45942 0.6634   -0.332492
 N 0.81779 0.46082 0.4718   -0.35698
 N 0.1769 0.6752 0.469   -0.395727
 N 0.7004 0.8381 0.5781   -0.456756
 N 0.8623 0.4897 0.7585   -0.445824
 N 0.7609 0.6923 0.4941   -0.338081
 N 0.09937 0.57196 0.4979   -0.169704
 N 0.8369 0.6624 0.5318   -0.171045
 N 0.5812 0.0047 0.8707   -0.194174
 N 0.65901 0.04058 0.8366   -0.334082
 N 0.25041 0.03918 0.0282   -0.358037
 N 0.8211 0.8248 0.031   -0.396248
 N 0.6166 0.6619 0.9219   -0.4583
 N 0.6105 0.0103 0.7415   -0.446022
 N 0.4473 0.8077 0.0059   -0.335331
 N 0.66923 0.92804 0.0021   -0.170036
 N 0.5311 0.8376 0.9682   -0.173946
 O 0.1577 0.237 0.8012   -0.609614
 O 0.96829 0.12002 0.568   -0.605698
 O 0.0551 0.1645 0.8649   -0.630392
 O 0.68383 0.07154 0.5748   -0.60918
 O 0.18905 0.8844 0.5077   -0.560616
 O 0.398 0.9975 0.7295   -0.584908
 O 0.5413 0.9412 0.3822   -0.645979
 O 0.9272 0.0394 0.6716   -0.620262
 O 0.6959 0.263 0.6988   -0.609049
 O 0.15631 0.37998 0.932   -0.606856
 O 0.5845 0.3355 0.6351   -0.630789
 O 0.83017 0.42846 0.9252   -0.608139
 O 0.08115 0.6156 0.9923   -0.559475
 O 0.625 0.5025 0.7705   -0.585295
 O 0.3647 0.5588 0.1178   -0.646526
 O 0.1382 0.4606 0.8284   -0.621496
 O 0.8423 0.763 0.1988   -0.609614
 O 0.03171 0.87998 0.432   -0.605698
 O 0.9449 0.8355 0.1351   -0.630392
 O 0.31617 0.92846 0.4252   -0.60918
 O 0.81095 0.1156 0.4923   -0.560616
 O 0.602 0.0025 0.2705   -0.584908
 O 0.4587 0.0588 0.6178   -0.645979
 O 0.0728 0.9606 0.3284   -0.620262
 O 0.3041 0.737 0.3012   -0.609049
 O 0.84369 0.62002 0.068   -0.606855
 O 0.4155 0.6645 0.3649   -0.630789
 O 0.16983 0.57154 0.0748   -0.608139
 O 0.91885 0.3844 0.0077   -0.559475
 O 0.375 0.4975 0.2295   -0.585295
 O 0.6353 0.4412 0.8822   -0.646526
 O 0.8618 0.5394 0.1716   -0.621496
