{'_ref': 'TBD', '_srcid': 'CAKYAQ_clean', 'submitters': [{'name': 'Dalar Nazarian Jeff Camp and David Sholl', 'email': 'dalar@gatech.edu jcamp6@gatech.edu'}], '_method': 'VASP DFT with PBE;DDEC'}
data_Cu7H12C16(ClO11)2
_symmetry_space_group_name_H-M   'P 1'
_cell_length_a   10.06010000
_cell_length_b   10.25370000
_cell_length_c   14.18510015
_cell_angle_alpha   92.26199985
_cell_angle_beta   90.00000000
_cell_angle_gamma   90.00000000
_symmetry_Int_Tables_number   1
_chemical_formula_structural   Cu7H12C16(ClO11)2
_chemical_formula_sum   'Cu14 H24 C32 Cl4 O44'
_cell_volume   1462.09897643
_cell_formula_units_Z   2
loop_
 _symmetry_equiv_pos_site_id
 _symmetry_equiv_pos_as_xyz
  1  'x, y, z'
loop_
 _atom_site_label
 _atom_site_fract_x
 _atom_site_fract_y
 _atom_site_fract_z
 _atom_site_charge
 Cu 0.2491 0.92567 0.28527   1.008929
 Cu 0.23157 0.93177 0.78866   0.995809
 Cu 0.87774 0.70152 0.77066   1.017042
 Cu 0.40681 0.6563 0.78158   1.024488
 Cu 0.28124 0.40819 0.6643   0.957405
 Cu 0.26459 0.44017 0.87612   0.970741
 Cu 0.2572 0.43799 0.28736   1.021074
 Cu 0.7509 0.42567 0.28527   1.008929
 Cu 0.76843 0.43177 0.78866   0.995809
 Cu 0.12226 0.20152 0.77066   1.017042
 Cu 0.59319 0.1563 0.78158   1.024488
 Cu 0.71876 0.90819 0.6643   0.957405
 Cu 0.73541 0.94017 0.87612   0.970741
 Cu 0.7428 0.93799 0.28736   1.021074
 H 0.359 0.769 0.495   0.119644
 H 0.181 0.621 0.521   0.118545
 H 0.003 0.712 0.454   0.134952
 H 0.065 0.969 0.505   0.113926
 H 0.131 0.082 0.094   0.12881
 H 0.314 0.254 0.054   0.142123
 H 0.501 0.135 0.095   0.124692
 H 0.433 0.891 0.079   0.105132
 H 0.025 0.022 0.845   0.319847
 H 0.926 0.936 0.764   0.42012
 H 0.411 0.858 0.8704   0.417726
 H 0.474 0.422 0.774   0.419591
 H 0.641 0.269 0.495   0.119644
 H 0.819 0.121 0.521   0.118545
 H 0.997 0.212 0.454   0.134952
 H 0.935 0.469 0.505   0.113926
 H 0.869 0.582 0.094   0.12881
 H 0.686 0.754 0.054   0.142122
 H 0.499 0.635 0.095   0.124689
 H 0.567 0.391 0.079   0.105129
 H 0.975 0.522 0.845   0.319847
 H 0.074 0.436 0.764   0.42012
 H 0.589 0.358 0.8704   0.417728
 H 0.526 0.922 0.774   0.419594
 C 0.2746 0.7685 0.462   0.066899
 C 0.176 0.7064 0.5318   -0.174962
 C 0.0443 0.7659 0.502   -0.186823
 C 0.0803 0.8971 0.4597   0.065627
 C 0.2845 0.6834 0.3717   0.60564
 C 0.2185 0.7428 0.6321   0.699477
 C 0.942 0.7782 0.5813   0.69771
 C 0.0016 0.9193 0.369   0.611336
 C 0.219 0.098 0.117   0.072176
 C 0.3097 0.1588 0.0419   -0.204728
 C 0.4458 0.0912 0.0609   -0.149279
 C 0.4097 0.9672 0.1108   0.073985
 C 0.2261 0.1778 0.2107   0.621206
 C 0.2582 0.1247 0.943   0.725828
 C 0.5299 0.0675 0.9741   0.673461
 C 0.4913 0.9503 0.201   0.594549
 C 0.7254 0.2685 0.462   0.066899
 C 0.824 0.2064 0.5318   -0.174962
 C 0.9557 0.2659 0.502   -0.186823
 C 0.9197 0.3971 0.4597   0.065628
 C 0.7155 0.1834 0.3717   0.605638
 C 0.7815 0.2428 0.6321   0.699477
 C 0.058 0.2782 0.5813   0.697709
 C 0.9984 0.4193 0.369   0.611334
 C 0.781 0.598 0.117   0.072176
 C 0.6903 0.6588 0.0419   -0.204728
 C 0.5542 0.5912 0.0609   -0.149278
 C 0.5903 0.4672 0.1108   0.073986
 C 0.7739 0.6778 0.2107   0.621204
 C 0.7418 0.6247 0.943   0.725828
 C 0.4701 0.5675 0.9741   0.673461
 C 0.5087 0.4503 0.201   0.594547
 Cl 0.10602 0.52243 0.9702   -0.492931
 Cl 0.62553 0.65256 0.69028   -0.635684
 Cl 0.89398 0.02243 0.9702   -0.492929
 Cl 0.37447 0.15256 0.69028   -0.635684
 O 0.2222 0.8952 0.4439   -0.317397
 O 0.2433 0.7283 0.2954   -0.575555
 O 0.3266 0.5686 0.38087   -0.52856
 O 0.2776 0.6523 0.67535   -0.654246
 O 0.1976 0.8563 0.6627   -0.532869
 O 0.9538 0.6963 0.64452   -0.55392
 O 0.854 0.8646 0.57437   -0.564532
 O 0.8788 0.9188 0.3799   -0.539947
 O 0.0595 0.9392 0.2926   -0.548909
 O 0.0673 0.0243 0.7833   -0.837827
 O 0.8456 0.8875 0.7687   -0.905249
 O 0.2692 0.9689 0.12857   -0.319403
 O 0.2586 0.123 0.2846   -0.563131
 O 0.1997 0.2972 0.20316   -0.543345
 O 0.2118 0.2152 0.89595   -0.633787
 O 0.2679 0.0072 0.91592   -0.583237
 O 0.5304 0.1564 0.91547   -0.595499
 O 0.5946 0.9617 0.96689   -0.549607
 O 0.6138 0.9721 0.191   -0.527658
 O 0.4392 0.9118 0.2748   -0.554115
 O 0.3935 0.8391 0.80603   -0.886178
 O 0.3912 0.4676 0.76892   -0.909103
 O 0.7778 0.3952 0.4439   -0.317397
 O 0.7567 0.2283 0.2954   -0.575557
 O 0.6734 0.0686 0.38087   -0.528564
 O 0.7224 0.1523 0.67535   -0.654246
 O 0.8024 0.3563 0.6627   -0.532869
 O 0.0462 0.1963 0.64452   -0.553916
 O 0.146 0.3646 0.57437   -0.564531
 O 0.1212 0.4188 0.3799   -0.539948
 O 0.9405 0.4392 0.2926   -0.548912
 O 0.9327 0.5243 0.7833   -0.837823
 O 0.1544 0.3875 0.7687   -0.905248
 O 0.7308 0.4689 0.12857   -0.319403
 O 0.7414 0.623 0.2846   -0.563132
 O 0.8003 0.7972 0.20316   -0.543349
 O 0.7882 0.7152 0.89595   -0.633787
 O 0.7321 0.5072 0.91592   -0.583237
 O 0.4696 0.6564 0.91547   -0.595499
 O 0.4054 0.4617 0.96689   -0.549607
 O 0.3862 0.4721 0.191   -0.52766
 O 0.5608 0.4118 0.2748   -0.554118
 O 0.6065 0.3391 0.80603   -0.886178
 O 0.6088 0.9676 0.76892   -0.909104
