{'_ref': 'TBD', '_srcid': 'CAKYAQ_clean', 'submitters': [{'name': 'Dalar Nazarian Jeff Camp and David Sholl', 'email': 'dalar@gatech.edu jcamp6@gatech.edu'}], '_method': 'VASP DFT with PBE;DDEC'}
data_Cu7H12C16(ClO11)2
_symmetry_space_group_name_H-M   'P 1'
_cell_length_a   10.03880000
_cell_length_b   10.34130000
_cell_length_c   14.22910012
_cell_angle_alpha   92.44900055
_cell_angle_beta   90.00000000
_cell_angle_gamma   90.00000000
_symmetry_Int_Tables_number   1
_chemical_formula_structural   Cu7H12C16(ClO11)2
_chemical_formula_sum   'Cu14 H24 C32 Cl4 O44'
_cell_volume   1475.83406721
_cell_formula_units_Z   2
loop_
 _symmetry_equiv_pos_site_id
 _symmetry_equiv_pos_as_xyz
  1  'x, y, z'
loop_
 _atom_site_label
 _atom_site_fract_x
 _atom_site_fract_y
 _atom_site_fract_z
 _atom_site_charge
 Cu 0.24699 0.9245 0.28248   1.012173
 Cu 0.2329 0.9286 0.78686   0.976342
 Cu 0.88663 0.70532 0.77353   0.997923
 Cu 0.40903 0.65767 0.78041   1.028999
 Cu 0.27701 0.40975 0.66725   0.963226
 Cu 0.26534 0.43944 0.87698   1.007038
 Cu 0.25772 0.43585 0.28617   1.015182
 Cu 0.75301 0.4245 0.28248   1.012173
 Cu 0.7671 0.4286 0.78686   0.976343
 Cu 0.11337 0.20532 0.77353   0.997924
 Cu 0.59097 0.15767 0.78041   1.028999
 Cu 0.72299 0.90975 0.66725   0.963226
 Cu 0.73466 0.93944 0.87698   1.007038
 Cu 0.74228 0.93585 0.28617   1.015182
 H 0.3678 0.7776 0.486   0.128617
 H 0.1759 0.6115 0.5178   0.135828
 H 0.0043 0.7103 0.4513   0.138687
 H 0.0627 0.9691 0.5044   0.115341
 H 0.123 0.0944 0.0929   0.134217
 H 0.3144 0.2519 0.0526   0.144286
 H 0.4951 0.1483 0.1058   0.143533
 H 0.4273 0.8909 0.0647   0.113299
 H 0.034 0.028 0.829   0.302126
 H 0.925 0.934 0.75   0.41964
 H 0.407 0.853 0.871   0.408276
 H 0.48 0.446 0.777   0.420629
 H 0.6322 0.2776 0.486   0.128617
 H 0.8241 0.1115 0.5178   0.135828
 H 0.9957 0.2103 0.4513   0.138687
 H 0.9373 0.4691 0.5044   0.11534
 H 0.877 0.5944 0.0929   0.134217
 H 0.6856 0.7519 0.0526   0.144286
 H 0.5049 0.6483 0.1058   0.143532
 H 0.5727 0.3909 0.0647   0.113298
 H 0.966 0.528 0.829   0.302126
 H 0.075 0.434 0.75   0.41964
 H 0.593 0.353 0.871   0.408276
 H 0.52 0.946 0.777   0.420629
 C 0.2768 0.7692 0.4578   0.066269
 C 0.1787 0.7077 0.5284   -0.205932
 C 0.0458 0.7677 0.5015   -0.188887
 C 0.0828 0.8969 0.4576   0.060045
 C 0.2812 0.6846 0.3673   0.607851
 C 0.2244 0.7433 0.6282   0.704335
 C 0.9472 0.7839 0.5816   0.702279
 C 0.0012 0.9179 0.3681   0.602344
 C 0.2173 0.0972 0.1156   0.068199
 C 0.3079 0.156 0.0415   -0.200519
 C 0.4446 0.091 0.06   -0.190946
 C 0.4079 0.9657 0.1094   0.057089
 C 0.2265 0.1758 0.2099   0.61798
 C 0.2557 0.1232 0.942   0.72453
 C 0.5302 0.0679 0.9738   0.685222
 C 0.4897 0.9482 0.198   0.601926
 C 0.7232 0.2692 0.4578   0.066269
 C 0.8213 0.2077 0.5284   -0.205931
 C 0.9542 0.2677 0.5015   -0.188887
 C 0.9172 0.3969 0.4576   0.060045
 C 0.7188 0.1846 0.3673   0.607851
 C 0.7756 0.2433 0.6282   0.704335
 C 0.0528 0.2839 0.5816   0.702279
 C 0.9988 0.4179 0.3681   0.602344
 C 0.7827 0.5972 0.1156   0.068198
 C 0.6921 0.656 0.0415   -0.200519
 C 0.5554 0.591 0.06   -0.190946
 C 0.5921 0.4657 0.1094   0.057089
 C 0.7735 0.6758 0.2099   0.61798
 C 0.7443 0.6232 0.942   0.724529
 C 0.4698 0.5679 0.9738   0.685222
 C 0.5103 0.4482 0.198   0.601926
 Cl 0.10399 0.51113 0.97408   -0.501996
 Cl 0.62501 0.65661 0.69012   -0.636598
 Cl 0.89601 0.01113 0.97408   -0.501996
 Cl 0.37499 0.15661 0.69012   -0.636598
 O 0.2227 0.8948 0.4407   -0.307051
 O 0.2395 0.7299 0.292   -0.565017
 O 0.3232 0.5702 0.3759   -0.535029
 O 0.28 0.6534 0.6725   -0.665726
 O 0.2079 0.8571 0.658   -0.52214
 O 0.9592 0.7032 0.6449   -0.553661
 O 0.8619 0.8722 0.5771   -0.570204
 O 0.8779 0.914 0.3794   -0.535643
 O 0.0581 0.9398 0.2912   -0.548347
 O 0.0728 0.0245 0.7675   -0.790941
 O 0.848 0.8899 0.7725   -0.91665
 O 0.2664 0.968 0.1266   -0.309157
 O 0.2582 0.1196 0.2832   -0.561646
 O 0.2006 0.294 0.2036   -0.540913
 O 0.2082 0.2132 0.8964   -0.633832
 O 0.265 0.0059 0.9144   -0.584681
 O 0.5321 0.157 0.9158   -0.608146
 O 0.5939 0.9622 0.9662   -0.547153
 O 0.6131 0.9698 0.1894   -0.529435
 O 0.4365 0.9085 0.271   -0.558773
 O 0.3959 0.84 0.8052   -0.8703
 O 0.3894 0.4711 0.7701   -0.9241
 O 0.7773 0.3948 0.4407   -0.307051
 O 0.7605 0.2299 0.292   -0.565017
 O 0.6768 0.0702 0.3759   -0.535029
 O 0.72 0.1534 0.6725   -0.665726
 O 0.7921 0.3571 0.658   -0.52214
 O 0.0408 0.2032 0.6449   -0.553663
 O 0.1381 0.3722 0.5771   -0.570205
 O 0.1221 0.414 0.3794   -0.535643
 O 0.9419 0.4398 0.2912   -0.548347
 O 0.9272 0.5245 0.7675   -0.790943
 O 0.152 0.3899 0.7725   -0.91665
 O 0.7336 0.468 0.1266   -0.309157
 O 0.7418 0.6196 0.2832   -0.561646
 O 0.7994 0.794 0.2036   -0.540914
 O 0.7918 0.7132 0.8964   -0.633832
 O 0.735 0.5059 0.9144   -0.584681
 O 0.4679 0.657 0.9158   -0.608147
 O 0.4061 0.4622 0.9662   -0.547154
 O 0.3869 0.4698 0.1894   -0.529436
 O 0.5635 0.4085 0.271   -0.558773
 O 0.6041 0.34 0.8052   -0.8703
 O 0.6106 0.9711 0.7701   -0.9241
