{'_ref': 'TBD', '_srcid': 'CAKYAQ_clean', 'submitters': [{'name': 'Dalar Nazarian Jeff Camp and David Sholl', 'email': 'dalar@gatech.edu jcamp6@gatech.edu'}], '_method': 'VASP DFT with PBE;DDEC'}
data_V2NiH14C10(NO)4
_symmetry_space_group_name_H-M   'P 1'
_cell_length_a   11.08300000
_cell_length_b   17.98300000
_cell_length_c   17.98300000
_cell_angle_alpha   90.00000000
_cell_angle_beta   90.00000000
_cell_angle_gamma   90.00000000
_symmetry_Int_Tables_number   1
_chemical_formula_structural   V2NiH14C10(NO)4
_chemical_formula_sum   'V16 Ni8 H112 C80 N32 O32'
_cell_volume   3584.11240699
_cell_formula_units_Z   8
loop_
 _symmetry_equiv_pos_site_id
 _symmetry_equiv_pos_as_xyz
  1  'x, y, z'
loop_
 _atom_site_label
 _atom_site_fract_x
 _atom_site_fract_y
 _atom_site_fract_z
 _atom_site_charge
 V 0.15457 0.03736 0.55969   1.141265
 V 0.65457 0.96264 0.44031   1.141265
 V 0.40457 0.94031 0.53736   1.141266
 V 0.90457 0.05969 0.46264   1.141266
 V 0.09543 0.46264 0.05969   1.141265
 V 0.59543 0.53736 0.94031   1.141265
 V 0.84543 0.55969 0.03736   1.141266
 V 0.34543 0.44031 0.96264   1.141266
 V 0.25 0.03933 0.96067   2.151356
 V 0.75 0.96067 0.03933   2.151356
 V 0.5 0.53933 0.53933   2.151356
 V 0.0 0.46067 0.46067   2.151356
 V 0.0 0.06713 0.06713   0.727213
 V 0.5 0.93287 0.93287   0.727213
 V 0.25 0.43287 0.56713   0.727213
 V 0.75 0.56713 0.43287   0.727213
 Ni 0.17219 0.02931 0.7646   0.68167
 Ni 0.67219 0.97069 0.2354   0.68167
 Ni 0.42219 0.7354 0.52931   0.68167
 Ni 0.92219 0.2646 0.47069   0.68167
 Ni 0.07781 0.47069 0.2646   0.681665
 Ni 0.57781 0.52931 0.7354   0.681665
 Ni 0.82781 0.7646 0.02931   0.681665
 Ni 0.32781 0.2354 0.97069   0.681665
 H 0.2124 0.8902 0.654   0.079644
 H 0.2003 0.7594 0.6876   0.122608
 H 0.1415 0.8819 0.866   0.090948
 H 0.224 0.7221 0.8685   0.070239
 H 0.0856 0.7385 0.8756   0.080622
 H 0.932 0.0262 0.6668   0.108413
 H 0.9452 0.0382 0.8836   0.113527
 H 0.7325 0.0346 0.8482   0.128209
 H 0.0512 0.4859 0.843   0.057162
 H 0.1312 0.5113 0.7759   0.053872
 H 0.0245 0.6106 0.8781   0.091635
 H 0.1609 0.5879 0.88   0.061367
 H 0.0552 0.6706 0.763   0.066284
 H 0.1921 0.6482 0.7655   0.08579
 H 0.7124 0.1098 0.346   0.079644
 H 0.7003 0.2406 0.3124   0.122608
 H 0.6415 0.1181 0.134   0.090948
 H 0.724 0.2779 0.1315   0.070239
 H 0.5856 0.2615 0.1244   0.080622
 H 0.432 0.9738 0.3332   0.108413
 H 0.4452 0.9618 0.1164   0.113527
 H 0.2325 0.9654 0.1518   0.128209
 H 0.5512 0.5141 0.157   0.057162
 H 0.6312 0.4887 0.2241   0.053872
 H 0.5245 0.3894 0.1219   0.091635
 H 0.6609 0.4121 0.12   0.061367
 H 0.5552 0.3294 0.237   0.066284
 H 0.6921 0.3518 0.2345   0.08579
 H 0.4624 0.846 0.3902   0.079644
 H 0.4503 0.8124 0.2594   0.122608
 H 0.3915 0.634 0.3819   0.090948
 H 0.474 0.6315 0.2221   0.070239
 H 0.3356 0.6244 0.2385   0.080622
 H 0.182 0.8332 0.5262   0.108413
 H 0.1952 0.6164 0.5382   0.113527
 H 0.9825 0.6518 0.5346   0.128209
 H 0.3012 0.657 0.9859   0.057162
 H 0.3812 0.7241 0.0113   0.053872
 H 0.2745 0.6219 0.1106   0.091635
 H 0.4109 0.62 0.0879   0.061368
 H 0.3052 0.737 0.1706   0.066284
 H 0.4421 0.7345 0.1482   0.08579
 H 0.9624 0.154 0.6098   0.079644
 H 0.9503 0.1876 0.7406   0.122608
 H 0.8915 0.366 0.6181   0.090948
 H 0.974 0.3685 0.7779   0.070239
 H 0.8356 0.3756 0.7615   0.080622
 H 0.682 0.1668 0.4738   0.108413
 H 0.6952 0.3836 0.4618   0.113527
 H 0.4825 0.3482 0.4654   0.128209
 H 0.8012 0.343 0.0141   0.057162
 H 0.8812 0.2759 0.9887   0.053872
 H 0.7745 0.3781 0.8894   0.091635
 H 0.9109 0.38 0.9121   0.061368
 H 0.8052 0.263 0.8294   0.066284
 H 0.9421 0.2655 0.8518   0.08579
 H 0.0376 0.6098 0.154   0.079644
 H 0.0497 0.7406 0.1876   0.122608
 H 0.1085 0.6181 0.366   0.090949
 H 0.026 0.7779 0.3685   0.070239
 H 0.1644 0.7615 0.3756   0.080622
 H 0.318 0.4738 0.1668   0.108414
 H 0.3048 0.4618 0.3836   0.113527
 H 0.5175 0.4654 0.3482   0.12821
 H 0.1988 0.0141 0.343   0.057162
 H 0.1188 0.9887 0.2759   0.053873
 H 0.2255 0.8894 0.3781   0.091635
 H 0.0891 0.9121 0.38   0.061367
 H 0.1948 0.8294 0.263   0.066285
 H 0.0579 0.8518 0.2655   0.08579
 H 0.5376 0.3902 0.846   0.079644
 H 0.5497 0.2594 0.8124   0.122608
 H 0.6085 0.3819 0.634   0.090949
 H 0.526 0.2221 0.6315   0.070239
 H 0.6644 0.2385 0.6244   0.080622
 H 0.818 0.5262 0.8332   0.108414
 H 0.8048 0.5382 0.6164   0.113527
 H 0.0175 0.5346 0.6518   0.12821
 H 0.6988 0.9859 0.657   0.057162
 H 0.6188 0.0113 0.7241   0.053873
 H 0.7255 0.1106 0.6219   0.091635
 H 0.5891 0.0879 0.62   0.061367
 H 0.6948 0.1706 0.737   0.066285
 H 0.5579 0.1482 0.7345   0.08579
 H 0.7876 0.654 0.8902   0.079644
 H 0.7997 0.6876 0.7594   0.122608
 H 0.8585 0.866 0.8819   0.090949
 H 0.776 0.8685 0.7221   0.070239
 H 0.9144 0.8756 0.7385   0.080622
 H 0.068 0.6668 0.0262   0.108414
 H 0.0548 0.8836 0.0382   0.113527
 H 0.2675 0.8482 0.0346   0.12821
 H 0.9488 0.843 0.4859   0.057163
 H 0.8688 0.7759 0.5113   0.053873
 H 0.9755 0.8781 0.6106   0.091635
 H 0.8391 0.88 0.5879   0.061368
 H 0.9448 0.763 0.6706   0.066285
 H 0.8079 0.7655 0.6482   0.08579
 H 0.2876 0.346 0.1098   0.079644
 H 0.2997 0.3124 0.2406   0.122608
 H 0.3585 0.134 0.1181   0.090949
 H 0.276 0.1315 0.2779   0.070239
 H 0.4144 0.1244 0.2615   0.080622
 H 0.568 0.3332 0.9738   0.108414
 H 0.5548 0.1164 0.9618   0.113527
 H 0.7675 0.1518 0.9654   0.12821
 H 0.4488 0.157 0.5141   0.057163
 H 0.3688 0.2241 0.4887   0.053873
 H 0.4755 0.1219 0.3894   0.091635
 H 0.3391 0.12 0.4121   0.061368
 H 0.4448 0.237 0.3294   0.066285
 H 0.3079 0.2345 0.3518   0.08579
 C 0.1971 0.87206 0.70154   0.027184
 C 0.1901 0.79962 0.71944   -0.164844
 C 0.1583 0.86802 0.8173   0.113783
 C 0.1504 0.73005 0.84041   -0.018796
 C 0.9096 0.02887 0.71658   0.125857
 C 0.9161 0.0353 0.83517   0.03298
 C 0.7982 0.0335 0.8161   -0.174595
 C 0.0628 0.52509 0.80663   -0.011057
 C 0.0928 0.5967 0.84732   -0.146142
 C 0.1229 0.6611 0.79586   -0.149059
 C 0.6971 0.12794 0.29846   0.027184
 C 0.6901 0.20038 0.28056   -0.164844
 C 0.6583 0.13198 0.1827   0.113783
 C 0.6504 0.26995 0.15959   -0.018796
 C 0.4096 0.97113 0.28342   0.125857
 C 0.4161 0.9647 0.16483   0.03298
 C 0.2982 0.9665 0.1839   -0.174595
 C 0.5628 0.47491 0.19337   -0.011057
 C 0.5928 0.4033 0.15268   -0.146142
 C 0.6229 0.3389 0.20414   -0.149059
 C 0.4471 0.79846 0.37206   0.027185
 C 0.4401 0.78056 0.29962   -0.164844
 C 0.4083 0.6827 0.36802   0.113783
 C 0.4004 0.65959 0.23005   -0.018796
 C 0.1596 0.78342 0.52887   0.125857
 C 0.1661 0.66483 0.5353   0.03298
 C 0.0482 0.6839 0.5335   -0.174595
 C 0.3128 0.69337 0.02509   -0.011058
 C 0.3428 0.65268 0.0967   -0.146142
 C 0.3729 0.70414 0.1611   -0.149059
 C 0.9471 0.20154 0.62794   0.027185
 C 0.9401 0.21944 0.70038   -0.164844
 C 0.9083 0.3173 0.63198   0.113783
 C 0.9004 0.34041 0.76995   -0.018796
 C 0.6596 0.21658 0.47113   0.125857
 C 0.6661 0.33517 0.4647   0.03298
 C 0.5482 0.3161 0.4665   -0.174595
 C 0.8128 0.30663 0.97491   -0.011058
 C 0.8428 0.34732 0.9033   -0.146142
 C 0.8729 0.29586 0.8389   -0.149059
 C 0.0529 0.62794 0.20154   0.027184
 C 0.0599 0.70038 0.21944   -0.164844
 C 0.0917 0.63198 0.3173   0.113783
 C 0.0996 0.76995 0.34041   -0.018795
 C 0.3404 0.47113 0.21658   0.125857
 C 0.3339 0.4647 0.33517   0.03298
 C 0.4518 0.4665 0.3161   -0.174594
 C 0.1872 0.97491 0.30663   -0.011057
 C 0.1572 0.9033 0.34732   -0.146142
 C 0.1271 0.8389 0.29586   -0.14906
 C 0.5529 0.37206 0.79846   0.027184
 C 0.5599 0.29962 0.78056   -0.164844
 C 0.5917 0.36802 0.6827   0.113783
 C 0.5996 0.23005 0.65959   -0.018795
 C 0.8404 0.52887 0.78342   0.125857
 C 0.8339 0.5353 0.66483   0.03298
 C 0.9518 0.5335 0.6839   -0.174594
 C 0.6872 0.02509 0.69337   -0.011057
 C 0.6572 0.0967 0.65268   -0.146142
 C 0.6271 0.1611 0.70414   -0.14906
 C 0.8029 0.70154 0.87206   0.027184
 C 0.8099 0.71944 0.79962   -0.164844
 C 0.8417 0.8173 0.86802   0.113783
 C 0.8496 0.84041 0.73005   -0.018795
 C 0.0904 0.71658 0.02887   0.125857
 C 0.0839 0.83517 0.0353   0.03298
 C 0.2018 0.8161 0.0335   -0.174594
 C 0.9372 0.80663 0.52509   -0.011057
 C 0.9072 0.84732 0.5967   -0.146142
 C 0.8771 0.79586 0.6611   -0.14906
 C 0.3029 0.29846 0.12794   0.027184
 C 0.3099 0.28056 0.20038   -0.164844
 C 0.3417 0.1827 0.13198   0.113783
 C 0.3496 0.15959 0.26995   -0.018795
 C 0.5904 0.28342 0.97113   0.125857
 C 0.5839 0.16483 0.9647   0.03298
 C 0.7018 0.1839 0.9665   -0.174594
 C 0.4372 0.19337 0.47491   -0.011057
 C 0.4072 0.15268 0.4033   -0.146142
 C 0.3771 0.20414 0.3389   -0.14906
 N 0.165 0.79699 0.79344   0.030242
 N 0.1787 0.91516 0.76268   -0.345077
 N 0.9867 0.03243 0.77245   -0.342413
 N 0.9551 0.52957 0.75951   0.035333
 N 0.665 0.20301 0.20656   0.030242
 N 0.6787 0.08484 0.23732   -0.345077
 N 0.4867 0.96757 0.22755   -0.342413
 N 0.4551 0.47043 0.24049   0.035333
 N 0.415 0.70656 0.29699   0.030242
 N 0.4287 0.73732 0.41516   -0.345077
 N 0.2367 0.72755 0.53243   -0.342413
 N 0.2051 0.74049 0.02957   0.035333
 N 0.915 0.29344 0.70301   0.030242
 N 0.9287 0.26268 0.58484   -0.345077
 N 0.7367 0.27245 0.46757   -0.342413
 N 0.7051 0.25951 0.97043   0.035333
 N 0.085 0.70301 0.29344   0.030242
 N 0.0713 0.58484 0.26268   -0.345076
 N 0.2633 0.46757 0.27245   -0.342413
 N 0.2949 0.97043 0.25951   0.035333
 N 0.585 0.29699 0.70656   0.030242
 N 0.5713 0.41516 0.73732   -0.345076
 N 0.7633 0.53243 0.72755   -0.342413
 N 0.7949 0.02957 0.74049   0.035333
 N 0.835 0.79344 0.79699   0.030242
 N 0.8213 0.76268 0.91516   -0.345076
 N 0.0133 0.77245 0.03243   -0.342413
 N 0.0449 0.75951 0.52957   0.035333
 N 0.335 0.20656 0.20301   0.030242
 N 0.3213 0.23732 0.08484   -0.345076
 N 0.5133 0.22755 0.96757   -0.342413
 N 0.5449 0.24049 0.47043   0.035333
 O 0.13277 0.02592 0.02745   -0.925254
 O 0.19447 0.02936 0.87701   -0.965342
 O 0.25166 0.96696 0.52073   -0.799822
 O 0.16079 0.03375 0.65069   -0.795521
 O 0.63277 0.97408 0.97255   -0.925254
 O 0.69447 0.97064 0.12299   -0.965342
 O 0.75166 0.03304 0.47927   -0.799822
 O 0.66079 0.96625 0.34931   -0.795521
 O 0.38277 0.47255 0.52592   -0.925254
 O 0.44447 0.62299 0.52936   -0.965342
 O 0.50166 0.97927 0.46696   -0.799822
 O 0.41079 0.84931 0.53375   -0.795521
 O 0.88277 0.52745 0.47408   -0.925254
 O 0.94447 0.37701 0.47064   -0.965342
 O 0.00166 0.02073 0.53304   -0.799822
 O 0.91079 0.15069 0.46625   -0.795521
 O 0.11723 0.47408 0.52745   -0.925254
 O 0.05553 0.47064 0.37701   -0.965341
 O 0.99834 0.53304 0.02073   -0.799822
 O 0.08921 0.46625 0.15069   -0.79552
 O 0.61723 0.52592 0.47255   -0.925254
 O 0.55553 0.52936 0.62299   -0.965341
 O 0.49834 0.46696 0.97927   -0.799822
 O 0.58921 0.53375 0.84931   -0.79552
 O 0.86723 0.02745 0.02592   -0.925254
 O 0.80553 0.87701 0.02936   -0.965341
 O 0.74834 0.52073 0.96696   -0.799822
 O 0.83921 0.65069 0.03375   -0.79552
 O 0.36723 0.97255 0.97408   -0.925254
 O 0.30553 0.12299 0.97064   -0.965341
 O 0.24834 0.47927 0.03304   -0.799822
 O 0.33921 0.34931 0.96625   -0.79552
