{'_ref': 'TBD', '_srcid': 'CAKYAQ_clean', 'submitters': [{'name': 'Dalar Nazarian Jeff Camp and David Sholl', 'email': 'dalar@gatech.edu jcamp6@gatech.edu'}], '_method': 'VASP DFT with PBE;DDEC'}
data_CdH4(C3O2)3
_symmetry_space_group_name_H-M   'P 1'
_cell_length_a   10.15610037
_cell_length_b   12.28430000
_cell_length_c   14.68670000
_cell_angle_alpha   90.00000000
_cell_angle_beta   102.99900132
_cell_angle_gamma   90.00000000
_symmetry_Int_Tables_number   1
_chemical_formula_structural   CdH4(C3O2)3
_chemical_formula_sum   'Cd4 H16 C36 O24'
_cell_volume   1785.36617537
_cell_formula_units_Z   4
loop_
 _symmetry_equiv_pos_site_id
 _symmetry_equiv_pos_as_xyz
  1  'x, y, z'
loop_
 _atom_site_label
 _atom_site_fract_x
 _atom_site_fract_y
 _atom_site_fract_z
 _atom_site_charge
 Cd 0.81048 0.9243 0.9389   1.048932
 Cd 0.18952 0.4243 0.5611   1.048932
 Cd 0.18952 0.0757 0.0611   1.048932
 Cd 0.81048 0.5757 0.4389   1.048932
 H 0.5409 0.1632 0.7032   0.111961
 H 0.6551 0.3868 0.5384   0.109423
 H 0.9285 0.1817 0.6859   0.093156
 H 0.953 0.0724 0.8291   0.454445
 H 0.4591 0.6632 0.7968   0.111961
 H 0.3449 0.8868 0.9616   0.109423
 H 0.0715 0.6817 0.8141   0.093156
 H 0.047 0.5724 0.6709   0.454445
 H 0.4591 0.8368 0.2968   0.111961
 H 0.3449 0.6132 0.4616   0.109423
 H 0.0715 0.8183 0.3141   0.093156
 H 0.047 0.9276 0.1709   0.454445
 H 0.5409 0.3368 0.2032   0.111961
 H 0.6551 0.1132 0.0384   0.109423
 H 0.9285 0.3183 0.1859   0.093156
 H 0.953 0.4276 0.3291   0.454445
 C 0.7798 0.0687 0.7763   0.674727
 C 0.7405 0.1574 0.7056   -0.233918
 C 0.6083 0.1956 0.6789   0.05888
 C 0.5759 0.2813 0.6165   -0.127192
 C 0.4334 0.324 0.5925   0.647095
 C 0.6764 0.3294 0.5805   0.047944
 C 0.809 0.2927 0.6068   -0.173956
 C 0.9196 0.3462 0.5703   0.709465
 C 0.8399 0.2068 0.6687   0.027008
 C 0.2202 0.5687 0.7237   0.674727
 C 0.2595 0.6574 0.7944   -0.233918
 C 0.3917 0.6956 0.8211   0.05888
 C 0.4241 0.7813 0.8835   -0.127192
 C 0.5666 0.824 0.9075   0.647095
 C 0.3236 0.8294 0.9195   0.047944
 C 0.191 0.7927 0.8932   -0.173956
 C 0.0804 0.8462 0.9297   0.709465
 C 0.1601 0.7068 0.8313   0.027008
 C 0.2202 0.9313 0.2237   0.674727
 C 0.2595 0.8426 0.2944   -0.233918
 C 0.3917 0.8044 0.3211   0.058879
 C 0.4241 0.7187 0.3835   -0.127192
 C 0.5666 0.676 0.4075   0.647095
 C 0.3236 0.6706 0.4195   0.047944
 C 0.191 0.7073 0.3932   -0.173957
 C 0.0804 0.6538 0.4297   0.709466
 C 0.1601 0.7932 0.3313   0.027008
 C 0.7798 0.4313 0.2763   0.674726
 C 0.7405 0.3426 0.2056   -0.233918
 C 0.6083 0.3044 0.1789   0.058879
 C 0.5759 0.2187 0.1165   -0.127192
 C 0.4334 0.176 0.0925   0.647095
 C 0.6764 0.1706 0.0805   0.047944
 C 0.809 0.2073 0.1068   -0.173957
 C 0.9196 0.1538 0.0703   0.709466
 C 0.8399 0.2932 0.1687   0.027008
 O 0.6936 0.0364 0.8199   -0.462951
 O 0.8975 0.0312 0.7928   -0.533693
 O 0.0385 0.3168 0.6048   -0.570146
 O 0.8905 0.4146 0.5069   -0.696531
 O 0.4043 0.3976 0.5319   -0.587838
 O 0.3499 0.2874 0.6356   -0.59681
 O 0.3064 0.5364 0.6801   -0.462951
 O 0.1025 0.5312 0.7072   -0.533693
 O 0.9615 0.8168 0.8952   -0.570146
 O 0.1095 0.9146 0.9931   -0.696531
 O 0.5957 0.8976 0.9681   -0.587838
 O 0.6501 0.7874 0.8644   -0.59681
 O 0.3064 0.9636 0.1801   -0.462951
 O 0.1025 0.9688 0.2072   -0.533693
 O 0.9615 0.6832 0.3952   -0.570147
 O 0.1095 0.5854 0.4931   -0.696531
 O 0.5957 0.6024 0.4681   -0.587838
 O 0.6501 0.7126 0.3644   -0.59681
 O 0.6936 0.4636 0.3199   -0.462951
 O 0.8975 0.4688 0.2928   -0.533693
 O 0.0385 0.1832 0.1048   -0.570147
 O 0.8905 0.0854 0.0069   -0.696531
 O 0.4043 0.1024 0.0319   -0.587838
 O 0.3499 0.2126 0.1356   -0.59681
