{'_ref': 'TBD', '_srcid': 'CAKYAQ_clean', 'submitters': [{'name': 'Dalar Nazarian Jeff Camp and David Sholl', 'email': 'dalar@gatech.edu jcamp6@gatech.edu'}], '_method': 'VASP DFT with PBE;DDEC'}
data_Cd2H32C37(N2O3)3
_symmetry_space_group_name_H-M   'P 1'
_cell_length_a   16.15500000
_cell_length_b   16.89299983
_cell_length_c   20.51400000
_cell_angle_alpha   110.62800067
_cell_angle_beta   90.00000000
_cell_angle_gamma   90.00000000
_symmetry_Int_Tables_number   1
_chemical_formula_structural   Cd2H32C37(N2O3)3
_chemical_formula_sum   'Cd8 H128 C148 N24 O36'
_cell_volume   5239.47445831
_cell_formula_units_Z   4
loop_
 _symmetry_equiv_pos_site_id
 _symmetry_equiv_pos_as_xyz
  1  'x, y, z'
loop_
 _atom_site_label
 _atom_site_fract_x
 _atom_site_fract_y
 _atom_site_fract_z
 _atom_site_charge
 Cd 0.08208 0.74664 0.74448   1.136958
 Cd 0.01491 0.82249 0.93401   1.027876
 Cd 0.58208 0.25336 0.75552   1.136958
 Cd 0.51491 0.17751 0.56599   1.027876
 Cd 0.91792 0.25336 0.25552   1.136958
 Cd 0.98509 0.17751 0.06599   1.027876
 Cd 0.41792 0.74664 0.24448   1.136958
 Cd 0.48509 0.82249 0.43401   1.027876
 H 0.1527 0.8541 0.8662   0.414132
 H 0.1634 0.7621 0.8669   0.42738
 H 0.046 0.8306 0.6353   0.068518
 H 0.9641 0.8228 0.5429   0.131254
 H 0.9 0.5943 0.5268   0.126866
 H 0.9753 0.6057 0.6206   0.079734
 H 0.8254 0.8959 0.5034   0.142262
 H 0.803 0.8531 0.5576   0.133484
 H 0.7352 0.8632 0.5065   0.122585
 H 0.8923 0.5231 0.3259   0.153603
 H 0.889 0.5224 0.4021   0.11482
 H 0.9652 0.5623 0.3776   0.120977
 H 0.7085 0.8353 0.3998   0.10648
 H 0.6895 0.7525 0.336   0.107875
 H 0.7286 0.6799 0.2048   0.139433
 H 0.7471 0.7231 0.1501   0.13268
 H 0.674 0.7558 0.2031   0.134364
 H 0.9188 0.0133 0.2993   0.127853
 H 0.9905 0.9464 0.2811   0.128687
 H 0.961 0.9889 0.3585   0.136307
 H 0.858 0.7152 0.1066   0.139169
 H 0.9191 0.7135 0.0052   0.090105
 H 0.9332 0.9566 0.0809   0.059944
 H 0.9032 0.9649 0.1929   0.144159
 H 0.3214 0.0138 0.8333   0.094602
 H 0.4048 0.0981 0.795   0.074522
 H 0.33 0.9772 0.6012   0.084803
 H 0.2321 0.9087 0.64   0.101266
 H 0.9199 0.531 0.695   0.071958
 H 0.8321 0.4158 0.661   0.117064
 H 0.7702 0.473 0.863   0.09781
 H 0.8626 0.5836 0.8944   0.086334
 H 0.6527 0.1459 0.6338   0.414132
 H 0.6634 0.2379 0.6331   0.42738
 H 0.546 0.1694 0.8647   0.068518
 H 0.4641 0.1772 0.9571   0.131254
 H 0.4 0.4057 0.9732   0.126866
 H 0.4753 0.3943 0.8794   0.079734
 H 0.3254 0.1041 0.9966   0.142262
 H 0.303 0.1469 0.9424   0.133484
 H 0.2352 0.1368 0.9935   0.122585
 H 0.3923 0.4769 0.1741   0.153603
 H 0.389 0.4776 0.0979   0.11482
 H 0.4652 0.4377 0.1224   0.120977
 H 0.2085 0.1647 0.1002   0.10648
 H 0.1895 0.2475 0.164   0.107875
 H 0.2286 0.3201 0.2952   0.139433
 H 0.2471 0.2769 0.3499   0.13268
 H 0.174 0.2442 0.2969   0.134364
 H 0.4188 0.9867 0.2007   0.127853
 H 0.4905 0.0536 0.2189   0.128687
 H 0.461 0.0111 0.1415   0.136307
 H 0.358 0.2848 0.3934   0.139169
 H 0.4191 0.2865 0.4948   0.090105
 H 0.4332 0.0434 0.4191   0.059944
 H 0.4032 0.0351 0.3071   0.144159
 H 0.8214 0.9862 0.6667   0.094602
 H 0.9048 0.9019 0.705   0.074522
 H 0.83 0.0228 0.8988   0.084803
 H 0.7321 0.0913 0.86   0.101266
 H 0.4199 0.469 0.805   0.071958
 H 0.3321 0.5842 0.839   0.117064
 H 0.2702 0.527 0.637   0.09781
 H 0.3626 0.4164 0.6056   0.086334
 H 0.8473 0.1459 0.1338   0.414132
 H 0.8366 0.2379 0.1331   0.427381
 H 0.954 0.1694 0.3647   0.068518
 H 0.0359 0.1772 0.4571   0.131255
 H 0.1 0.4057 0.4732   0.126866
 H 0.0247 0.3943 0.3794   0.079734
 H 0.1746 0.1041 0.4966   0.142262
 H 0.197 0.1469 0.4424   0.133484
 H 0.2648 0.1368 0.4935   0.122585
 H 0.1077 0.4769 0.6741   0.153603
 H 0.111 0.4776 0.5979   0.11482
 H 0.0348 0.4377 0.6224   0.120977
 H 0.2915 0.1647 0.6002   0.10648
 H 0.3105 0.2475 0.664   0.107875
 H 0.2714 0.3201 0.7952   0.139433
 H 0.2529 0.2769 0.8499   0.13268
 H 0.326 0.2442 0.7969   0.134364
 H 0.0812 0.9867 0.7007   0.127853
 H 0.0095 0.0536 0.7189   0.128687
 H 0.039 0.0111 0.6415   0.136307
 H 0.142 0.2848 0.8934   0.139169
 H 0.0809 0.2865 0.9948   0.090105
 H 0.0668 0.0434 0.9191   0.059944
 H 0.0968 0.0351 0.8071   0.144159
 H 0.6786 0.9862 0.1667   0.094602
 H 0.5952 0.9019 0.205   0.074522
 H 0.67 0.0228 0.3988   0.084803
 H 0.7679 0.0913 0.36   0.101266
 H 0.0801 0.469 0.305   0.071958
 H 0.1679 0.5842 0.339   0.117064
 H 0.2298 0.527 0.137   0.09781
 H 0.1374 0.4164 0.1056   0.086334
 H 0.3473 0.8541 0.3662   0.414132
 H 0.3366 0.7621 0.3669   0.427381
 H 0.454 0.8306 0.1353   0.068518
 H 0.5359 0.8228 0.0429   0.131255
 H 0.6 0.5943 0.0268   0.126866
 H 0.5247 0.6057 0.1206   0.079734
 H 0.6746 0.8959 0.0034   0.142262
 H 0.697 0.8531 0.0576   0.133484
 H 0.7648 0.8632 0.0065   0.122585
 H 0.6077 0.5231 0.8259   0.153603
 H 0.611 0.5224 0.9021   0.11482
 H 0.5348 0.5623 0.8776   0.120977
 H 0.7915 0.8353 0.8998   0.10648
 H 0.8105 0.7525 0.836   0.107875
 H 0.7714 0.6799 0.7048   0.139433
 H 0.7529 0.7231 0.6501   0.13268
 H 0.826 0.7558 0.7031   0.134364
 H 0.5812 0.0133 0.7993   0.127853
 H 0.5095 0.9464 0.7811   0.128687
 H 0.539 0.9889 0.8585   0.136307
 H 0.642 0.7152 0.6066   0.139169
 H 0.5809 0.7135 0.5052   0.090105
 H 0.5668 0.9566 0.5809   0.059944
 H 0.5968 0.9649 0.6929   0.144159
 H 0.1786 0.0138 0.3333   0.094602
 H 0.0952 0.0981 0.295   0.074522
 H 0.17 0.9772 0.1012   0.084803
 H 0.2679 0.9087 0.14   0.101266
 H 0.5801 0.531 0.195   0.071958
 H 0.6679 0.4158 0.161   0.117064
 H 0.7298 0.473 0.363   0.09781
 H 0.6374 0.5836 0.3944   0.086334
 C 0.0156 0.7815 0.614   0.217175
 C 0.9653 0.7768 0.5579   -0.242856
 C 0.9183 0.7093 0.5243   0.231892
 C 0.9277 0.6448 0.5493   -0.223118
 C 0.9745 0.6506 0.6043   0.159318
 C 0.8674 0.7051 0.4662   -0.287882
 C 0.816 0.7682 0.4595   0.133486
 C 0.793 0.8527 0.5114   -0.373941
 C 0.8613 0.6428 0.3986   0.268531
 C 0.9064 0.5539 0.3736   -0.376997
 C 0.7334 0.788 0.363   0.023451
 C 0.787 0.7937 0.248   0.156344
 C 0.7289 0.7325 0.1968   -0.374175
 C 0.8493 0.842 0.2293   -0.29176
 C 0.8784 0.8956 0.2995   0.283628
 C 0.943 0.968 0.3107   -0.379639
 C 0.8766 0.8395 0.1649   0.227489
 C 0.8797 0.7652 0.1044   -0.232915
 C 0.9137 0.7645 0.042   0.165635
 C 0.9258 0.906 0.0886   0.196422
 C 0.902 0.9134 0.1561   -0.215074
 C 0.2076 0.8987 0.7687   0.681601
 C 0.2668 0.9499 0.7412   -0.113885
 C 0.3204 0.0081 0.7865   -0.070376
 C 0.3719 0.0574 0.7632   -0.048061
 C 0.3757 0.0475 0.6932   -0.156167
 C 0.326 0.988 0.6487   -0.047426
 C 0.2696 0.9438 0.6715   -0.057563
 C 0.4363 0.0999 0.6696   0.705263
 C 0.9559 0.6501 0.8153   0.707321
 C 0.8997 0.5706 0.7955   -0.15539
 C 0.8897 0.5191 0.729   -0.050409
 C 0.8379 0.4498 0.7075   -0.086579
 C 0.7923 0.4339 0.764   -0.098659
 C 0.7301 0.3601 0.7386   0.665264
 C 0.8012 0.4834 0.8287   -0.055242
 C 0.8552 0.551 0.8476   -0.050044
 C 0.5156 0.2185 0.886   0.217175
 C 0.4653 0.2232 0.9421   -0.242856
 C 0.4183 0.2907 0.9757   0.231892
 C 0.4277 0.3552 0.9507   -0.223118
 C 0.4745 0.3494 0.8957   0.159318
 C 0.3674 0.2949 0.0338   -0.287882
 C 0.316 0.2318 0.0405   0.133486
 C 0.293 0.1473 0.9886   -0.373941
 C 0.3613 0.3572 0.1014   0.268531
 C 0.4064 0.4461 0.1264   -0.376997
 C 0.2334 0.212 0.137   0.023451
 C 0.287 0.2063 0.252   0.156344
 C 0.2289 0.2675 0.3032   -0.374175
 C 0.3493 0.158 0.2707   -0.29176
 C 0.3784 0.1044 0.2005   0.283628
 C 0.443 0.032 0.1893   -0.379639
 C 0.3766 0.1605 0.3351   0.227489
 C 0.3797 0.2348 0.3956   -0.232915
 C 0.4137 0.2355 0.458   0.165635
 C 0.4258 0.094 0.4114   0.196422
 C 0.402 0.0866 0.3439   -0.215074
 C 0.7076 0.1013 0.7313   0.681601
 C 0.7668 0.0501 0.7588   -0.113885
 C 0.8204 0.9919 0.7135   -0.070376
 C 0.8719 0.9426 0.7368   -0.048061
 C 0.8757 0.9525 0.8068   -0.156167
 C 0.826 0.012 0.8513   -0.047426
 C 0.7696 0.0562 0.8285   -0.057563
 C 0.9363 0.9001 0.8304   0.705263
 C 0.4559 0.3499 0.6847   0.707321
 C 0.3997 0.4294 0.7045   -0.15539
 C 0.3897 0.4809 0.771   -0.050409
 C 0.3379 0.5502 0.7925   -0.086579
 C 0.2923 0.5661 0.736   -0.098659
 C 0.2301 0.6399 0.7614   0.665264
 C 0.3012 0.5166 0.6713   -0.055242
 C 0.3552 0.449 0.6524   -0.050044
 C 0.9844 0.2185 0.386   0.217175
 C 0.0347 0.2232 0.4421   -0.242856
 C 0.0817 0.2907 0.4757   0.231892
 C 0.0723 0.3552 0.4507   -0.223118
 C 0.0255 0.3494 0.3957   0.159318
 C 0.1326 0.2949 0.5338   -0.287883
 C 0.184 0.2318 0.5405   0.133486
 C 0.207 0.1473 0.4886   -0.373941
 C 0.1387 0.3572 0.6014   0.268531
 C 0.0936 0.4461 0.6264   -0.376997
 C 0.2666 0.212 0.637   0.023451
 C 0.213 0.2063 0.752   0.156344
 C 0.2711 0.2675 0.8032   -0.374175
 C 0.1507 0.158 0.7707   -0.29176
 C 0.1216 0.1044 0.7005   0.283628
 C 0.057 0.032 0.6893   -0.379639
 C 0.1234 0.1605 0.8351   0.227489
 C 0.1203 0.2348 0.8956   -0.232915
 C 0.0863 0.2355 0.958   0.165635
 C 0.0742 0.094 0.9114   0.196422
 C 0.098 0.0866 0.8439   -0.215074
 C 0.7924 0.1013 0.2313   0.681601
 C 0.7332 0.0501 0.2588   -0.113885
 C 0.6796 0.9919 0.2135   -0.070376
 C 0.6281 0.9426 0.2368   -0.048061
 C 0.6243 0.9525 0.3068   -0.156166
 C 0.674 0.012 0.3513   -0.047426
 C 0.7304 0.0562 0.3285   -0.057563
 C 0.5637 0.9001 0.3304   0.705263
 C 0.0441 0.3499 0.1847   0.707321
 C 0.1003 0.4294 0.2045   -0.15539
 C 0.1103 0.4809 0.271   -0.050409
 C 0.1621 0.5502 0.2925   -0.086578
 C 0.2077 0.5661 0.236   -0.098659
 C 0.2699 0.6399 0.2614   0.665264
 C 0.1988 0.5166 0.1713   -0.055242
 C 0.1448 0.449 0.1524   -0.050044
 C 0.4844 0.7815 0.114   0.217175
 C 0.5347 0.7768 0.0579   -0.242856
 C 0.5817 0.7093 0.0243   0.231892
 C 0.5723 0.6448 0.0493   -0.223118
 C 0.5255 0.6506 0.1043   0.159318
 C 0.6326 0.7051 0.9662   -0.287883
 C 0.684 0.7682 0.9595   0.133486
 C 0.707 0.8527 0.0114   -0.373941
 C 0.6387 0.6428 0.8986   0.268531
 C 0.5936 0.5539 0.8736   -0.376997
 C 0.7666 0.788 0.863   0.023451
 C 0.713 0.7937 0.748   0.156344
 C 0.7711 0.7325 0.6968   -0.374175
 C 0.6507 0.842 0.7293   -0.29176
 C 0.6216 0.8956 0.7995   0.283628
 C 0.557 0.968 0.8107   -0.379639
 C 0.6234 0.8395 0.6649   0.227489
 C 0.6203 0.7652 0.6044   -0.232915
 C 0.5863 0.7645 0.542   0.165635
 C 0.5742 0.906 0.5886   0.196422
 C 0.598 0.9134 0.6561   -0.215074
 C 0.2924 0.8987 0.2687   0.681601
 C 0.2332 0.9499 0.2412   -0.113885
 C 0.1796 0.0081 0.2865   -0.070376
 C 0.1281 0.0574 0.2632   -0.048061
 C 0.1243 0.0475 0.1932   -0.156166
 C 0.174 0.988 0.1487   -0.047426
 C 0.2304 0.9438 0.1715   -0.057563
 C 0.0637 0.0999 0.1696   0.705263
 C 0.5441 0.6501 0.3153   0.707321
 C 0.6003 0.5706 0.2955   -0.15539
 C 0.6103 0.5191 0.229   -0.050409
 C 0.6621 0.4498 0.2075   -0.086578
 C 0.7077 0.4339 0.264   -0.098659
 C 0.7699 0.3601 0.2386   0.665264
 C 0.6988 0.4834 0.3287   -0.055242
 C 0.6448 0.551 0.3476   -0.050044
 N 0.0218 0.7211 0.6376   -0.374949
 N 0.787 0.7403 0.3927   0.112341
 N 0.814 0.6611 0.3539   -0.387554
 N 0.8386 0.8816 0.3494   -0.413678
 N 0.7846 0.8198 0.3181   0.134425
 N 0.9389 0.8367 0.0346   -0.415979
 N 0.5218 0.2789 0.8624   -0.374949
 N 0.287 0.2597 0.1073   0.112341
 N 0.314 0.3389 0.1461   -0.387554
 N 0.3386 0.1184 0.1506   -0.413678
 N 0.2846 0.1802 0.1819   0.134425
 N 0.4389 0.1633 0.4654   -0.415979
 N 0.9782 0.2789 0.3624   -0.374949
 N 0.213 0.2597 0.6073   0.112341
 N 0.186 0.3389 0.6461   -0.387554
 N 0.1614 0.1184 0.6506   -0.413678
 N 0.2154 0.1802 0.6819   0.134425
 N 0.0611 0.1633 0.9654   -0.415979
 N 0.4782 0.7211 0.1376   -0.374949
 N 0.713 0.7403 0.8927   0.112341
 N 0.686 0.6611 0.8539   -0.387554
 N 0.6614 0.8816 0.8494   -0.413678
 N 0.7154 0.8198 0.8181   0.134425
 N 0.5611 0.8367 0.5346   -0.415979
 O 0.2088 0.9133 0.8323   -0.615112
 O 0.1637 0.8456 0.7246   -0.633874
 O 0.4764 0.1548 0.7159   -0.646685
 O 0.4368 0.0922 0.6069   -0.651177
 O 0.9509 0.7005 0.8772   -0.649439
 O 0.0022 0.6524 0.7693   -0.595879
 O 0.7236 0.3231 0.6703   -0.667002
 O 0.6881 0.3473 0.7832   -0.595875
 O 0.1244 0.8009 0.8581   -0.81009
 O 0.7088 0.0867 0.6677   -0.615112
 O 0.6637 0.1544 0.7754   -0.633874
 O 0.9764 0.8452 0.7841   -0.646685
 O 0.9368 0.9078 0.8931   -0.651177
 O 0.4509 0.2995 0.6228   -0.649439
 O 0.5022 0.3476 0.7307   -0.595879
 O 0.2236 0.6769 0.8297   -0.667002
 O 0.1881 0.6527 0.7168   -0.595875
 O 0.6244 0.1991 0.6419   -0.81009
 O 0.7912 0.0867 0.1677   -0.615112
 O 0.8363 0.1544 0.2754   -0.633874
 O 0.5236 0.8452 0.2841   -0.646685
 O 0.5632 0.9078 0.3931   -0.651177
 O 0.0491 0.2995 0.1228   -0.649439
 O 0.9978 0.3476 0.2307   -0.595879
 O 0.2764 0.6769 0.3297   -0.667002
 O 0.3119 0.6527 0.2168   -0.595875
 O 0.8756 0.1991 0.1419   -0.81009
 O 0.2912 0.9133 0.3323   -0.615112
 O 0.3363 0.8456 0.2246   -0.633874
 O 0.0236 0.1548 0.2159   -0.646685
 O 0.0632 0.0922 0.1069   -0.651177
 O 0.5491 0.7005 0.3772   -0.649439
 O 0.4978 0.6524 0.2693   -0.595879
 O 0.7764 0.3231 0.1703   -0.667002
 O 0.8119 0.3473 0.2832   -0.595875
 O 0.3756 0.8009 0.3581   -0.81009
