{'_ref': 'TBD', '_srcid': 'CAKYAQ_clean', 'submitters': [{'name': 'Dalar Nazarian Jeff Camp and David Sholl', 'email': 'dalar@gatech.edu jcamp6@gatech.edu'}], '_method': 'VASP DFT with PBE;DDEC'}
data_Co3H32C40(NO6)2
_symmetry_space_group_name_H-M   'P 1'
_cell_length_a   11.39720000
_cell_length_b   11.82549979
_cell_length_c   18.99140000
_cell_angle_alpha   90.00000000
_cell_angle_beta   90.00000000
_cell_angle_gamma   118.03800233
_symmetry_Int_Tables_number   1
_chemical_formula_structural   Co3H32C40(NO6)2
_chemical_formula_sum   'Co6 H64 C80 N4 O24'
_cell_volume   2259.2084261
_cell_formula_units_Z   2
loop_
 _symmetry_equiv_pos_site_id
 _symmetry_equiv_pos_as_xyz
  1  'x, y, z'
loop_
 _atom_site_label
 _atom_site_fract_x
 _atom_site_fract_y
 _atom_site_fract_z
 _atom_site_charge
 Co 0.31629 0.16796 0.50568   0.884544
 Co 0.18371 0.33204 0.00568   0.884544
 Co 0.68371 0.83204 0.49432   0.884544
 Co 0.81629 0.66796 0.99432   0.884544
 Co 0.5 0.5 0.5   1.185605
 Co 0.0 0.0 0.0   1.185605
 H 0.5383 0.1115 0.3354   0.096837
 H 0.839 0.4948 0.2335   0.107354
 H 0.7046 0.4926 0.3212   0.114901
 H 0.9183 0.3731 0.153   0.097004
 H 0.7414 0.9918 0.1631   0.100523
 H 0.6127 0.9907 0.2525   0.10822
 H 0.2077 0.4913 0.5528   0.102443
 H 0.1445 0.6491 0.6042   0.090707
 H 0.9921 0.2579 0.3964   0.106486
 H 0.1613 0.9355 0.5307   0.26356
 H 0.3538 0.9383 0.5491   0.097616
 H 0.2723 0.8228 0.4959   0.079442
 H 0.3842 0.956 0.4652   0.101922
 H 0.0721 0.9459 0.428   0.108097
 H 0.1086 0.8305 0.4249   0.08137
 H 0.2089 0.9644 0.3886   0.101301
 H 0.9617 0.3885 0.8354   0.096837
 H 0.661 0.0052 0.7335   0.107354
 H 0.7954 0.0074 0.8212   0.114901
 H 0.5817 0.1269 0.653   0.097004
 H 0.7586 0.5082 0.6631   0.100523
 H 0.8873 0.5093 0.7525   0.10822
 H 0.2923 0.0087 0.0528   0.102443
 H 0.3555 0.8509 0.1042   0.090707
 H 0.5079 0.2421 0.8964   0.106486
 H 0.3387 0.5645 0.0307   0.26356
 H 0.1462 0.5617 0.0491   0.097616
 H 0.2277 0.6772 0.9959   0.079442
 H 0.1158 0.544 0.9652   0.101922
 H 0.4279 0.5541 0.928   0.108097
 H 0.3914 0.6695 0.9249   0.08137
 H 0.2911 0.5356 0.8886   0.101301
 H 0.4617 0.8885 0.6646   0.096837
 H 0.161 0.5052 0.7665   0.107354
 H 0.2954 0.5074 0.6788   0.114901
 H 0.0817 0.6269 0.847   0.097004
 H 0.2586 0.0082 0.8369   0.100523
 H 0.3873 0.0093 0.7475   0.108221
 H 0.7923 0.5087 0.4472   0.102443
 H 0.8555 0.3509 0.3958   0.090706
 H 0.0079 0.7421 0.6036   0.106485
 H 0.8387 0.0645 0.4693   0.263561
 H 0.6462 0.0617 0.4509   0.097617
 H 0.7277 0.1772 0.5041   0.079442
 H 0.6158 0.044 0.5348   0.101923
 H 0.9279 0.0541 0.572   0.108097
 H 0.8914 0.1695 0.5751   0.08137
 H 0.7911 0.0356 0.6114   0.101301
 H 0.0383 0.6115 0.1646   0.096837
 H 0.339 0.9948 0.2665   0.107354
 H 0.2046 0.9926 0.1788   0.114901
 H 0.4183 0.8731 0.347   0.097004
 H 0.2414 0.4918 0.3369   0.100523
 H 0.1127 0.4907 0.2475   0.10822
 H 0.7077 0.9913 0.9472   0.102443
 H 0.6445 0.1491 0.8958   0.090706
 H 0.4921 0.7579 0.1036   0.106485
 H 0.6613 0.4355 0.9693   0.263561
 H 0.8538 0.4383 0.9509   0.097617
 H 0.7723 0.3228 0.0041   0.079442
 H 0.8842 0.456 0.0348   0.101923
 H 0.5721 0.4459 0.072   0.108097
 H 0.6086 0.3305 0.0751   0.08137
 H 0.7089 0.4644 0.1114   0.101301
 C 0.5176 0.3012 0.3957   0.680574
 C 0.606 0.2998 0.33722   -0.128361
 C 0.5986 0.1869 0.31442   -0.095442
 C 0.6804 0.1837 0.25911   0.040006
 C 0.7738 0.3006 0.22827   0.036027
 C 0.7804 0.4165 0.25327   -0.129411
 C 0.6994 0.4161 0.30565   -0.047335
 C 0.8564 0.2973 0.17371   -0.088536
 C 0.8469 0.184 0.14934   -0.133962
 C 0.9384 0.1817 0.0928   0.691179
 C 0.7513 0.068 0.17971   -0.031614
 C 0.6716 0.0672 0.23295   -0.141397
 C 0.1957 0.2963 0.47957   0.662449
 C 0.1149 0.3659 0.47643   -0.128023
 C 0.1381 0.4628 0.52197   -0.051459
 C 0.054 0.5219 0.52389   0.029103
 C 0.0743 0.6212 0.57205   -0.115379
 C 0.0066 0.3232 0.42839   -0.060536
 C 0.3171 0.9171 0.50142   -0.122157
 C 0.1446 0.9226 0.42689   -0.121674
 C 0.9824 0.1988 0.8957   0.680574
 C 0.894 0.2002 0.83722   -0.128361
 C 0.9014 0.3131 0.81442   -0.095442
 C 0.8196 0.3163 0.75911   0.040006
 C 0.7262 0.1994 0.72827   0.036027
 C 0.7196 0.0835 0.75327   -0.129411
 C 0.8006 0.0839 0.80565   -0.047335
 C 0.6436 0.2027 0.67371   -0.088536
 C 0.6531 0.316 0.64934   -0.133962
 C 0.5616 0.3183 0.5928   0.691179
 C 0.7487 0.432 0.67971   -0.031614
 C 0.8284 0.4328 0.73295   -0.141397
 C 0.3043 0.2037 0.97957   0.662449
 C 0.3851 0.1341 0.97643   -0.128023
 C 0.3619 0.0372 0.02197   -0.051459
 C 0.446 0.9781 0.02389   0.029103
 C 0.4257 0.8788 0.07205   -0.115378
 C 0.4934 0.1768 0.92839   -0.060536
 C 0.1829 0.5829 0.00142   -0.122157
 C 0.3554 0.5774 0.92689   -0.121674
 C 0.4824 0.6988 0.6043   0.680574
 C 0.394 0.7002 0.66278   -0.128361
 C 0.4014 0.8131 0.68558   -0.095442
 C 0.3196 0.8163 0.74089   0.040006
 C 0.2262 0.6994 0.77173   0.036027
 C 0.2196 0.5835 0.74673   -0.12941
 C 0.3006 0.5839 0.69435   -0.047336
 C 0.1436 0.7027 0.82629   -0.088536
 C 0.1531 0.816 0.85066   -0.133961
 C 0.0616 0.8183 0.9072   0.691179
 C 0.2487 0.932 0.82029   -0.031615
 C 0.3284 0.9328 0.76705   -0.141397
 C 0.8043 0.7037 0.52043   0.662449
 C 0.8851 0.6341 0.52357   -0.128026
 C 0.8619 0.5372 0.47803   -0.051458
 C 0.946 0.4781 0.47611   0.029103
 C 0.9257 0.3788 0.42795   -0.115366
 C 0.9934 0.6768 0.57161   -0.060522
 C 0.6829 0.0829 0.49858   -0.122157
 C 0.8554 0.0774 0.57311   -0.121674
 C 0.0176 0.8012 0.1043   0.680574
 C 0.106 0.7998 0.16278   -0.128361
 C 0.0986 0.6869 0.18558   -0.095442
 C 0.1804 0.6837 0.24089   0.040006
 C 0.2738 0.8006 0.27173   0.036027
 C 0.2804 0.9165 0.24673   -0.12941
 C 0.1994 0.9161 0.19435   -0.047336
 C 0.3564 0.7973 0.32629   -0.088536
 C 0.3469 0.684 0.35066   -0.133961
 C 0.4384 0.6817 0.4072   0.691179
 C 0.2513 0.568 0.32029   -0.031614
 C 0.1716 0.5672 0.26705   -0.141397
 C 0.6957 0.7963 0.02043   0.662449
 C 0.6149 0.8659 0.02357   -0.128026
 C 0.6381 0.9628 0.97803   -0.051458
 C 0.554 0.0219 0.97611   0.029103
 C 0.5743 0.1212 0.92795   -0.115365
 C 0.5066 0.8232 0.07161   -0.060523
 C 0.8171 0.4171 0.99858   -0.122157
 C 0.6446 0.4226 0.07311   -0.121674
 N 0.2204 0.9673 0.49339   -0.385856
 N 0.2796 0.5327 0.99339   -0.385856
 N 0.7796 0.0327 0.50661   -0.385856
 N 0.7204 0.4673 0.00661   -0.385856
 O 0.30498 0.34341 0.51437   -0.639075
 O 0.42543 0.195 0.41612   -0.578947
 O 0.54306 0.40985 0.41925   -0.603668
 O 0.02188 0.28912 0.06774   -0.616192
 O 0.9269 0.07452 0.07673   -0.592683
 O 0.15305 0.18885 0.45113   -0.562773
 O 0.19502 0.15659 0.01437   -0.639075
 O 0.07457 0.305 0.91612   -0.578947
 O 0.95694 0.09015 0.91925   -0.603668
 O 0.47812 0.21088 0.56774   -0.616192
 O 0.5731 0.42548 0.57673   -0.592683
 O 0.34695 0.31115 0.95113   -0.562773
 O 0.69502 0.65659 0.48563   -0.639075
 O 0.57457 0.805 0.58388   -0.578947
 O 0.45694 0.59015 0.58075   -0.603669
 O 0.97812 0.71088 0.93226   -0.616192
 O 0.0731 0.92548 0.92327   -0.592683
 O 0.84695 0.81115 0.54887   -0.562774
 O 0.80498 0.84341 0.98563   -0.639075
 O 0.92543 0.695 0.08388   -0.578947
 O 0.04306 0.90985 0.08075   -0.603669
 O 0.52188 0.78912 0.43226   -0.616192
 O 0.4269 0.57452 0.42327   -0.592683
 O 0.65305 0.68885 0.04887   -0.562774
