{'_ref': 'TBD', '_srcid': 'CAKYAQ_clean', 'submitters': [{'name': 'Dalar Nazarian Jeff Camp and David Sholl', 'email': 'dalar@gatech.edu jcamp6@gatech.edu'}], '_method': 'VASP DFT with PBE;DDEC'}
data_NaCd4H19C19N8O15
_symmetry_space_group_name_H-M   'P 1'
_cell_length_a   12.96000000
_cell_length_b   15.06200000
_cell_length_c   16.04399949
_cell_angle_alpha   115.64200000
_cell_angle_beta   90.00000000
_cell_angle_gamma   90.00000000
_symmetry_Int_Tables_number   1
_chemical_formula_structural   NaCd4H19C19N8O15
_chemical_formula_sum   'Na4 Cd16 H76 C76 N32 O60'
_cell_volume   2823.40712098
_cell_formula_units_Z   4
loop_
 _symmetry_equiv_pos_site_id
 _symmetry_equiv_pos_as_xyz
  1  'x, y, z'
loop_
 _atom_site_label
 _atom_site_fract_x
 _atom_site_fract_y
 _atom_site_fract_z
 _atom_site_charge
 Na 0.49963 0.5919 0.0338   0.929776
 Na 0.50037 0.0919 0.0338   0.929776
 Na 0.99963 0.5919 0.5338   0.929776
 Na 0.000369999999997 0.0919 0.5338   0.929776
 Cd 0.234832 0.484315 0.907682   1.035406
 Cd 0.765168 0.984315 0.907682   1.035406
 Cd 0.734832 0.484315 0.407682   1.035406
 Cd 0.265168 0.984315 0.407682   1.035406
 Cd 0.190384 0.153215 0.02029   1.021142
 Cd 0.809616 0.653215 0.02029   1.021142
 Cd 0.690384 0.153215 0.52029   1.021142
 Cd 0.309616 0.653215 0.52029   1.021142
 Cd 0.31567 0.22959 0.40405   1.013752
 Cd 0.68433 0.72959 0.40405   1.013752
 Cd 0.81567 0.22959 0.90405   1.013752
 Cd 0.18433 0.72959 0.90405   1.013752
 Cd 0.15088 0.61716 0.30893   1.058105
 Cd 0.84912 0.11716 0.30893   1.058105
 Cd 0.65088 0.61716 0.80893   1.058105
 Cd 0.34912 0.11716 0.80893   1.058105
 H 0.3646 0.3162 0.7318   0.073225
 H 0.6354 0.8162 0.7318   0.073225
 H 0.8646 0.3162 0.2318   0.073225
 H 0.1354 0.8162 0.2318   0.073225
 H 0.4193 0.4166 0.7531   0.083547
 H 0.5807 0.9166 0.7531   0.083547
 H 0.9193 0.4166 0.2531   0.083547
 H 0.0807 0.9166 0.2531   0.083547
 H 0.3857 0.4019 0.6077   0.077082
 H 0.6143 0.9019 0.6077   0.077082
 H 0.8857 0.4019 0.1077   0.077082
 H 0.1143 0.9019 0.1077   0.077082
 H 0.4373 0.3034 0.5968   0.07595
 H 0.5627 0.8034 0.5968   0.07595
 H 0.9373 0.3034 0.0968   0.07595
 H 0.0627 0.8034 0.0968   0.07595
 H 0.1964 0.4071 0.5903   0.080467
 H 0.8036 0.9071 0.5903   0.080467
 H 0.6964 0.4071 0.0903   0.080467
 H 0.3036 0.9071 0.0903   0.080467
 H 0.1334 0.3095 0.563   0.084579
 H 0.8666 0.8095 0.563   0.084579
 H 0.6334 0.3095 0.063   0.084579
 H 0.3666 0.8095 0.063   0.084579
 H 0.1147 0.4109 0.7196   0.076627
 H 0.8853 0.9109 0.7196   0.076627
 H 0.6147 0.4109 0.2196   0.076627
 H 0.3853 0.9109 0.2196   0.076627
 H 0.1674 0.3114 0.7049   0.088751
 H 0.8326 0.8114 0.7049   0.088751
 H 0.6674 0.3114 0.2049   0.088751
 H 0.3326 0.8114 0.2049   0.088751
 H 0.1396 0.3639 0.2249   0.068784
 H 0.8604 0.8639 0.2249   0.068784
 H 0.6396 0.3639 0.7249   0.068784
 H 0.3604 0.8639 0.7249   0.068784
 H 0.0796 0.2884 0.9082   0.050517
 H 0.9204 0.7884 0.9082   0.050517
 H 0.5796 0.2884 0.4082   0.050517
 H 0.4204 0.7884 0.4082   0.050517
 H 0.556 0.6438 0.618   0.052275
 H 0.444 0.1438 0.618   0.052275
 H 0.056 0.6438 0.118   0.052275
 H 0.944 0.1438 0.118   0.052275
 H 0.2821 0.2338 0.5723   0.284543
 H 0.7179 0.7338 0.5723   0.284543
 H 0.7821 0.2338 0.0723   0.284543
 H 0.2179 0.7338 0.0723   0.284543
 H 0.2692 0.4814 0.7449   0.251768
 H 0.7308 0.9814 0.7449   0.251768
 H 0.7692 0.4814 0.2449   0.251768
 H 0.2308 0.9814 0.2449   0.251768
 H 0.4983 0.8139 0.1333   0.430542
 H 0.5017 0.3139 0.1333   0.430542
 H 0.9983 0.8139 0.6333   0.430542
 H 0.0017 0.3139 0.6333   0.430542
 H 0.5993 0.7829 0.1563   0.472736
 H 0.4007 0.2829 0.1563   0.472736
 H 0.0993 0.7829 0.6563   0.472736
 H 0.9007 0.2829 0.6563   0.472736
 H 0.5306 0.5906 0.213   0.446104
 H 0.4694 0.0906 0.213   0.446104
 H 0.0306 0.5906 0.713   0.446104
 H 0.9694 0.0906 0.713   0.446104
 H 0.4216 0.5736 0.197   0.427845
 H 0.5784 0.0736 0.197   0.427845
 H 0.9216 0.5736 0.697   0.427845
 H 0.0784 0.0736 0.697   0.427845
 H 0.5889 0.4127 0.9535   0.495069
 H 0.4111 0.9127 0.9535   0.495069
 H 0.0889 0.4127 0.4535   0.495069
 H 0.9111 0.9127 0.4535   0.495069
 H 0.4789 0.4027 0.8955   0.499043
 H 0.5211 0.9027 0.8955   0.499043
 H 0.9789 0.4027 0.3955   0.499043
 H 0.0211 0.9027 0.3955   0.499043
 C 0.3624 0.3741 0.72   -0.011653
 C 0.6376 0.8741 0.72   -0.011653
 C 0.8624 0.3741 0.22   -0.011653
 C 0.1376 0.8741 0.22   -0.011653
 C 0.3755 0.3433 0.6176   -0.002177
 C 0.6245 0.8433 0.6176   -0.002177
 C 0.8755 0.3433 0.1176   -0.002177
 C 0.1245 0.8433 0.1176   -0.002177
 C 0.1923 0.3469 0.5981   0.001059
 C 0.8077 0.8469 0.5981   0.001059
 C 0.6923 0.3469 0.0981   0.001059
 C 0.3077 0.8469 0.0981   0.001059
 C 0.1769 0.3717 0.6979   -0.020094
 C 0.8231 0.8717 0.6979   -0.020094
 C 0.6769 0.3717 0.1979   -0.020094
 C 0.3231 0.8717 0.1979   -0.020094
 C 0.2638 0.5655 0.12163   0.650797
 C 0.7362 0.0655 0.12163   0.650797
 C 0.7638 0.5655 0.62163   0.650797
 C 0.2362 0.0655 0.62163   0.650797
 C 0.2357 0.4699 0.12104   -0.055208
 C 0.7643 0.9699 0.12104   -0.055208
 C 0.7357 0.4699 0.62104   -0.055208
 C 0.2643 0.9699 0.62104   -0.055208
 C 0.2411 0.371 0.05937   -0.003825
 C 0.7589 0.871 0.05937   -0.003825
 C 0.7411 0.371 0.55937   -0.003825
 C 0.2589 0.871 0.55937   -0.003825
 C 0.2873 0.3157 0.9662   0.671145
 C 0.7127 0.8157 0.9662   0.671145
 C 0.7873 0.3157 0.4662   0.671145
 C 0.2127 0.8157 0.4662   0.671145
 C 0.1717 0.3817 0.18261   0.301803
 C 0.8283 0.8817 0.18261   0.301803
 C 0.6717 0.3817 0.68261   0.301803
 C 0.3283 0.8817 0.68261   0.301803
 C 0.0124 0.5771 0.91665   0.65144
 C 0.9876 0.0771 0.91665   0.65144
 C 0.5124 0.5771 0.41665   0.65144
 C 0.4876 0.0771 0.41665   0.65144
 C 0.9924 0.476 0.9103   -0.05699
 C 0.0076 0.976 0.9103   -0.05699
 C 0.4924 0.476 0.4103   -0.05699
 C 0.5076 0.976 0.4103   -0.05699
 C 0.9038 0.41964 0.90244   -0.019204
 C 0.0962 0.91964 0.90244   -0.019204
 C 0.4038 0.41964 0.40244   -0.019204
 C 0.5962 0.91964 0.40244   -0.019204
 C 0.79 0.4332 0.89764   0.641693
 C 0.21 0.9332 0.89764   0.641693
 C 0.29 0.4332 0.39764   0.641693
 C 0.71 0.9332 0.39764   0.641693
 C 0.0388 0.3383 0.9063   0.323857
 C 0.9612 0.8383 0.9063   0.323857
 C 0.5388 0.3383 0.4063   0.323857
 C 0.4612 0.8383 0.4063   0.323857
 C 0.2348 0.62475 0.68799   0.645935
 C 0.7652 0.12475 0.68799   0.645935
 C 0.7348 0.62475 0.18799   0.645935
 C 0.2652 0.12475 0.18799   0.645935
 C 0.3483 0.6327 0.70074   -0.048069
 C 0.6517 0.1327 0.70074   -0.048069
 C 0.8483 0.6327 0.20074   -0.048069
 C 0.1517 0.1327 0.20074   -0.048069
 C 0.4207 0.63777 0.76742   0.008723
 C 0.5793 0.13777 0.76742   0.008723
 C 0.9207 0.63777 0.26742   0.008723
 C 0.0793 0.13777 0.26742   0.008723
 C 0.4126 0.6307 0.85778   0.64934
 C 0.5874 0.1307 0.85778   0.64934
 C 0.9126 0.6307 0.35778   0.64934
 C 0.0874 0.1307 0.35778   0.64934
 C 0.5015 0.6417 0.6548   0.295228
 C 0.4985 0.1417 0.6548   0.295228
 C 0.0015 0.6417 0.1548   0.295228
 C 0.9985 0.1417 0.1548   0.295228
 N 0.2887 0.288 0.56141   -0.443296
 N 0.7113 0.788 0.56141   -0.443296
 N 0.7887 0.288 0.06141   -0.443296
 N 0.2113 0.788 0.06141   -0.443296
 N 0.2644 0.42651 0.75495   -0.41586
 N 0.7356 0.92651 0.75495   -0.41586
 N 0.7644 0.42651 0.25495   -0.41586
 N 0.2356 0.92651 0.25495   -0.41586
 N 0.2021 0.31615 0.09873   -0.446701
 N 0.7979 0.81615 0.09873   -0.446701
 N 0.7021 0.31615 0.59873   -0.446701
 N 0.2979 0.81615 0.59873   -0.446701
 N 0.1912 0.47208 0.19943   -0.416663
 N 0.8088 0.97208 0.19943   -0.416663
 N 0.6912 0.47208 0.69943   -0.416663
 N 0.3088 0.97208 0.69943   -0.416663
 N 0.0768 0.41952 0.90936   -0.453352
 N 0.9232 0.91952 0.90936   -0.453352
 N 0.5768 0.41952 0.40936   -0.453352
 N 0.4232 0.91952 0.40936   -0.453352
 N 0.93563 0.33268 0.90017   -0.438829
 N 0.06437 0.83268 0.90017   -0.438829
 N 0.43563 0.33268 0.40017   -0.438829
 N 0.56437 0.83268 0.40017   -0.438829
 N 0.40412 0.63584 0.62885   -0.452023
 N 0.59588 0.13584 0.62885   -0.452023
 N 0.90412 0.63584 0.12885   -0.452023
 N 0.09588 0.13584 0.12885   -0.452023
 N 0.51511 0.64416 0.73755   -0.445357
 N 0.48489 0.14416 0.73755   -0.445357
 N 0.01511 0.64416 0.23755   -0.445357
 N 0.98489 0.14416 0.23755   -0.445357
 O 0.29228 0.57054 0.0486   -0.669479
 O 0.70772 0.07054 0.0486   -0.669479
 O 0.79228 0.57054 0.5486   -0.669479
 O 0.20772 0.07054 0.5486   -0.669479
 O 0.25753 0.63902 0.1974   -0.584638
 O 0.74247 0.13902 0.1974   -0.584638
 O 0.75753 0.63902 0.6974   -0.584638
 O 0.24247 0.13902 0.6974   -0.584638
 O 0.32176 0.35425 0.91791   -0.615465
 O 0.67824 0.85425 0.91791   -0.615465
 O 0.82176 0.35425 0.41791   -0.615465
 O 0.17824 0.85425 0.41791   -0.615465
 O 0.28489 0.22312 0.93673   -0.593602
 O 0.71511 0.72312 0.93673   -0.593602
 O 0.78489 0.22312 0.43673   -0.593602
 O 0.21511 0.72312 0.43673   -0.593602
 O 0.10817 0.59788 0.91646   -0.625962
 O 0.89183 0.09788 0.91646   -0.625962
 O 0.60817 0.59788 0.41646   -0.625962
 O 0.39183 0.09788 0.41646   -0.625962
 O 0.94401 0.63308 0.92163   -0.564722
 O 0.05599 0.13308 0.92163   -0.564722
 O 0.44401 0.63308 0.42163   -0.564722
 O 0.55599 0.13308 0.42163   -0.564722
 O 0.75311 0.51519 0.90518   -0.639867
 O 0.24689 0.01519 0.90518   -0.639867
 O 0.25311 0.51519 0.40518   -0.639867
 O 0.74689 0.01519 0.40518   -0.639867
 O 0.73344 0.36045 0.885   -0.600083
 O 0.26656 0.86045 0.885   -0.600083
 O 0.23344 0.36045 0.385   -0.600083
 O 0.76656 0.86045 0.385   -0.600083
 O 0.19701 0.61877 0.61545   -0.599021
 O 0.80299 0.11877 0.61545   -0.599021
 O 0.69701 0.61877 0.11545   -0.599021
 O 0.30299 0.11877 0.11545   -0.599021
 O 0.18002 0.62036 0.75151   -0.615089
 O 0.81998 0.12036 0.75151   -0.615089
 O 0.68002 0.62036 0.25151   -0.615089
 O 0.31998 0.12036 0.25151   -0.615089
 O 0.32557 0.63171 0.894   -0.646571
 O 0.67443 0.13171 0.894   -0.646571
 O 0.82557 0.63171 0.394   -0.646571
 O 0.17443 0.13171 0.394   -0.646571
 O 0.49649 0.62056 0.89243   -0.662264
 O 0.50351 0.12056 0.89243   -0.662264
 O 0.99649 0.62056 0.39243   -0.662264
 O 0.00351 0.12056 0.39243   -0.662264
 O 0.5431 0.7668 0.1283   -0.90811
 O 0.4569 0.2668 0.1283   -0.90811
 O 0.0431 0.7668 0.6283   -0.90811
 O 0.9569 0.2668 0.6283   -0.90811
 O 0.4835 0.583 0.1775   -0.935329
 O 0.5165 0.083 0.1775   -0.935329
 O 0.9835 0.583 0.6775   -0.935329
 O 0.0165 0.083 0.6775   -0.935329
 O 0.5285 0.4305 0.93529   -1.029151
 O 0.4715 0.9305 0.93529   -1.029151
 O 0.0285 0.4305 0.43529   -1.029151
 O 0.9715 0.9305 0.43529   -1.029151
