{'_ref': 'TBD', '_srcid': 'CAKYAQ_clean', 'submitters': [{'name': 'Dalar Nazarian Jeff Camp and David Sholl', 'email': 'dalar@gatech.edu jcamp6@gatech.edu'}], '_method': 'VASP DFT with PBE;DDEC'}
data_MnH10C14(NO2)2
_symmetry_space_group_name_H-M   'P 1'
_cell_length_a   11.94740016
_cell_length_b   11.94740029
_cell_length_c   16.24600000
_cell_angle_alpha   72.26530091
_cell_angle_beta   72.26530071
_cell_angle_gamma   77.79970281
_symmetry_Int_Tables_number   1
_chemical_formula_structural   MnH10C14(NO2)2
_chemical_formula_sum   'Mn4 H40 C56 N8 O16'
_cell_volume   2085.75302116
_cell_formula_units_Z   4
loop_
 _symmetry_equiv_pos_site_id
 _symmetry_equiv_pos_as_xyz
  1  'x, y, z'
loop_
 _atom_site_label
 _atom_site_fract_x
 _atom_site_fract_y
 _atom_site_fract_z
 _atom_site_charge
 Mn 0.83314 0.61304 0.04752   1.025664
 Mn 0.38696 0.16686 0.45248   1.025664
 Mn 0.16686 0.38696 0.95248   1.025664
 Mn 0.61304 0.83314 0.54752   1.025664
 H 0.1921 0.3479 0.2241   0.085566
 H 0.8232 0.5302 0.4747   0.283453
 H 0.7109 0.3531 0.4889   0.121035
 H 0.8568 0.51 0.2598   0.106554
 H 0.0191 0.4259 0.4581   0.112628
 H 0.5435 0.5769 0.3214   0.127006
 H 0.7355 0.6211 0.3312   0.102782
 H 0.6675 0.6323 0.428   0.093832
 H 0.5928 0.2184 0.5062   0.063984
 H 0.434 0.4322 0.3395   0.057396
 H 0.6521 0.8079 0.2759   0.085567
 H 0.4698 0.1768 0.0253   0.283453
 H 0.6469 0.2891 0.0111   0.121035
 H 0.49 0.1432 0.2402   0.106554
 H 0.5741 0.9809 0.0419   0.112628
 H 0.4231 0.4565 0.1786   0.127003
 H 0.3789 0.2645 0.1688   0.102784
 H 0.3677 0.3325 0.072   0.093832
 H 0.7816 0.4072 0.9938   0.063984
 H 0.5678 0.566 0.1605   0.057394
 H 0.8079 0.6521 0.7759   0.085566
 H 0.1768 0.4698 0.5253   0.283452
 H 0.2891 0.6469 0.5111   0.121032
 H 0.1432 0.49 0.7402   0.106554
 H 0.9809 0.5741 0.5419   0.112629
 H 0.4565 0.4231 0.6786   0.127004
 H 0.2645 0.3789 0.6688   0.102782
 H 0.3325 0.3677 0.572   0.093832
 H 0.4072 0.7816 0.4938   0.063984
 H 0.566 0.5678 0.6605   0.057395
 H 0.3479 0.1921 0.7241   0.085567
 H 0.5302 0.8232 0.9747   0.283452
 H 0.3531 0.7109 0.9889   0.121032
 H 0.51 0.8568 0.7598   0.106554
 H 0.4259 0.0191 0.9581   0.112629
 H 0.5769 0.5435 0.8214   0.127001
 H 0.6211 0.7355 0.8312   0.102784
 H 0.6323 0.6675 0.928   0.093832
 H 0.2184 0.5928 0.0062   0.063984
 H 0.4322 0.434 0.8395   0.057392
 C 0.1244 0.38 0.2603   -0.05498
 C 0.0255 0.4311 0.2273   -0.132964
 C 0.9205 0.4803 0.3684   0.203142
 C 0.653 0.374 0.4575   -0.224324
 C 0.1223 0.3767 0.3473   -0.122347
 C 0.9236 0.4788 0.2814   -0.157836
 C 0.2239 0.3139 0.3854   0.634187
 C 0.6409 0.4837 0.4035   0.140645
 C 0.0202 0.4274 0.4003   -0.163186
 C 0.0271 0.4287 0.135   0.711026
 C 0.5571 0.5031 0.3602   -0.226664
 C 0.7145 0.5771 0.3935   3.9e-05
 C 0.5815 0.2925 0.4671   0.192133
 C 0.4899 0.4149 0.3724   0.185945
 C 0.62 0.8756 0.2397   -0.054979
 C 0.5689 0.9745 0.2727   -0.132964
 C 0.5197 0.0795 0.1316   0.203143
 C 0.626 0.347 0.0425   -0.224324
 C 0.6233 0.8777 0.1527   -0.122347
 C 0.5212 0.0764 0.2186   -0.157836
 C 0.6861 0.7761 0.1146   0.634187
 C 0.5163 0.3591 0.0965   0.140645
 C 0.5726 0.9798 0.0997   -0.163186
 C 0.5713 0.9729 0.365   0.711029
 C 0.4969 0.4429 0.1398   -0.226664
 C 0.4229 0.2855 0.1065   3.8e-05
 C 0.7075 0.4185 0.0329   0.192133
 C 0.5851 0.5101 0.1276   0.185945
 C 0.8756 0.62 0.7397   -0.05498
 C 0.9745 0.5689 0.7727   -0.132964
 C 0.0795 0.5197 0.6316   0.203142
 C 0.347 0.626 0.5425   -0.224324
 C 0.8777 0.6233 0.6527   -0.122346
 C 0.0764 0.5212 0.7186   -0.157836
 C 0.7761 0.6861 0.6146   0.634188
 C 0.3591 0.5163 0.5965   0.140645
 C 0.9798 0.5726 0.5997   -0.163186
 C 0.9729 0.5713 0.865   0.711026
 C 0.4429 0.4969 0.6398   -0.226665
 C 0.2855 0.4229 0.6065   3.9e-05
 C 0.4185 0.7075 0.5329   0.192132
 C 0.5101 0.5851 0.6276   0.185945
 C 0.38 0.1244 0.7603   -0.054979
 C 0.4311 0.0255 0.7273   -0.132964
 C 0.4803 0.9205 0.8684   0.203143
 C 0.374 0.653 0.9575   -0.224324
 C 0.3767 0.1223 0.8473   -0.122347
 C 0.4788 0.9236 0.7814   -0.157836
 C 0.3139 0.2239 0.8854   0.634188
 C 0.4837 0.6409 0.9035   0.140645
 C 0.4274 0.0202 0.9003   -0.163186
 C 0.4287 0.0271 0.635   0.711029
 C 0.5031 0.5571 0.8602   -0.226664
 C 0.5771 0.7145 0.8935   3.8e-05
 C 0.2925 0.5815 0.9671   0.192133
 C 0.4149 0.4899 0.8724   0.185945
 N 0.8212 0.5288 0.4226   -0.376613
 N 0.4997 0.3105 0.4261   -0.351424
 N 0.4712 0.1788 0.0774   -0.376613
 N 0.6895 0.5003 0.0739   -0.351424
 N 0.1788 0.4712 0.5774   -0.376613
 N 0.5003 0.6895 0.5739   -0.351424
 N 0.5288 0.8212 0.9226   -0.376613
 N 0.3105 0.4997 0.9261   -0.351424
 O 0.2192 0.3056 0.4653   -0.595872
 O 0.3127 0.2653 0.3363   -0.601085
 O 0.1229 0.3893 0.0881   -0.595318
 O 0.9326 0.464 0.1109   -0.644402
 O 0.6944 0.7808 0.0347   -0.595872
 O 0.7347 0.6873 0.1637   -0.601085
 O 0.6107 0.8771 0.4119   -0.595318
 O 0.536 0.0674 0.3891   -0.644402
 O 0.7808 0.6944 0.5347   -0.595872
 O 0.6873 0.7347 0.6637   -0.601085
 O 0.8771 0.6107 0.9119   -0.595317
 O 0.0674 0.536 0.8891   -0.644402
 O 0.3056 0.2192 0.9653   -0.595872
 O 0.2653 0.3127 0.8363   -0.601085
 O 0.3893 0.1229 0.5881   -0.595318
 O 0.464 0.9326 0.6109   -0.644402
