{'_ref': 'TBD', '_srcid': 'CAKYAQ_clean', 'submitters': [{'name': 'Dalar Nazarian Jeff Camp and David Sholl', 'email': 'dalar@gatech.edu jcamp6@gatech.edu'}], '_method': 'VASP DFT with PBE;DDEC'}
data_Er2Mn3H18C42(NO4)6
_symmetry_space_group_name_H-M   'P 1'
_cell_length_a   15.22900000
_cell_length_b   15.22900011
_cell_length_c   15.85200000
_cell_angle_alpha   90.00000000
_cell_angle_beta   90.00000000
_cell_angle_gamma   119.99999976
_symmetry_Int_Tables_number   1
_chemical_formula_structural   Er2Mn3H18C42(NO4)6
_chemical_formula_sum   'Er4 Mn6 H36 C84 N12 O48'
_cell_volume   3183.88573279
_cell_formula_units_Z   2
loop_
 _symmetry_equiv_pos_site_id
 _symmetry_equiv_pos_as_xyz
  1  'x, y, z'
loop_
 _atom_site_label
 _atom_site_fract_x
 _atom_site_fract_y
 _atom_site_fract_z
 _atom_site_charge
 Er 0.33333 0.66666 0.75   1.187874
 Er 0.66667 0.33334 0.75   1.187874
 Er 0.66667 0.33334 0.25   1.187875
 Er 0.33333 0.66666 0.25   1.187875
 Mn 0.5 0.0 0.0   1.383796
 Mn 0.5 0.5 0.0   1.383757
 Mn 0.0 0.5 0.0   1.383793
 Mn 0.5 0.0 0.5   1.383794
 Mn 0.0 0.5 0.5   1.383757
 Mn 0.5 0.5 0.5   1.383792
 H 0.7086 0.9417 0.8433   0.110574
 H 0.2331 0.2914 0.8433   0.110573
 H 0.0583 0.7669 0.8433   0.110574
 H 0.2914 0.0583 0.8433   0.110576
 H 0.7669 0.7086 0.8433   0.110576
 H 0.9417 0.2331 0.8433   0.110577
 H 0.7669 0.0583 0.6567   0.110573
 H 0.9417 0.7086 0.6567   0.110573
 H 0.2914 0.2331 0.6567   0.110574
 H 0.2331 0.9417 0.6567   0.110577
 H 0.0583 0.2914 0.6567   0.110577
 H 0.7086 0.7669 0.6567   0.110577
 H 0.2914 0.0583 0.1567   0.110578
 H 0.7669 0.7086 0.1567   0.110578
 H 0.9417 0.2331 0.1567   0.110578
 H 0.7086 0.9417 0.1567   0.11058
 H 0.2331 0.2914 0.1567   0.11058
 H 0.0583 0.7669 0.1567   0.11058
 H 0.2331 0.9417 0.3433   0.110577
 H 0.0583 0.2914 0.3433   0.110577
 H 0.7086 0.7669 0.3433   0.110578
 H 0.7669 0.0583 0.3433   0.110581
 H 0.9417 0.7086 0.3433   0.110581
 H 0.2914 0.2331 0.3433   0.110581
 H 0.7978 0.8989 0.75   0.087771
 H 0.1011 0.2022 0.75   0.087773
 H 0.1011 0.8989 0.75   0.087772
 H 0.2022 0.1011 0.75   0.087793
 H 0.8989 0.7978 0.75   0.087795
 H 0.8989 0.1011 0.75   0.087793
 H 0.2022 0.1011 0.25   0.08777
 H 0.8989 0.7978 0.25   0.087773
 H 0.8989 0.1011 0.25   0.087772
 H 0.7978 0.8989 0.25   0.087793
 H 0.1011 0.2022 0.25   0.087795
 H 0.1011 0.8989 0.25   0.087793
 C 0.5049 0.8581 0.8591   0.653486
 C 0.5712 0.8375 0.8029   0.112822
 C 0.6743 0.8892 0.8049   -0.118179
 C 0.3532 0.4951 0.8591   0.653472
 C 0.2663 0.4288 0.8029   0.112813
 C 0.2149 0.3257 0.8049   -0.118173
 C 0.1419 0.6468 0.8591   0.653477
 C 0.1625 0.7337 0.8029   0.112822
 C 0.1108 0.7851 0.8049   -0.118181
 C 0.4951 0.1419 0.8591   0.653487
 C 0.4288 0.1625 0.8029   0.112822
 C 0.3257 0.1108 0.8049   -0.118177
 C 0.6468 0.5049 0.8591   0.653472
 C 0.7337 0.5712 0.8029   0.112813
 C 0.7851 0.6743 0.8049   -0.118171
 C 0.8581 0.3532 0.8591   0.653477
 C 0.8375 0.2663 0.8029   0.112821
 C 0.8892 0.2149 0.8049   -0.118179
 C 0.6468 0.1419 0.6409   0.653487
 C 0.7337 0.1625 0.6971   0.112821
 C 0.7851 0.1108 0.6951   -0.118177
 C 0.8581 0.5049 0.6409   0.653472
 C 0.8375 0.5712 0.6971   0.112812
 C 0.8892 0.6743 0.6951   -0.11817
 C 0.4951 0.3532 0.6409   0.653477
 C 0.4288 0.2663 0.6971   0.112821
 C 0.3257 0.2149 0.6951   -0.118179
 C 0.3532 0.8581 0.6409   0.653487
 C 0.2663 0.8375 0.6971   0.112822
 C 0.2149 0.8892 0.6951   -0.118181
 C 0.1419 0.4951 0.6409   0.653472
 C 0.1625 0.4288 0.6971   0.112813
 C 0.1108 0.3257 0.6951   -0.118174
 C 0.5049 0.6468 0.6409   0.653478
 C 0.5712 0.7337 0.6971   0.112822
 C 0.6743 0.7851 0.6951   -0.118183
 C 0.4951 0.1419 0.1409   0.653486
 C 0.4288 0.1625 0.1971   0.112823
 C 0.3257 0.1108 0.1951   -0.118181
 C 0.6468 0.5049 0.1409   0.653471
 C 0.7337 0.5712 0.1971   0.112813
 C 0.7851 0.6743 0.1951   -0.118175
 C 0.8581 0.3532 0.1409   0.653477
 C 0.8375 0.2663 0.1971   0.112822
 C 0.8892 0.2149 0.1951   -0.118183
 C 0.5049 0.8581 0.1409   0.653486
 C 0.5712 0.8375 0.1971   0.112822
 C 0.6743 0.8892 0.1951   -0.118179
 C 0.3532 0.4951 0.1409   0.653471
 C 0.2663 0.4288 0.1971   0.112813
 C 0.2149 0.3257 0.1951   -0.118173
 C 0.1419 0.6468 0.1409   0.653477
 C 0.1625 0.7337 0.1971   0.112822
 C 0.1108 0.7851 0.1951   -0.118181
 C 0.3532 0.8581 0.3591   0.653486
 C 0.2663 0.8375 0.3029   0.112822
 C 0.2149 0.8892 0.3049   -0.118178
 C 0.1419 0.4951 0.3591   0.653471
 C 0.1625 0.4288 0.3029   0.112813
 C 0.1108 0.3257 0.3049   -0.118172
 C 0.5049 0.6468 0.3591   0.653477
 C 0.5712 0.7337 0.3029   0.112822
 C 0.6743 0.7851 0.3049   -0.118181
 C 0.6468 0.1419 0.3591   0.653487
 C 0.7337 0.1625 0.3029   0.112823
 C 0.7851 0.1108 0.3049   -0.118182
 C 0.8581 0.5049 0.3591   0.653472
 C 0.8375 0.5712 0.3029   0.112814
 C 0.8892 0.6743 0.3049   -0.118176
 C 0.4951 0.3532 0.3591   0.653477
 C 0.4288 0.2663 0.3029   0.112822
 C 0.3257 0.2149 0.3049   -0.118185
 C 0.7273 0.86365 0.75   -0.031468
 C 0.13635 0.2727 0.75   -0.031464
 C 0.13635 0.86365 0.75   -0.031468
 C 0.2727 0.13635 0.75   -0.031477
 C 0.86365 0.7273 0.75   -0.031472
 C 0.86365 0.13635 0.75   -0.031477
 C 0.2727 0.13635 0.25   -0.031467
 C 0.86365 0.7273 0.25   -0.031463
 C 0.86365 0.13635 0.25   -0.031467
 C 0.7273 0.86365 0.25   -0.031475
 C 0.13635 0.2727 0.25   -0.031471
 C 0.13635 0.86365 0.25   -0.031476
 N 0.519 0.7595 0.75   -0.271129
 N 0.2405 0.481 0.75   -0.271119
 N 0.2405 0.7595 0.75   -0.27113
 N 0.481 0.2405 0.75   -0.271129
 N 0.7595 0.519 0.75   -0.271119
 N 0.7595 0.2405 0.75   -0.271129
 N 0.481 0.2405 0.25   -0.27113
 N 0.7595 0.519 0.25   -0.271119
 N 0.7595 0.2405 0.25   -0.27113
 N 0.519 0.7595 0.25   -0.271129
 N 0.2405 0.481 0.25   -0.271119
 N 0.2405 0.7595 0.25   -0.27113
 O 0.5493 0.9341 0.9068   -0.626682
 O 0.4108 0.7987 0.85467   -0.56855
 O 0.3848 0.4507 0.9068   -0.626668
 O 0.3879 0.5892 0.85467   -0.568527
 O 0.0659 0.6152 0.9068   -0.62668
 O 0.2013 0.6121 0.85467   -0.568536
 O 0.4507 0.0659 0.9068   -0.626682
 O 0.5892 0.2013 0.85467   -0.56855
 O 0.6152 0.5493 0.9068   -0.626668
 O 0.6121 0.4108 0.85467   -0.568527
 O 0.9341 0.3848 0.9068   -0.62668
 O 0.7987 0.3879 0.85467   -0.568536
 O 0.6152 0.0659 0.5932   -0.626682
 O 0.6121 0.2013 0.64533   -0.56855
 O 0.9341 0.5493 0.5932   -0.626667
 O 0.7987 0.4108 0.64533   -0.568527
 O 0.4507 0.3848 0.5932   -0.626681
 O 0.5892 0.3879 0.64533   -0.568536
 O 0.3848 0.9341 0.5932   -0.626682
 O 0.3879 0.7987 0.64533   -0.56855
 O 0.0659 0.4507 0.5932   -0.626667
 O 0.2013 0.5892 0.64533   -0.568527
 O 0.5493 0.6152 0.5932   -0.626681
 O 0.4108 0.6121 0.64533   -0.568536
 O 0.4507 0.0659 0.0932   -0.626682
 O 0.5892 0.2013 0.14533   -0.56855
 O 0.6152 0.5493 0.0932   -0.626668
 O 0.6121 0.4108 0.14533   -0.568527
 O 0.9341 0.3848 0.0932   -0.62668
 O 0.7987 0.3879 0.14533   -0.568536
 O 0.5493 0.9341 0.0932   -0.626682
 O 0.4108 0.7987 0.14533   -0.56855
 O 0.3848 0.4507 0.0932   -0.626668
 O 0.3879 0.5892 0.14533   -0.568527
 O 0.0659 0.6152 0.0932   -0.62668
 O 0.2013 0.6121 0.14533   -0.568536
 O 0.3848 0.9341 0.4068   -0.626682
 O 0.3879 0.7987 0.35467   -0.568549
 O 0.0659 0.4507 0.4068   -0.626667
 O 0.2013 0.5892 0.35467   -0.568527
 O 0.5493 0.6152 0.4068   -0.626681
 O 0.4108 0.6121 0.35467   -0.568536
 O 0.6152 0.0659 0.4068   -0.626682
 O 0.6121 0.2013 0.35467   -0.568549
 O 0.9341 0.5493 0.4068   -0.626667
 O 0.7987 0.4108 0.35467   -0.568527
 O 0.4507 0.3848 0.4068   -0.626681
 O 0.5892 0.3879 0.35467   -0.568536
