{'_ref': 'TBD', '_srcid': 'CAKYAQ_clean', 'submitters': [{'name': 'Dalar Nazarian Jeff Camp and David Sholl', 'email': 'dalar@gatech.edu jcamp6@gatech.edu'}], '_method': 'VASP DFT with PBE;DDEC'}
data_ZnH7C13NO4
_symmetry_space_group_name_H-M   'P 1'
_cell_length_a   13.99600016
_cell_length_b   14.62188318
_cell_length_c   18.58508069
_cell_angle_alpha   69.12458801
_cell_angle_beta   67.88064624
_cell_angle_gamma   61.40622098
_symmetry_Int_Tables_number   1
_chemical_formula_structural   ZnH7C13NO4
_chemical_formula_sum   'Zn8 H56 C104 N8 O32'
_cell_volume   3020.33713016
_cell_formula_units_Z   8
loop_
 _symmetry_equiv_pos_site_id
 _symmetry_equiv_pos_as_xyz
  1  'x, y, z'
loop_
 _atom_site_label
 _atom_site_fract_x
 _atom_site_fract_y
 _atom_site_fract_z
 _atom_site_charge
 Zn 0.91873 0.56372 0.89842   0.965542
 Zn 0.11894 0.76392 0.68432   0.967244
 Zn 0.38087 0.93628 0.60158   0.966924
 Zn 0.56718 0.73608 0.81568   0.967879
 Zn 0.08127 0.43628 0.10158   0.965542
 Zn 0.88106 0.23608 0.31568   0.967244
 Zn 0.61913 0.06372 0.39842   0.966924
 Zn 0.43282 0.26392 0.18432   0.967879
 H 0.2891 0.4108 0.791   0.095613
 H 0.4828 0.357 0.7546   0.09434
 H 0.5584 0.4635 0.7613   0.10317
 H 0.1057 0.969 0.823   0.10399
 H 0.0079 0.9436 0.955   0.093576
 H 0.0341 0.7723 0.0285   0.101045
 H 0.7212 0.6369 0.0315   0.073925
 H 0.6093 0.7835 0.0875   0.131248
 H 0.8122 0.9261 0.9293   0.135712
 H 0.9146 0.7755 0.8767   0.082325
 H 0.6675 0.1332 0.1088   0.093356
 H 0.7679 0.9913 0.0487   0.131952
 H 0.481 0.9675 0.0813   0.124072
 H 0.3865 0.1198 0.131   0.07971
 H 0.4909 0.0892 0.709   0.097664
 H 0.5944 0.143 0.7454   0.093637
 H 0.7832 0.0365 0.7387   0.100347
 H 0.8977 0.531 0.677   0.101731
 H 0.9065 0.5564 0.545   0.093339
 H 0.8349 0.7277 0.4715   0.100957
 H 0.3896 0.8631 0.4685   0.07501
 H 0.4803 0.7165 0.4125   0.132013
 H 0.6676 0.5739 0.5707   0.133924
 H 0.5668 0.7245 0.6233   0.082296
 H 0.9095 0.3668 0.3912   0.092666
 H 0.8079 0.5087 0.4513   0.133213
 H 0.5298 0.5325 0.4187   0.12442
 H 0.6373 0.3802 0.369   0.080278
 H 0.7109 0.5892 0.209   0.095613
 H 0.5172 0.643 0.2454   0.09434
 H 0.4416 0.5365 0.2387   0.10317
 H 0.8943 0.031 0.177   0.103989
 H 0.9921 0.0564 0.045   0.093576
 H 0.9659 0.2277 0.9715   0.101044
 H 0.2788 0.3631 0.9685   0.073925
 H 0.3907 0.2165 0.9125   0.131248
 H 0.1878 0.0739 0.0707   0.135712
 H 0.0854 0.2245 0.1233   0.082325
 H 0.3325 0.8668 0.8912   0.093356
 H 0.2321 0.0087 0.9513   0.131952
 H 0.519 0.0325 0.9187   0.124072
 H 0.6135 0.8802 0.869   0.07971
 H 0.5091 0.9108 0.291   0.097665
 H 0.4056 0.857 0.2546   0.093637
 H 0.2168 0.9635 0.2613   0.100347
 H 0.1023 0.469 0.323   0.10173
 H 0.0935 0.4436 0.455   0.093339
 H 0.1651 0.2723 0.5285   0.100955
 H 0.6104 0.1369 0.5315   0.07501
 H 0.5197 0.2835 0.5875   0.132013
 H 0.3324 0.4261 0.4293   0.133924
 H 0.4332 0.2755 0.3767   0.082296
 H 0.0905 0.6332 0.6088   0.092666
 H 0.1921 0.4913 0.5487   0.133213
 H 0.4702 0.4675 0.5813   0.12442
 H 0.3627 0.6198 0.631   0.080278
 C 0.1262 0.5848 0.8322   0.677429
 C 0.2505 0.549 0.8182   -0.175577
 C 0.3203 0.453 0.7934   -0.036778
 C 0.436 0.4202 0.7722   -0.132485
 C 0.4811 0.4832 0.7776   -0.036873
 C 0.4121 0.5756 0.8072   -0.134956
 C 0.2937 0.6113 0.8275   0.093304
 C 0.471 0.6338 0.8152   0.660204
 C 0.2459 0.8369 0.7309   0.707185
 C 0.1912 0.8127 0.8181   -0.166284
 C 0.1162 0.9003 0.8531   -0.031333
 C 0.0581 0.8854 0.9318   -0.136092
 C 0.0754 0.7825 0.9759   -0.051443
 C 0.1536 0.6937 0.9431   -0.11745
 C 0.2129 0.7079 0.8629   0.079888
 C 0.1709 0.5839 0.9971   0.655682
 C 0.74 0.696 0.0108   0.21898
 C 0.673 0.7831 0.0463   -0.213652
 C 0.7027 0.8688 0.0192   0.103301
 C 0.793 0.8674 0.9522   -0.210392
 C 0.8536 0.7767 0.9205   0.206155
 C 0.6292 0.1009 0.1019   0.201053
 C 0.6901 0.0148 0.0664   -0.20522
 C 0.6361 0.9624 0.0566   0.10947
 C 0.5208 0.0015 0.0841   -0.223836
 C 0.4646 0.0916 0.1162   0.179214
 C 0.5432 0.9152 0.6678   0.679971
 C 0.6177 0.951 0.6818   -0.179041
 C 0.5667 0.047 0.7066   -0.040158
 C 0.6284 0.0798 0.7278   -0.131205
 C 0.7419 0.0168 0.7224   -0.032874
 C 0.7949 0.9244 0.6928   -0.133907
 C 0.7325 0.8887 0.6725   0.095084
 C 0.92 0.8662 0.6848   0.65696
 C 0.8137 0.6631 0.7691   0.711444
 C 0.822 0.6873 0.6819   -0.170219
 C 0.8696 0.5997 0.6469   -0.02578
 C 0.8753 0.6146 0.5682   -0.138733
 C 0.8338 0.7175 0.5241   -0.049407
 C 0.7904 0.8063 0.5569   -0.116741
 C 0.7837 0.7921 0.6371   0.078834
 C 0.7519 0.9161 0.5029   0.655082
 C 0.4468 0.804 0.4892   0.219034
 C 0.5024 0.7169 0.4537   -0.21448
 C 0.5907 0.6312 0.4808   0.101636
 C 0.6126 0.6326 0.5478   -0.206128
 C 0.5508 0.7233 0.5795   0.204089
 C 0.832 0.3991 0.3981   0.201119
 C 0.7713 0.4852 0.4336   -0.207132
 C 0.6551 0.5376 0.4434   0.110107
 C 0.6064 0.4985 0.4159   -0.224642
 C 0.6724 0.4084 0.3838   0.179701
 C 0.8738 0.4152 0.1678   0.677429
 C 0.7495 0.451 0.1818   -0.175577
 C 0.6797 0.547 0.2066   -0.036778
 C 0.564 0.5798 0.2278   -0.132485
 C 0.5189 0.5168 0.2224   -0.036873
 C 0.5879 0.4244 0.1928   -0.134956
 C 0.7063 0.3887 0.1725   0.093304
 C 0.529 0.3662 0.1848   0.660204
 C 0.7541 0.1631 0.2691   0.707185
 C 0.8088 0.1873 0.1819   -0.166285
 C 0.8838 0.0997 0.1469   -0.031332
 C 0.9419 0.1146 0.0682   -0.136093
 C 0.9246 0.2175 0.0241   -0.051442
 C 0.8464 0.3063 0.0569   -0.117451
 C 0.7871 0.2921 0.1371   0.079888
 C 0.8291 0.4161 0.0029   0.655682
 C 0.26 0.304 0.9892   0.21898
 C 0.327 0.2169 0.9537   -0.213651
 C 0.2973 0.1312 0.9808   0.103301
 C 0.207 0.1326 0.0478   -0.210392
 C 0.1464 0.2233 0.0795   0.206155
 C 0.3708 0.8991 0.8981   0.201053
 C 0.3099 0.9852 0.9336   -0.20522
 C 0.3639 0.0376 0.9434   0.10947
 C 0.4792 0.9985 0.9159   -0.223836
 C 0.5354 0.9084 0.8838   0.179214
 C 0.4568 0.0848 0.3322   0.679971
 C 0.3823 0.049 0.3182   -0.179041
 C 0.4333 0.953 0.2934   -0.040158
 C 0.3716 0.9202 0.2722   -0.131205
 C 0.2581 0.9832 0.2776   -0.032874
 C 0.2051 0.0756 0.3072   -0.133907
 C 0.2675 0.1113 0.3275   0.095084
 C 0.08 0.1338 0.3152   0.65696
 C 0.1863 0.3369 0.2309   0.711444
 C 0.178 0.3127 0.3181   -0.17022
 C 0.1304 0.4003 0.3531   -0.02578
 C 0.1247 0.3854 0.4318   -0.138734
 C 0.1662 0.2825 0.4759   -0.049407
 C 0.2096 0.1937 0.4431   -0.116742
 C 0.2163 0.2079 0.3629   0.078834
 C 0.2481 0.0839 0.4971   0.655082
 C 0.5532 0.196 0.5108   0.219034
 C 0.4976 0.2831 0.5463   -0.21448
 C 0.4093 0.3688 0.5192   0.101636
 C 0.3874 0.3674 0.4522   -0.206128
 C 0.4492 0.2767 0.4205   0.204089
 C 0.168 0.6009 0.6019   0.201119
 C 0.2287 0.5148 0.5664   -0.207132
 C 0.3449 0.4624 0.5566   0.110107
 C 0.3936 0.5015 0.5841   -0.224642
 C 0.3276 0.5916 0.6162   0.179702
 N 0.8281 0.6909 0.9501   -0.345075
 N 0.5174 0.1396 0.127   -0.342067
 N 0.4691 0.8091 0.5499   -0.344936
 N 0.784 0.3604 0.373   -0.342194
 N 0.1719 0.3091 0.0499   -0.345075
 N 0.4826 0.8604 0.873   -0.342067
 N 0.5309 0.1909 0.4501   -0.344936
 N 0.216 0.6396 0.627   -0.342194
 O 0.0825 0.5212 0.8812   -0.557614
 O 0.07141 0.67408 0.7957   -0.598739
 O 0.24573 0.79274 0.6838   -0.626278
 O 0.28756 0.90538 0.7091   -0.568648
 O 0.573 0.6093 0.7827   -0.588654
 O 0.4168 0.7035 0.8549   -0.571899
 O 0.2646 0.5121 0.9939   -0.56876
 O 0.0782 0.5768 0.043   -0.629135
 O 0.4849 0.9788 0.6188   -0.559293
 O 0.54119 0.82592 0.7043   -0.599243
 O 0.72227 0.70726 0.8162   -0.628213
 O 0.90204 0.59462 0.7909   -0.569566
 O 0.965 0.8907 0.7173   -0.585445
 O 0.9752 0.7965 0.6451   -0.57243
 O 0.7706 0.9879 0.5061   -0.568271
 O 0.698 0.9232 0.457   -0.628762
 O 0.9175 0.4788 0.1188   -0.557615
 O 0.92859 0.32592 0.2043   -0.598739
 O 0.75427 0.20726 0.3162   -0.626278
 O 0.71244 0.09462 0.2909   -0.568648
 O 0.427 0.3907 0.2173   -0.588654
 O 0.5832 0.2965 0.1451   -0.571899
 O 0.7354 0.4879 0.0061   -0.56876
 O 0.9218 0.4232 0.957   -0.629135
 O 0.5151 0.0212 0.3812   -0.559293
 O 0.45881 0.17408 0.2957   -0.599243
 O 0.27773 0.29274 0.1838   -0.628213
 O 0.09796 0.40538 0.2091   -0.569566
 O 0.035 0.1093 0.2827   -0.585445
 O 0.0248 0.2035 0.3549   -0.57243
 O 0.2294 0.0121 0.4939   -0.568271
 O 0.302 0.0768 0.543   -0.628762
