{'_ref': 'TBD', '_srcid': 'CAKYAQ_clean', 'submitters': [{'name': 'Dalar Nazarian Jeff Camp and David Sholl', 'email': 'dalar@gatech.edu jcamp6@gatech.edu'}], '_method': 'VASP DFT with PBE;DDEC'}
data_U3Cu2P4H16(C7O5)4
_symmetry_space_group_name_H-M   'P 1'
_cell_length_a   9.59500021
_cell_length_b   10.33000014
_cell_length_c   13.67000000
_cell_angle_alpha   75.70200241
_cell_angle_beta   88.85400205
_cell_angle_gamma   65.34500218
_symmetry_Int_Tables_number   1
_chemical_formula_structural   U3Cu2P4H16(C7O5)4
_chemical_formula_sum   'U3 Cu2 P4 H16 C28 O20'
_cell_volume   1187.94330803
_cell_formula_units_Z   1
loop_
 _symmetry_equiv_pos_site_id
 _symmetry_equiv_pos_as_xyz
  1  'x, y, z'
loop_
 _atom_site_label
 _atom_site_fract_x
 _atom_site_fract_y
 _atom_site_fract_z
 _atom_site_charge
 U 0.76581 0.55021 0.99948   1.932749
 U 0.23419 0.44979 0.000520000000002   1.932914
 U 0.0 0.0 0.0   1.801974
 Cu 0.90208 0.03481 0.42043   0.986957
 Cu 0.09792 0.96519 0.57957   0.986865
 P 0.6256 0.3171 0.9134   1.632188
 P 0.9102 0.6886 0.12475   1.556082
 P 0.3744 0.6829 0.0866   1.632187
 P 0.0898 0.3114 0.87525   1.556078
 H 0.7683 0.1483 0.7726   0.04267
 H 0.4798 0.3457 0.5148   0.09911
 H 0.3035 0.5163 0.5966   0.111277
 H 0.3686 0.5062 0.7618   0.037418
 H 0.9394 0.416 0.2556   0.019765
 H 0.1997 0.3542 0.5056   0.107052
 H 0.2016 0.5838 0.4378   0.095362
 H 0.0745 0.7309 0.2808   0.077799
 H 0.2317 0.8517 0.2274   0.042675
 H 0.5202 0.6543 0.4852   0.099109
 H 0.6965 0.4837 0.4034   0.111277
 H 0.6314 0.4938 0.2382   0.037429
 H 0.0606 0.584 0.7444   0.01977
 H 0.8003 0.6458 0.4944   0.107051
 H 0.7984 0.4162 0.5622   0.095362
 H 0.9255 0.2691 0.7192   0.077803
 C 0.5726 0.3229 0.786   -0.395364
 C 0.6747 0.2242 0.7368   0.074705
 C 0.6411 0.2354 0.6345   -0.143803
 C 0.5042 0.3409 0.583   -0.014471
 C 0.399 0.4428 0.6317   -0.119301
 C 0.4368 0.4343 0.7305   0.081947
 C 0.7647 0.1437 0.5818   0.681929
 C 0.9916 0.5871 0.2528   -0.406595
 C 0.9903 0.4517 0.2938   0.07044
 C 0.0611 0.3669 0.3892   -0.148895
 C 0.1445 0.4144 0.4418   -0.010848
 C 0.1468 0.5505 0.4006   -0.108435
 C 0.0722 0.6379 0.3078   0.070854
 C 0.0413 0.2282 0.4347   0.685249
 C 0.4274 0.6771 0.214   -0.395366
 C 0.3253 0.7758 0.2632   0.074706
 C 0.3589 0.7646 0.3655   -0.143801
 C 0.4958 0.6591 0.417   -0.014469
 C 0.601 0.5572 0.3683   -0.119308
 C 0.5632 0.5657 0.2695   0.081945
 C 0.2353 0.8563 0.4182   0.681909
 C 0.0084 0.4129 0.7472   -0.406597
 C 0.0097 0.5483 0.7062   0.070439
 C 0.9389 0.6331 0.6108   -0.148886
 C 0.8555 0.5856 0.5582   -0.010833
 C 0.8532 0.4495 0.5994   -0.108435
 C 0.9278 0.3621 0.6922   0.070853
 C 0.9587 0.7718 0.5653   0.685221
 O 0.6872 0.4339 0.9034   -0.907407
 O 0.7473 0.1607 0.9586   -0.883531
 O 0.4884 0.3459 0.9749   -0.887251
 O 0.7439 0.7113 0.111   -0.813422
 O 0.9939 0.5879 0.0542   -1.071529
 O 0.9287 0.8326 0.1027   -0.835984
 O 0.7297 0.1368 0.4938   -0.605499
 O 0.9012 0.079 0.6265   -0.665741
 O 0.1225 0.146 0.5173   -0.606476
 O 0.9463 0.2065 0.3883   -0.639961
 O 0.3128 0.5661 0.0966   -0.907422
 O 0.2527 0.8393 0.0414   -0.883532
 O 0.5116 0.6541 0.0251   -0.887236
 O 0.2561 0.2887 0.889   -0.81343
 O 0.0061 0.4121 0.9458   -1.071508
 O 0.0713 0.1674 0.8973   -0.835982
 O 0.2703 0.8632 0.5062   -0.605536
 O 0.0988 0.921 0.3735   -0.665769
 O 0.8775 0.854 0.4827   -0.606532
 O 0.0537 0.7935 0.6117   -0.639967
