{'_ref': 'TBD', '_srcid': 'CAKYAQ_clean', 'submitters': [{'name': 'Dalar Nazarian Jeff Camp and David Sholl', 'email': 'dalar@gatech.edu jcamp6@gatech.edu'}], '_method': 'VASP DFT with PBE;DDEC'}
data_HoH6(C2O)6
_symmetry_space_group_name_H-M   'P 1'
_cell_length_a   10.74100042
_cell_length_b   11.28399985
_cell_length_c   26.15200000
_cell_angle_alpha   84.97000030
_cell_angle_beta   87.96300235
_cell_angle_gamma   62.56800117
_symmetry_Int_Tables_number   1
_chemical_formula_structural   HoH6(C2O)6
_chemical_formula_sum   'Ho6 H36 C72 O36'
_cell_volume   2802.3818573
_cell_formula_units_Z   6
loop_
 _symmetry_equiv_pos_site_id
 _symmetry_equiv_pos_as_xyz
  1  'x, y, z'
loop_
 _atom_site_label
 _atom_site_fract_x
 _atom_site_fract_y
 _atom_site_fract_z
 _atom_site_charge
 Ho 0.38087 0.03533 0.56029   2.021851
 Ho 0.34418 0.84616 0.7418   2.408764
 Ho 0.4114 0.61727 0.89967   2.033009
 Ho 0.61913 0.96467 0.43971   2.021872
 Ho 0.65582 0.15384 0.2582   2.408764
 Ho 0.5886 0.38273 0.10033   2.032985
 H 0.4534 0.4081 0.5757   0.113726
 H 0.5443 0.3875 0.4261   0.132913
 H 0.3389 0.3555 0.6465   0.119474
 H 0.3649 0.5198 0.6871   0.132354
 H 0.4389 0.1183 0.777   0.117618
 H 0.4544 0.2863 0.8187   0.134132
 H 0.0361 0.0061 0.5489   0.092538
 H 0.824 0.0181 0.5276   0.109542
 H 0.8531 0.7687 0.6513   0.118694
 H 0.0725 0.7501 0.6701   0.115891
 H 0.7109 0.8242 0.7583   0.116742
 H 0.9224 0.8336 0.7504   0.104656
 H 0.0183 0.6865 0.8958   0.098402
 H 0.8161 0.6631 0.9024   0.118083
 H 0.3622 0.0647 0.9271   0.121188
 H 0.5949 0.7805 0.0348   0.117273
 H 0.1304 0.374 0.9353   0.114239
 H 0.0518 0.6578 0.0313   0.119654
 H 0.5466 0.5919 0.4243   0.113909
 H 0.4557 0.6125 0.5739   0.1331
 H 0.6611 0.6445 0.3535   0.119477
 H 0.6351 0.4802 0.3129   0.132368
 H 0.5611 0.8817 0.223   0.117619
 H 0.5456 0.7137 0.1813   0.134133
 H 0.9639 0.9939 0.4511   0.092491
 H 0.176 0.9819 0.4724   0.109506
 H 0.1469 0.2313 0.3487   0.118695
 H 0.9275 0.2499 0.3299   0.115892
 H 0.2891 0.1758 0.2417   0.116742
 H 0.0776 0.1664 0.2496   0.104656
 H 0.9817 0.3135 0.1042   0.098396
 H 0.1839 0.3369 0.0976   0.118082
 H 0.6378 0.9353 0.0729   0.121403
 H 0.4051 0.2195 0.9652   0.117414
 H 0.8696 0.626 0.0647   0.114481
 H 0.9482 0.3422 0.9687   0.11998
 C 0.4887 0.2471 0.50066   0.764333
 C 0.4948 0.379 0.50065   -0.120544
 C 0.4714 0.4457 0.54499   -0.048318
 C 0.5256 0.4325 0.45576   -0.066537
 C 0.6751 0.9153 0.57548   0.731958
 C 0.3699 0.116 0.68064   0.83123
 C 0.3822 0.225 0.7076   -0.157678
 C 0.3633 0.341 0.68111   -0.035811
 C 0.3801 0.4393 0.70502   -0.062895
 C 0.4218 0.1994 0.75923   -0.060056
 C 0.4352 0.2986 0.78369   -0.040988
 C 0.2113 0.8775 0.6264   0.819077
 C 0.0752 0.8785 0.61147   -0.16151
 C 0.0002 0.9574 0.56928   -0.025271
 C 0.8729 0.9658 0.55665   -0.076492
 C 0.8186 0.895 0.5879   -0.091459
 C 0.8907 0.8153 0.63049   -0.076326
 C 0.0214 0.8055 0.64197   -0.048412
 C 0.4202 0.4124 0.75659   -0.134619
 C 0.4401 0.5187 0.78275   0.790159
 C 0.1296 0.7662 0.81665   0.810515
 C 0.993 0.759 0.82226   -0.136833
 C 0.6127 0.7235 0.83556   0.838601
 C 0.7413 0.7405 0.83132   -0.143388
 C 0.7735 0.7935 0.78582   -0.064215
 C 0.9002 0.8006 0.78132   -0.052483
 C 0.9587 0.7113 0.86754   -0.014254
 C 0.8356 0.6994 0.87172   -0.046904
 C 0.4376 0.808 0.95274   0.675664
 C 0.4698 0.9078 0.97729   -0.103038
 C 0.4171 0.0382 0.95669   -0.066568
 C 0.5558 0.8689 0.02084   -0.04656
 C 0.2303 0.5395 0.95666   0.633701
 C 0.116 0.5135 0.97993   -0.104138
 C 0.0785 0.4244 0.96184   -0.069015
 C 0.0318 0.5936 0.01894   -0.051929
 C 0.5113 0.7529 0.49934   0.76428
 C 0.5052 0.621 0.49935   -0.119897
 C 0.5286 0.5543 0.45501   -0.050208
 C 0.4744 0.5675 0.54424   -0.068294
 C 0.3249 0.0847 0.42452   0.731977
 C 0.6301 0.884 0.31936   0.831237
 C 0.6178 0.775 0.2924   -0.157677
 C 0.6367 0.659 0.31889   -0.03582
 C 0.6199 0.5607 0.29498   -0.062839
 C 0.5782 0.8006 0.24077   -0.060057
 C 0.5648 0.7014 0.21631   -0.040986
 C 0.7887 0.1225 0.3736   0.819079
 C 0.9248 0.1215 0.38853   -0.16152
 C 0.9998 0.0426 0.43072   -0.02521
 C 0.1271 0.0342 0.44335   -0.076491
 C 0.1814 0.105 0.4121   -0.09146
 C 0.1093 0.1847 0.36951   -0.076294
 C 0.9786 0.1945 0.35803   -0.048414
 C 0.5798 0.5876 0.24341   -0.134627
 C 0.5599 0.4813 0.21725   0.79016
 C 0.8704 0.2338 0.18335   0.810518
 C 0.007 0.241 0.17774   -0.13685
 C 0.3873 0.2765 0.16444   0.838602
 C 0.2587 0.2595 0.16868   -0.143389
 C 0.2265 0.2065 0.21418   -0.064217
 C 0.0998 0.1994 0.21868   -0.05248
 C 0.0413 0.2887 0.13246   -0.014162
 C 0.1644 0.3006 0.12828   -0.046894
 C 0.5624 0.192 0.04726   0.675559
 C 0.5302 0.0922 0.02271   -0.102322
 C 0.5829 0.9618 0.04331   -0.068447
 C 0.4442 0.1311 0.97916   -0.048429
 C 0.7697 0.4605 0.04334   0.633652
 C 0.884 0.4865 0.02007   -0.103806
 C 0.9215 0.5756 0.03816   -0.06991
 C 0.9682 0.4064 0.98106   -0.052781
 O 0.4264 0.2184 0.53809   -0.725547
 O 0.5435 0.1795 0.46429   -0.691029
 O 0.6305 0.9511 0.52948   -0.881236
 O 0.5938 0.9116 0.61058   -0.661167
 O 0.2452 0.9535 0.60001   -0.762447
 O 0.3347 0.1442 0.63319   -0.723099
 O 0.1591 0.8031 0.77403   -0.792768
 O 0.3942 0.0091 0.70516   -0.865275
 O 0.273 0.8057 0.66583   -0.812176
 O 0.4369 0.6173 0.75471   -0.784896
 O 0.5122 0.7941 0.80409   -0.903851
 O 0.6053 0.6447 0.87004   -0.679719
 O 0.2072 0.734 0.85617   -0.773448
 O 0.3556 0.846 0.91573   -0.655665
 O 0.4945 0.6902 0.97164   -0.644777
 O 0.25615 0.6282 0.97186   -0.628579
 O 0.3024 0.4682 0.92137   -0.656299
 O 0.4633 0.4977 0.83008   -0.704673
 O 0.5736 0.7816 0.46191   -0.725533
 O 0.4565 0.8205 0.53571   -0.691019
 O 0.3695 0.0489 0.47052   -0.88124
 O 0.4062 0.0884 0.38942   -0.661169
 O 0.7548 0.0465 0.39999   -0.762452
 O 0.6653 0.8558 0.36681   -0.723101
 O 0.8409 0.1969 0.22597   -0.792767
 O 0.6058 0.9909 0.29484   -0.865276
 O 0.727 0.1943 0.33417   -0.812176
 O 0.5631 0.3827 0.24529   -0.784897
 O 0.4878 0.2059 0.19591   -0.903851
 O 0.3947 0.3553 0.12996   -0.679722
 O 0.7928 0.266 0.14383   -0.77345
 O 0.6444 0.154 0.08427   -0.655644
 O 0.5055 0.3098 0.02836   -0.644776
 O 0.74385 0.3718 0.02814   -0.628576
 O 0.6976 0.5318 0.07863   -0.656315
 O 0.5367 0.5023 0.16992   -0.704671
