{'_ref': 'TBD', '_srcid': 'CAKYAQ_clean', 'submitters': [{'name': 'Dalar Nazarian Jeff Camp and David Sholl', 'email': 'dalar@gatech.edu jcamp6@gatech.edu'}], '_method': 'VASP DFT with PBE;DDEC'}
data_H4PbC10N3O4
_symmetry_space_group_name_H-M   'P 1'
_cell_length_a   16.41647476
_cell_length_b   16.41660000
_cell_length_c   16.41659967
_cell_angle_alpha   96.06429859
_cell_angle_beta   116.56272990
_cell_angle_gamma   116.56273062
_symmetry_Int_Tables_number   1
_chemical_formula_structural   H4PbC10N3O4
_chemical_formula_sum   'H32 Pb8 C80 N24 O32'
_cell_volume   3271.16341727
_cell_formula_units_Z   8
loop_
 _symmetry_equiv_pos_site_id
 _symmetry_equiv_pos_as_xyz
  1  'x, y, z'
loop_
 _atom_site_label
 _atom_site_fract_x
 _atom_site_fract_y
 _atom_site_fract_z
 _atom_site_charge
 H 0.5046 0.3069 0.0431   0.115793
 H 0.4428 0.1408 0.9686   0.117359
 H 0.532 0.1107 0.9051   0.135194
 H 0.6812 0.2389 0.9221   0.067877
 H 0.9954 0.0385 0.8023   0.115772
 H 0.0572 0.0258 0.698   0.117376
 H 0.968 0.8731 0.5787   0.135191
 H 0.8188 0.7409 0.5577   0.067885
 H 0.7362 0.5431 0.5385   0.115764
 H 0.8278 0.4686 0.5258   0.117362
 H 0.7944 0.4051 0.3731   0.135192
 H 0.6832 0.4221 0.2409   0.067885
 H 0.7638 0.3023 0.8069   0.115774
 H 0.6722 0.198 0.6408   0.117363
 H 0.7056 0.0787 0.6107   0.135165
 H 0.8168 0.0577 0.7389   0.067886
 H 0.4954 0.6931 0.9569   0.115793
 H 0.5572 0.8592 0.0314   0.117359
 H 0.468 0.8893 0.0949   0.135194
 H 0.3188 0.7611 0.0779   0.067877
 H 0.0046 0.9615 0.1977   0.115772
 H 0.9428 0.9742 0.302   0.117375
 H 0.032 0.1269 0.4213   0.135191
 H 0.1812 0.2591 0.4423   0.067885
 H 0.2638 0.4569 0.4615   0.115764
 H 0.1722 0.5314 0.4742   0.117361
 H 0.2056 0.5949 0.6269   0.135192
 H 0.3168 0.5779 0.7591   0.067885
 H 0.2362 0.6977 0.1931   0.115774
 H 0.3278 0.802 0.3592   0.117362
 H 0.2944 0.9213 0.3893   0.135165
 H 0.1832 0.9423 0.2611   0.067886
 Pb 0.82508 0.49402 0.9785   1.026104
 Pb 0.67492 0.65342 0.66894   1.026121
 Pb 0.48448 0.4785 0.15342   1.026129
 Pb 0.01552 0.16894 0.99402   1.026122
 Pb 0.17492 0.50598 0.0215   1.026104
 Pb 0.32508 0.34658 0.33106   1.026122
 Pb 0.51552 0.5215 0.84658   1.026129
 Pb 0.98448 0.83106 0.00598   1.026122
 C 0.6843 0.6784 0.1679   0.572784
 C 0.6975 0.6065 0.1224   0.022147
 C 0.7685 0.6226 0.0933   -0.017669
 C 0.6701 0.4691 0.0616   0.300092
 C 0.8471 0.7078 0.0875   0.596648
 C 0.6292 0.3656 0.0238   0.15535
 C 0.5395 0.2921 0.0182   -0.136933
 C 0.5023 0.1928 0.9731   0.029549
 C 0.556 0.175 0.9362   -0.197165
 C 0.6448 0.2525 0.9457   0.187999
 C 0.8157 0.9836 0.9941   0.572775
 C 0.8025 0.9249 0.909   0.022154
 C 0.7315 0.8248 0.8541   -0.017679
 C 0.8299 0.8915 0.799   0.300054
 C 0.6529 0.7404 0.8607   0.596694
 C 0.8708 0.8946 0.7364   0.155394
 C 0.9605 0.9787 0.7526   -0.136957
 C 0.9977 0.9708 0.6905   0.029531
 C 0.944 0.8802 0.619   -0.197141
 C 0.8552 0.8009 0.6077   0.187979
 C 0.4895 0.6679 0.4836   0.572787
 C 0.5159 0.6224 0.4249   0.022153
 C 0.4707 0.5933 0.3248   -0.017655
 C 0.5925 0.5616 0.3915   0.30005
 C 0.3797 0.5875 0.2404   0.596668
 C 0.6582 0.5238 0.3946   0.155392
 C 0.7261 0.5182 0.4787   -0.13694
 C 0.7803 0.4731 0.4708   0.029558
 C 0.7612 0.4362 0.3802   -0.197164
 C 0.6932 0.4457 0.3009   0.187999
 C 0.0105 0.4941 0.1784   0.572779
 C 0.9841 0.409 0.1065   0.022114
 C 0.0293 0.3541 0.1226   -0.017639
 C 0.9075 0.299 0.9691   0.300058
 C 0.1203 0.3607 0.2078   0.596672
 C 0.8418 0.2364 0.8656   0.155349
 C 0.7739 0.2526 0.7921   -0.13694
 C 0.7197 0.1905 0.6928   0.029539
 C 0.7388 0.119 0.675   -0.19712
 C 0.8068 0.1077 0.7525   0.187988
 C 0.3157 0.3216 0.8321   0.572784
 C 0.3025 0.3935 0.8776   0.022147
 C 0.2315 0.3774 0.9067   -0.017669
 C 0.3299 0.5309 0.9384   0.300092
 C 0.1529 0.2922 0.9125   0.596649
 C 0.3708 0.6344 0.9762   0.15535
 C 0.4605 0.7079 0.9818   -0.136933
 C 0.4977 0.8072 0.0269   0.029549
 C 0.444 0.825 0.0638   -0.197165
 C 0.3552 0.7475 0.0543   0.188
 C 0.1843 0.0164 0.0059   0.572775
 C 0.1975 0.0751 0.091   0.022154
 C 0.2685 0.1752 0.1459   -0.017679
 C 0.1701 0.1085 0.201   0.300054
 C 0.3471 0.2596 0.1393   0.596695
 C 0.1292 0.1054 0.2636   0.155394
 C 0.0395 0.0213 0.2474   -0.136957
 C 0.0023 0.0292 0.3095   0.029532
 C 0.056 0.1198 0.381   -0.197141
 C 0.1448 0.1991 0.3923   0.18798
 C 0.5105 0.3321 0.5164   0.572787
 C 0.4841 0.3776 0.5751   0.022153
 C 0.5293 0.4067 0.6752   -0.017655
 C 0.4075 0.4384 0.6085   0.30005
 C 0.6203 0.4125 0.7596   0.596669
 C 0.3418 0.4762 0.6054   0.155392
 C 0.2739 0.4818 0.5213   -0.13694
 C 0.2197 0.5269 0.5292   0.029558
 C 0.2388 0.5638 0.6198   -0.197164
 C 0.3068 0.5543 0.6991   0.187999
 C 0.9895 0.5059 0.8216   0.572779
 C 0.0159 0.591 0.8935   0.022114
 C 0.9707 0.6459 0.8774   -0.017639
 C 0.0925 0.701 0.0309   0.300059
 C 0.8797 0.6393 0.7922   0.596673
 C 0.1582 0.7636 0.1344   0.15535
 C 0.2261 0.7474 0.2079   -0.13694
 C 0.2803 0.8095 0.3072   0.029539
 C 0.2612 0.881 0.325   -0.197119
 C 0.1932 0.8923 0.2475   0.187989
 N 0.6353 0.5102 0.1023   -0.463817
 N 0.7507 0.5341 0.056   -0.349589
 N 0.682 0.3456 0.9866   -0.338521
 N 0.8647 0.967 0.8749   -0.463808
 N 0.7493 0.8053 0.7834   -0.34957
 N 0.818 0.8046 0.6636   -0.338521
 N 0.5921 0.6023 0.467   -0.463807
 N 0.5219 0.556 0.3053   -0.349592
 N 0.641 0.4866 0.3046   -0.338548
 N 0.9079 0.3749 0.0102   -0.463762
 N 0.9781 0.2834 0.0341   -0.349612
 N 0.859 0.1636 0.8456   -0.338527
 N 0.3647 0.4898 0.8977   -0.463817
 N 0.2493 0.4659 0.944   -0.349589
 N 0.318 0.6544 0.0134   -0.338521
 N 0.1353 0.033 0.1251   -0.463808
 N 0.2507 0.1947 0.2166   -0.34957
 N 0.182 0.1954 0.3364   -0.338521
 N 0.4079 0.3977 0.533   -0.463807
 N 0.4781 0.444 0.6947   -0.349592
 N 0.359 0.5134 0.6954   -0.338548
 N 0.0921 0.6251 0.9898   -0.463762
 N 0.0219 0.7166 0.9659   -0.349612
 N 0.141 0.8364 0.1544   -0.338527
 O 0.6197 0.6533 0.1918   -0.497976
 O 0.7453 0.7703 0.1808   -0.336023
 O 0.8644 0.7902 0.1192   -0.413898
 O 0.8911 0.6903 0.048   -0.575322
 O 0.8803 0.0721 0.0336   -0.497975
 O 0.7547 0.9355 0.025   -0.335986
 O 0.6356 0.7548 0.9258   -0.413933
 O 0.6089 0.6569 0.7992   -0.575352
 O 0.5385 0.6918 0.5721   -0.497986
 O 0.4105 0.6808 0.4355   -0.335989
 O 0.329 0.6192 0.2548   -0.413924
 O 0.3577 0.548 0.1569   -0.575333
 O 0.9615 0.5336 0.1533   -0.497962
 O 0.0895 0.525 0.2703   -0.335964
 O 0.171 0.4258 0.2902   -0.413936
 O 0.1423 0.2992 0.1903   -0.575334
 O 0.3803 0.3467 0.8082   -0.497976
 O 0.2547 0.2297 0.8192   -0.336023
 O 0.1356 0.2098 0.8808   -0.413899
 O 0.1089 0.3097 0.952   -0.575322
 O 0.1197 0.9279 0.9664   -0.497975
 O 0.2453 0.0645 0.975   -0.335986
 O 0.3644 0.2452 0.0742   -0.413933
 O 0.3911 0.3431 0.2008   -0.575353
 O 0.4615 0.3082 0.4279   -0.497986
 O 0.5895 0.3192 0.5645   -0.335989
 O 0.671 0.3808 0.7452   -0.413924
 O 0.6423 0.452 0.8431   -0.575333
 O 0.0385 0.4664 0.8467   -0.497963
 O 0.9105 0.475 0.7297   -0.335964
 O 0.829 0.5742 0.7098   -0.413936
 O 0.8577 0.7008 0.8097   -0.575334
