{'_ref': 'TBD', '_srcid': 'CAKYAQ_clean', 'submitters': [{'name': 'Dalar Nazarian Jeff Camp and David Sholl', 'email': 'dalar@gatech.edu jcamp6@gatech.edu'}], '_method': 'VASP DFT with PBE;DDEC'}
data_NiH8C12(NO2)2
_symmetry_space_group_name_H-M   'P 1'
_cell_length_a   6.35590000
_cell_length_b   10.37850000
_cell_length_c   12.49660000
_cell_angle_alpha   90.00000000
_cell_angle_beta   90.00000000
_cell_angle_gamma   90.00000000
_symmetry_Int_Tables_number   1
_chemical_formula_structural   NiH8C12(NO2)2
_chemical_formula_sum   'Ni2 H16 C24 N4 O8'
_cell_volume   824.334571867
_cell_formula_units_Z   2
loop_
 _symmetry_equiv_pos_site_id
 _symmetry_equiv_pos_as_xyz
  1  'x, y, z'
loop_
 _atom_site_label
 _atom_site_fract_x
 _atom_site_fract_y
 _atom_site_fract_z
 _atom_site_charge
 Ni 0.0 0.0479 0.5   0.738405
 Ni 0.5 0.5479 0.0   0.738405
 H 0.9971 0.6757 0.2499   0.124834
 H 0.8753 0.8093 0.3789   0.07662
 H 0.4099 0.9955 0.391   0.091355
 H 0.5486 0.8639 0.2589   0.125459
 H 0.0029 0.6757 0.7501   0.124834
 H 0.1247 0.8093 0.6211   0.07662
 H 0.5901 0.9955 0.609   0.091355
 H 0.4514 0.8639 0.7411   0.125459
 H 0.5029 0.1757 0.7499   0.124834
 H 0.6247 0.3093 0.8789   0.07662
 H 0.0901 0.4955 0.891   0.091355
 H 0.9514 0.3639 0.7589   0.125459
 H 0.4971 0.1757 0.2501   0.124834
 H 0.3753 0.3093 0.1211   0.07662
 H 0.9099 0.4955 0.109   0.091355
 H 0.0486 0.3639 0.2411   0.125459
 C 0.3714 0.6744 0.1515   0.58253
 C 0.2841 0.7577 0.2377   -0.014115
 C 0.0828 0.7408 0.2767   -0.129953
 C 0.0122 0.8202 0.3542   0.151444
 C 0.328 0.9304 0.3614   0.143612
 C 0.4108 0.8527 0.2821   -0.141697
 C 0.6286 0.6744 0.8485   0.582529
 C 0.7159 0.7577 0.7623   -0.014115
 C 0.9172 0.7408 0.7233   -0.129953
 C 0.9878 0.8202 0.6458   0.151445
 C 0.672 0.9304 0.6386   0.143612
 C 0.5892 0.8527 0.7179   -0.141697
 C 0.1286 0.1744 0.6515   0.58253
 C 0.2159 0.2577 0.7377   -0.014114
 C 0.4172 0.2408 0.7767   -0.129952
 C 0.4878 0.3202 0.8542   0.151444
 C 0.172 0.4304 0.8614   0.143612
 C 0.0892 0.3527 0.7821   -0.141697
 C 0.8714 0.1744 0.3485   0.58253
 C 0.7841 0.2577 0.2623   -0.014113
 C 0.5828 0.2408 0.2233   -0.129951
 C 0.5122 0.3202 0.1458   0.151445
 C 0.828 0.4304 0.1386   0.143612
 C 0.9108 0.3527 0.2179   -0.141696
 N 0.1274 0.9123 0.3967   -0.320418
 N 0.8726 0.9123 0.6033   -0.320418
 N 0.3726 0.4123 0.8967   -0.320418
 N 0.6274 0.4123 0.1033   -0.320418
 O 0.2564 0.5893 0.1055   -0.52961
 O 0.5576 0.6931 0.1161   -0.529266
 O 0.7436 0.5893 0.8945   -0.52961
 O 0.4424 0.6931 0.8839   -0.529265
 O 0.2436 0.0893 0.6055   -0.52961
 O 0.9424 0.1931 0.6161   -0.529266
 O 0.7564 0.0893 0.3945   -0.52961
 O 0.0576 0.1931 0.3839   -0.529265
