{'_ref': 'TBD', '_srcid': 'CAKYAQ_clean', 'submitters': [{'name': 'Dalar Nazarian Jeff Camp and David Sholl', 'email': 'dalar@gatech.edu jcamp6@gatech.edu'}], '_method': 'VASP DFT with PBE;DDEC'}
data_NiMoH16C20(N2O)2
_symmetry_space_group_name_H-M   'P 1'
_cell_length_a   13.18660000
_cell_length_b   13.18660000
_cell_length_c   29.45770000
_cell_angle_alpha   90.00000000
_cell_angle_beta   90.00000000
_cell_angle_gamma   90.00000000
_symmetry_Int_Tables_number   1
_chemical_formula_structural   NiMoH16C20(N2O)2
_chemical_formula_sum   'Ni8 Mo8 H128 C160 N32 O16'
_cell_volume   5122.29398147
_cell_formula_units_Z   8
loop_
 _symmetry_equiv_pos_site_id
 _symmetry_equiv_pos_as_xyz
  1  'x, y, z'
loop_
 _atom_site_label
 _atom_site_fract_x
 _atom_site_fract_y
 _atom_site_fract_z
 _atom_site_charge
 Ni 0.73851 0.71969 0.36708   0.626354
 Ni 0.26149 0.28031 0.86708   0.626354
 Ni 0.78031 0.23851 0.11708   0.626354
 Ni 0.21969 0.76149 0.61708   0.626354
 Ni 0.76149 0.21969 0.38292   0.626354
 Ni 0.23851 0.78031 0.88292   0.626354
 Ni 0.71969 0.73851 0.63292   0.626354
 Ni 0.28031 0.26149 0.13292   0.626354
 Mo 0.61903 0.46371 0.38003   0.389466
 Mo 0.38097 0.53629 0.88003   0.389466
 Mo 0.03629 0.11903 0.13003   0.389466
 Mo 0.96371 0.88097 0.63003   0.389466
 Mo 0.88097 0.96371 0.36997   0.389467
 Mo 0.11903 0.03629 0.86997   0.389467
 Mo 0.46371 0.61903 0.61997   0.389467
 Mo 0.53629 0.38097 0.11997   0.389467
 H 0.8577 0.5361 0.3938   0.072099
 H 0.9915 0.4884 0.4395   0.123803
 H 0.9471 0.7499 0.5089   0.129362
 H 0.8252 0.7903 0.4575   0.062294
 H 0.1511 0.9391 0.5621   0.04276
 H 0.1755 0.0182 0.492   0.119155
 H 0.3006 0.9578 0.4429   0.0979
 H 0.3753 0.7554 0.5395   0.041682
 H 0.6271 0.6578 0.4559   0.048605
 H 0.4917 0.7 0.4979   0.089548
 H 0.4387 0.9271 0.4114   0.112929
 H 0.5752 0.8784 0.3717   0.065157
 H 0.2577 0.5308 0.6003   0.03895
 H 0.2046 0.4026 0.5522   0.122501
 H 0.0851 0.4344 0.498   0.085798
 H 0.0926 0.7259 0.5376   0.060717
 H 0.1423 0.4639 0.8938   0.072099
 H 0.0085 0.5116 0.9395   0.123803
 H 0.0529 0.2501 0.0089   0.129362
 H 0.1748 0.2097 0.9575   0.062294
 H 0.8489 0.0609 0.0621   0.04276
 H 0.8245 0.9818 0.992   0.119155
 H 0.6994 0.0422 0.9429   0.0979
 H 0.6247 0.2446 0.0395   0.041682
 H 0.3729 0.3422 0.9559   0.048605
 H 0.5083 0.3 0.9979   0.089548
 H 0.5613 0.0729 0.9114   0.112929
 H 0.4248 0.1216 0.8717   0.065157
 H 0.7423 0.4692 0.1003   0.03895
 H 0.7954 0.5974 0.0522   0.122501
 H 0.9149 0.5656 0.998   0.085798
 H 0.9074 0.2741 0.0376   0.060717
 H 0.9639 0.3577 0.1438   0.072099
 H 0.0116 0.4915 0.1895   0.123803
 H 0.7501 0.4471 0.2589   0.129362
 H 0.7097 0.3252 0.2075   0.062294
 H 0.5609 0.6511 0.3121   0.04276
 H 0.4818 0.6755 0.242   0.119155
 H 0.5422 0.8006 0.1929   0.097901
 H 0.7446 0.8753 0.2895   0.041682
 H 0.8422 0.1271 0.2059   0.048605
 H 0.8 0.9917 0.2479   0.089548
 H 0.5729 0.9387 0.1614   0.112929
 H 0.6216 0.0752 0.1217   0.065157
 H 0.9692 0.7577 0.3503   0.03895
 H 0.0974 0.7046 0.3022   0.122502
 H 0.0656 0.5851 0.248   0.085798
 H 0.7741 0.5926 0.2876   0.060717
 H 0.0361 0.6423 0.6438   0.072099
 H 0.9884 0.5085 0.6895   0.123803
 H 0.2499 0.5529 0.7589   0.129362
 H 0.2903 0.6748 0.7075   0.062294
 H 0.4391 0.3489 0.8121   0.04276
 H 0.5182 0.3245 0.742   0.119155
 H 0.4578 0.1994 0.6929   0.097901
 H 0.2554 0.1247 0.7895   0.041682
 H 0.1578 0.8729 0.7059   0.048605
 H 0.2 0.0083 0.7479   0.089548
 H 0.4271 0.0613 0.6614   0.112929
 H 0.3784 0.9248 0.6217   0.065157
 H 0.0308 0.2423 0.8503   0.03895
 H 0.9026 0.2954 0.8022   0.122502
 H 0.9344 0.4149 0.748   0.085798
 H 0.2259 0.4074 0.7876   0.060717
 H 0.6423 0.0361 0.3562   0.072098
 H 0.5085 0.9884 0.3105   0.123803
 H 0.5529 0.2499 0.2411   0.129362
 H 0.6748 0.2903 0.2925   0.062294
 H 0.3489 0.4391 0.1879   0.042761
 H 0.3245 0.5182 0.258   0.119161
 H 0.1994 0.4578 0.3071   0.097902
 H 0.1247 0.2554 0.2105   0.041682
 H 0.8729 0.1578 0.2941   0.048605
 H 0.0083 0.2 0.2521   0.089549
 H 0.0613 0.4271 0.3386   0.112931
 H 0.9248 0.3784 0.3783   0.065155
 H 0.2423 0.0308 0.1497   0.03895
 H 0.2954 0.9026 0.1978   0.122508
 H 0.4149 0.9344 0.252   0.0858
 H 0.4074 0.2259 0.2124   0.060717
 H 0.3577 0.9639 0.8562   0.072098
 H 0.4915 0.0116 0.8105   0.123803
 H 0.4471 0.7501 0.7411   0.129362
 H 0.3252 0.7097 0.7925   0.062294
 H 0.6511 0.5609 0.6879   0.042761
 H 0.6755 0.4818 0.758   0.119161
 H 0.8006 0.5422 0.8071   0.097902
 H 0.8753 0.7446 0.7105   0.041682
 H 0.1271 0.8422 0.7941   0.048605
 H 0.9917 0.8 0.7521   0.089549
 H 0.9387 0.5729 0.8386   0.112931
 H 0.0752 0.6216 0.8783   0.065155
 H 0.7577 0.9692 0.6497   0.03895
 H 0.7046 0.0974 0.6978   0.122508
 H 0.5851 0.0656 0.752   0.0858
 H 0.5926 0.7741 0.7124   0.060717
 H 0.5361 0.8577 0.6062   0.072098
 H 0.4884 0.9915 0.5605   0.123803
 H 0.7499 0.9471 0.4911   0.129362
 H 0.7903 0.8252 0.5425   0.062294
 H 0.9391 0.1511 0.4379   0.042761
 H 0.0182 0.1755 0.508   0.119161
 H 0.9578 0.3006 0.5571   0.097903
 H 0.7554 0.3753 0.4605   0.041682
 H 0.6578 0.6271 0.5441   0.048605
 H 0.7 0.4917 0.5021   0.089549
 H 0.9271 0.4387 0.5886   0.112931
 H 0.8784 0.5752 0.6283   0.065155
 H 0.5308 0.2577 0.3997   0.03895
 H 0.4026 0.2046 0.4478   0.122509
 H 0.4344 0.0851 0.502   0.0858
 H 0.7259 0.0926 0.4624   0.060717
 H 0.4639 0.1423 0.1062   0.072098
 H 0.5116 0.0085 0.0605   0.123803
 H 0.2501 0.0529 0.9911   0.129362
 H 0.2097 0.1748 0.0425   0.062294
 H 0.0609 0.8489 0.9379   0.042761
 H 0.9818 0.8245 0.008   0.119161
 H 0.0422 0.6994 0.0571   0.097903
 H 0.2446 0.6247 0.9605   0.041682
 H 0.3422 0.3729 0.0441   0.048605
 H 0.3 0.5083 0.0021   0.089549
 H 0.0729 0.5613 0.0886   0.112931
 H 0.1216 0.4248 0.1283   0.065155
 H 0.4692 0.7423 0.8997   0.03895
 H 0.5974 0.7954 0.9478   0.122509
 H 0.5656 0.9149 0.002   0.0858
 H 0.2741 0.9074 0.9624   0.060717
 C 0.8784 0.5805 0.4166   0.143968
 C 0.9584 0.5496 0.4447   -0.23286
 C 0.9875 0.6122 0.4806   0.109775
 C 0.9325 0.7056 0.4852   -0.212633
 C 0.8584 0.7285 0.4544   0.123856
 C 0.2028 0.9164 0.5432   0.136802
 C 0.2168 0.9643 0.5006   -0.191759
 C 0.2927 0.9299 0.4717   -0.037183
 C 0.3572 0.8522 0.4867   -0.08411
 C 0.3353 0.8091 0.5296   0.138543
 C 0.5881 0.7126 0.4464   0.136094
 C 0.5068 0.7376 0.4721   -0.185854
 C 0.4457 0.8193 0.4599   0.104684
 C 0.4757 0.8711 0.4211   -0.21932
 C 0.5577 0.8414 0.3974   0.142149
 C 0.2113 0.5459 0.5775   0.100818
 C 0.178 0.4675 0.549   -0.182213
 C 0.1075 0.4861 0.517   -0.029334
 C 0.0679 0.5859 0.5127   -0.092242
 C 0.1127 0.6589 0.5416   0.145237
 C 0.1216 0.4195 0.9166   0.143968
 C 0.0416 0.4504 0.9447   -0.23286
 C 0.0125 0.3878 0.9806   0.109775
 C 0.0675 0.2944 0.9852   -0.212633
 C 0.1416 0.2715 0.9544   0.123856
 C 0.7972 0.0836 0.0432   0.136802
 C 0.7832 0.0357 0.000599999999999   -0.191759
 C 0.7073 0.0701 0.9717   -0.037183
 C 0.6428 0.1478 0.9867   -0.08411
 C 0.6647 0.1909 0.0296   0.138543
 C 0.4119 0.2874 0.9464   0.136094
 C 0.4932 0.2624 0.9721   -0.185854
 C 0.5543 0.1807 0.9599   0.104684
 C 0.5243 0.1289 0.9211   -0.21932
 C 0.4423 0.1586 0.8974   0.142149
 C 0.7887 0.4541 0.0775   0.100818
 C 0.822 0.5325 0.049   -0.182213
 C 0.8925 0.5139 0.017   -0.029334
 C 0.9321 0.4141 0.0127   -0.092242
 C 0.8873 0.3411 0.0416   0.145237
 C 0.9195 0.3784 0.1666   0.143967
 C 0.9504 0.4584 0.1947   -0.232859
 C 0.8878 0.4875 0.2306   0.109775
 C 0.7944 0.4325 0.2352   -0.212633
 C 0.7715 0.3584 0.2044   0.123856
 C 0.5836 0.7028 0.2932   0.136803
 C 0.5357 0.7168 0.2506   -0.191759
 C 0.5701 0.7927 0.2217   -0.037183
 C 0.6478 0.8572 0.2367   -0.08411
 C 0.6909 0.8353 0.2796   0.138543
 C 0.7874 0.0881 0.1964   0.136094
 C 0.7624 0.0068 0.2221   -0.185854
 C 0.6807 0.9457 0.2099   0.104684
 C 0.6289 0.9757 0.1711   -0.219319
 C 0.6586 0.0577 0.1474   0.142148
 C 0.9541 0.7113 0.3275   0.100817
 C 0.0325 0.678 0.299   -0.182213
 C 0.0139 0.6075 0.267   -0.029334
 C 0.9141 0.5679 0.2627   -0.092242
 C 0.8411 0.6127 0.2916   0.145237
 C 0.0805 0.6216 0.6666   0.143967
 C 0.0496 0.5416 0.6947   -0.232859
 C 0.1122 0.5125 0.7306   0.109775
 C 0.2056 0.5675 0.7352   -0.212633
 C 0.2285 0.6416 0.7044   0.123856
 C 0.4164 0.2972 0.7932   0.136803
 C 0.4643 0.2832 0.7506   -0.191759
 C 0.4299 0.2073 0.7217   -0.037183
 C 0.3522 0.1428 0.7367   -0.08411
 C 0.3091 0.1647 0.7796   0.138543
 C 0.2126 0.9119 0.6964   0.136094
 C 0.2376 0.9932 0.7221   -0.185854
 C 0.3193 0.0543 0.7099   0.104684
 C 0.3711 0.0243 0.6711   -0.219319
 C 0.3414 0.9423 0.6474   0.142148
 C 0.0459 0.2887 0.8275   0.100817
 C 0.9675 0.322 0.799   -0.182213
 C 0.9861 0.3925 0.767   -0.029334
 C 0.0859 0.4321 0.7627   -0.092242
 C 0.1589 0.3873 0.7916   0.145237
 C 0.6216 0.0805 0.3334   0.143968
 C 0.5416 0.0496 0.3053   -0.232861
 C 0.5125 0.1122 0.2694   0.109775
 C 0.5675 0.2056 0.2648   -0.212633
 C 0.6416 0.2285 0.2956   0.123855
 C 0.2972 0.4164 0.2068   0.136803
 C 0.2832 0.4643 0.2494   -0.19176
 C 0.2073 0.4299 0.2783   -0.037183
 C 0.1428 0.3522 0.2633   -0.084111
 C 0.1647 0.3091 0.2204   0.138543
 C 0.9119 0.2126 0.3036   0.136094
 C 0.9932 0.2376 0.2779   -0.185855
 C 0.0543 0.3193 0.2901   0.104684
 C 0.0243 0.3711 0.3289   -0.219322
 C 0.9423 0.3414 0.3526   0.142149
 C 0.2887 0.0459 0.1725   0.100819
 C 0.322 0.9675 0.201   -0.182216
 C 0.3925 0.9861 0.233   -0.029334
 C 0.4321 0.0859 0.2373   -0.092243
 C 0.3873 0.1589 0.2084   0.145236
 C 0.3784 0.9195 0.8334   0.143968
 C 0.4584 0.9504 0.8053   -0.232861
 C 0.4875 0.8878 0.7694   0.109775
 C 0.4325 0.7944 0.7648   -0.212633
 C 0.3584 0.7715 0.7956   0.123855
 C 0.7028 0.5836 0.7068   0.136803
 C 0.7168 0.5357 0.7494   -0.19176
 C 0.7927 0.5701 0.7783   -0.037183
 C 0.8572 0.6478 0.7633   -0.084111
 C 0.8353 0.6909 0.7204   0.138543
 C 0.0881 0.7874 0.8036   0.136094
 C 0.0068 0.7624 0.7779   -0.185855
 C 0.9457 0.6807 0.7901   0.104684
 C 0.9757 0.6289 0.8289   -0.219322
 C 0.0577 0.6586 0.8526   0.142149
 C 0.7113 0.9541 0.6725   0.100819
 C 0.678 0.0325 0.701   -0.182216
 C 0.6075 0.0139 0.733   -0.029334
 C 0.5679 0.9141 0.7373   -0.092243
 C 0.6127 0.8411 0.7084   0.145236
 C 0.5805 0.8784 0.5834   0.143967
 C 0.5496 0.9584 0.5553   -0.23286
 C 0.6122 0.9875 0.5194   0.109775
 C 0.7056 0.9325 0.5148   -0.212633
 C 0.7285 0.8584 0.5456   0.123855
 C 0.9164 0.2028 0.4568   0.136803
 C 0.9643 0.2168 0.4994   -0.19176
 C 0.9299 0.2927 0.5283   -0.037183
 C 0.8522 0.3572 0.5133   -0.08411
 C 0.8091 0.3353 0.4704   0.138543
 C 0.7126 0.5881 0.5536   0.136094
 C 0.7376 0.5068 0.5279   -0.185855
 C 0.8193 0.4457 0.5401   0.104684
 C 0.8711 0.4757 0.5789   -0.219321
 C 0.8414 0.5577 0.6026   0.142148
 C 0.5459 0.2113 0.4225   0.100818
 C 0.4675 0.178 0.451   -0.182215
 C 0.4861 0.1075 0.483   -0.029334
 C 0.5859 0.0679 0.4873   -0.092243
 C 0.6589 0.1127 0.4584   0.145236
 C 0.4195 0.1216 0.0834   0.143967
 C 0.4504 0.0416 0.0553   -0.23286
 C 0.3878 0.0125 0.0194   0.109775
 C 0.2944 0.0675 0.0148   -0.212633
 C 0.2715 0.1416 0.0456   0.123855
 C 0.0836 0.7972 0.9568   0.136803
 C 0.0357 0.7832 0.9994   -0.19176
 C 0.0701 0.7073 0.0283   -0.037183
 C 0.1478 0.6428 0.0133   -0.08411
 C 0.1909 0.6647 0.9704   0.138543
 C 0.2874 0.4119 0.0536   0.136094
 C 0.2624 0.4932 0.0279   -0.185855
 C 0.1807 0.5543 0.0401   0.104684
 C 0.1289 0.5243 0.0789   -0.219321
 C 0.1586 0.4423 0.1026   0.142148
 C 0.4541 0.7887 0.9225   0.100818
 C 0.5325 0.822 0.951   -0.182215
 C 0.5139 0.8925 0.983   -0.029334
 C 0.4141 0.9321 0.9873   -0.092243
 C 0.3411 0.8873 0.9584   0.145236
 N 0.8302 0.6679 0.4199   -0.281337
 N 0.6168 0.7604 0.4087   -0.285295
 N 0.2605 0.8408 0.557   -0.268725
 N 0.1789 0.6416 0.5731   -0.256908
 N 0.1698 0.3321 0.9199   -0.281337
 N 0.3832 0.2396 0.9087   -0.285295
 N 0.7395 0.1592 0.057   -0.268725
 N 0.8211 0.3584 0.0731   -0.256908
 N 0.8321 0.3302 0.1699   -0.281337
 N 0.7396 0.1168 0.1587   -0.285295
 N 0.6592 0.7605 0.307   -0.268725
 N 0.8584 0.6789 0.3231   -0.256908
 N 0.1679 0.6698 0.6699   -0.281337
 N 0.2604 0.8832 0.6587   -0.285295
 N 0.3408 0.2395 0.807   -0.268725
 N 0.1416 0.3211 0.8231   -0.256908
 N 0.6698 0.1679 0.3301   -0.281337
 N 0.8832 0.2604 0.3413   -0.285295
 N 0.2395 0.3408 0.193   -0.268725
 N 0.3211 0.1416 0.1769   -0.256908
 N 0.3302 0.8321 0.8301   -0.281337
 N 0.1168 0.7396 0.8413   -0.285295
 N 0.7605 0.6592 0.693   -0.268725
 N 0.6789 0.8584 0.6769   -0.256908
 N 0.6679 0.8302 0.5801   -0.281337
 N 0.7604 0.6168 0.5913   -0.285295
 N 0.8408 0.2605 0.443   -0.268725
 N 0.6416 0.1789 0.4269   -0.256908
 N 0.3321 0.1698 0.0801   -0.281337
 N 0.2396 0.3832 0.0913   -0.285295
 N 0.1592 0.7395 0.943   -0.268725
 N 0.3584 0.8211 0.9269   -0.256908
 O 0.6814 0.5777 0.3631   -0.534899
 O 0.706 0.3625 0.3753   -0.516339
 O 0.3186 0.4223 0.8631   -0.534899
 O 0.294 0.6375 0.8753   -0.516339
 O 0.9223 0.1814 0.1131   -0.534899
 O 0.1375 0.206 0.1253   -0.516339
 O 0.0777 0.8186 0.6131   -0.534899
 O 0.8625 0.794 0.6253   -0.516339
 O 0.8186 0.0777 0.3869   -0.534899
 O 0.794 0.8625 0.3747   -0.516339
 O 0.1814 0.9223 0.8869   -0.534899
 O 0.206 0.1375 0.8747   -0.516339
 O 0.5777 0.6814 0.6369   -0.534899
 O 0.3625 0.706 0.6247   -0.516339
 O 0.4223 0.3186 0.1369   -0.534899
 O 0.6375 0.294 0.1247   -0.516339
