{'_ref': 'TBD', '_srcid': 'CAKYAQ_clean', 'submitters': [{'name': 'Dalar Nazarian Jeff Camp and David Sholl', 'email': 'dalar@gatech.edu jcamp6@gatech.edu'}], '_method': 'VASP DFT with PBE;DDEC'}
data_CuH5C6NO3
_symmetry_space_group_name_H-M   'P 1'
_cell_length_a   3.53400000
_cell_length_b   13.00519957
_cell_length_c   15.76800000
_cell_angle_alpha   90.00000000
_cell_angle_beta   90.00000000
_cell_angle_gamma   96.88499815
_symmetry_Int_Tables_number   1
_chemical_formula_structural   CuH5C6NO3
_chemical_formula_sum   'Cu4 H20 C24 N4 O12'
_cell_volume   719.477191263
_cell_formula_units_Z   4
loop_
 _symmetry_equiv_pos_site_id
 _symmetry_equiv_pos_as_xyz
  1  'x, y, z'
loop_
 _atom_site_label
 _atom_site_fract_x
 _atom_site_fract_y
 _atom_site_fract_z
 _atom_site_charge
 Cu 0.73758 0.50508 0.92198   1.061131
 Cu 0.76242 0.99492 0.42198   1.061131
 Cu 0.26242 0.49492 0.07802   1.061133
 Cu 0.23758 0.00508 0.57802   1.061133
 H 0.6498 0.36392 0.02395   0.422715
 H 0.8072 0.7247 0.8885   0.095759
 H 0.663 0.837 0.7836   0.128331
 H 0.52 0.5963 0.6224   0.136321
 H 0.671 0.4902 0.7314   0.082864
 H 0.8502 0.13608 0.52395   0.422715
 H 0.6928 0.7753 0.3885   0.095756
 H 0.837 0.663 0.2836   0.128331
 H 0.98 0.9037 0.1224   0.136318
 H 0.829 0.0098 0.2314   0.082864
 H 0.3502 0.63608 0.97605   0.422714
 H 0.1928 0.2753 0.1115   0.095755
 H 0.337 0.163 0.2164   0.128313
 H 0.48 0.4037 0.3776   0.1363
 H 0.329 0.5098 0.2686   0.08285
 H 0.1498 0.86392 0.47605   0.422714
 H 0.3072 0.2247 0.6115   0.095753
 H 0.163 0.337 0.7164   0.128313
 H 0.02 0.0963 0.8776   0.136297
 H 0.171 0.9902 0.7686   0.08285
 C 0.7452 0.6989 0.8346   0.144778
 C 0.6586 0.7668 0.7719   -0.147188
 C 0.565 0.7288 0.6914   -0.006038
 C 0.574 0.6237 0.6762   -0.143061
 C 0.6645 0.5603 0.742   0.154526
 C 0.4398 0.799 0.6226   0.640382
 C 0.7548 0.8011 0.3346   0.144779
 C 0.8414 0.7332 0.2719   -0.147188
 C 0.935 0.7712 0.1914   -0.006039
 C 0.926 0.8763 0.1762   -0.14306
 C 0.8355 0.9397 0.242   0.154526
 C 0.0602 0.701 0.1226   0.640382
 C 0.2548 0.3011 0.1654   0.144777
 C 0.3414 0.2332 0.2281   -0.147181
 C 0.435 0.2712 0.3086   -0.006044
 C 0.426 0.3763 0.3238   -0.143054
 C 0.3355 0.4397 0.258   0.154528
 C 0.5602 0.201 0.3774   0.640383
 C 0.2452 0.1989 0.6654   0.144778
 C 0.1586 0.2668 0.7281   -0.147181
 C 0.065 0.2288 0.8086   -0.006044
 C 0.074 0.1237 0.8238   -0.143053
 C 0.1645 0.0603 0.758   0.154527
 C 0.9398 0.299 0.8774   0.640383
 N 0.7429 0.5965 0.82039   -0.358717
 N 0.7571 0.9035 0.32039   -0.358717
 N 0.2571 0.4035 0.17961   -0.358718
 N 0.2429 0.0965 0.67961   -0.358718
 O 0.6869 0.42949 0.02838   -0.98809
 O 0.463 0.89405 0.64214   -0.655604
 O 0.3189 0.7584 0.55496   -0.568085
 O 0.8131 0.07051 0.52838   -0.98809
 O 0.037 0.60595 0.14214   -0.655604
 O 0.1811 0.7416 0.05496   -0.568085
 O 0.3131 0.57051 0.97162   -0.988089
 O 0.537 0.10595 0.35786   -0.655604
 O 0.6811 0.2416 0.44504   -0.568084
 O 0.1869 0.92949 0.47162   -0.988089
 O 0.963 0.39405 0.85786   -0.655604
 O 0.8189 0.2584 0.94504   -0.568084
