{'_ref': 'TBD', '_srcid': 'CAKYAQ_clean', 'submitters': [{'name': 'Dalar Nazarian Jeff Camp and David Sholl', 'email': 'dalar@gatech.edu jcamp6@gatech.edu'}], '_method': 'VASP DFT with PBE;DDEC'}
data_CuH5C6NO3
_symmetry_space_group_name_H-M   'P 1'
_cell_length_a   3.55210000
_cell_length_b   12.99770022
_cell_length_c   15.86650000
_cell_angle_alpha   90.00000000
_cell_angle_beta   90.00000000
_cell_angle_gamma   95.28500035
_symmetry_Int_Tables_number   1
_chemical_formula_structural   CuH5C6NO3
_chemical_formula_sum   'Cu4 H20 C24 N4 O12'
_cell_volume   729.428365491
_cell_formula_units_Z   4
loop_
 _symmetry_equiv_pos_site_id
 _symmetry_equiv_pos_as_xyz
  1  'x, y, z'
loop_
 _atom_site_label
 _atom_site_fract_x
 _atom_site_fract_y
 _atom_site_fract_z
 _atom_site_charge
 Cu 0.73444 0.5043 0.42254   1.054736
 Cu 0.76556 0.9957 0.92254   1.054736
 Cu 0.26556 0.4957 0.57746   1.054736
 Cu 0.23444 0.0043 0.07746   1.054736
 H 0.69 0.3675 0.515   0.414636
 H 0.0227 0.0943 0.3757   0.136373
 H 0.1637 0.3351 0.2181   0.129498
 H 0.1615 0.9889 0.2663   0.078538
 H 0.3002 0.2234 0.1134   0.095166
 H 0.81 0.1325 0.015   0.414636
 H 0.4773 0.4057 0.8757   0.136372
 H 0.3363 0.1649 0.7181   0.129498
 H 0.3385 0.5111 0.7663   0.078538
 H 0.1998 0.2766 0.6134   0.095166
 H 0.31 0.6325 0.485   0.414636
 H 0.9773 0.9057 0.6243   0.136361
 H 0.8363 0.6649 0.7819   0.129496
 H 0.8385 0.0111 0.7337   0.078538
 H 0.6998 0.7766 0.8866   0.095165
 H 0.19 0.8675 0.985   0.414636
 H 0.5227 0.5943 0.1243   0.13636
 H 0.6637 0.8351 0.2819   0.129496
 H 0.6615 0.4889 0.2337   0.078538
 H 0.8002 0.7234 0.3866   0.095165
 C 0.9464 0.29764 0.37784   0.638286
 C 0.0669 0.22717 0.30846   -0.003088
 C 0.0739 0.12204 0.3225   -0.147386
 C 0.1576 0.26473 0.22922   -0.153614
 C 0.1579 0.05931 0.25633   0.157043
 C 0.239 0.19712 0.16663   0.154366
 C 0.5536 0.20236 0.87784   0.638286
 C 0.4331 0.27283 0.80846   -0.003088
 C 0.4261 0.37796 0.8225   -0.147386
 C 0.3424 0.23527 0.72922   -0.153614
 C 0.3421 0.44069 0.75633   0.157042
 C 0.261 0.30288 0.66663   0.154366
 C 0.0536 0.70236 0.62216   0.638286
 C 0.9331 0.77283 0.69154   -0.00309
 C 0.9261 0.87796 0.6775   -0.147381
 C 0.8424 0.73527 0.77078   -0.153613
 C 0.8421 0.94069 0.74367   0.157041
 C 0.761 0.80288 0.83337   0.154366
 C 0.4464 0.79764 0.12216   0.638286
 C 0.5669 0.72717 0.19154   -0.00309
 C 0.5739 0.62204 0.1775   -0.147381
 C 0.6576 0.76473 0.27078   -0.153613
 C 0.6579 0.55931 0.24367   0.157041
 C 0.739 0.69712 0.33337   0.154366
 N 0.2341 0.09479 0.17886   -0.354392
 N 0.2659 0.40521 0.67886   -0.354392
 N 0.7659 0.90521 0.82114   -0.354392
 N 0.7341 0.59479 0.32114   -0.354392
 O 0.6936 0.43012 0.52842   -0.981997
 O 0.9641 0.39266 0.35873   -0.65528
 O 0.8369 0.25785 0.4454   -0.562877
 O 0.8064 0.06988 0.02842   -0.981997
 O 0.5359 0.10734 0.85873   -0.65528
 O 0.6631 0.24215 0.9454   -0.562877
 O 0.3064 0.56988 0.47158   -0.981997
 O 0.0359 0.60734 0.64127   -0.65528
 O 0.1631 0.74215 0.5546   -0.562877
 O 0.1936 0.93012 0.97158   -0.981997
 O 0.4641 0.89266 0.14127   -0.65528
 O 0.3369 0.75785 0.0546   -0.562877
