{'_ref': 'TBD', '_srcid': 'CAKYAQ_clean', 'submitters': [{'name': 'Dalar Nazarian Jeff Camp and David Sholl', 'email': 'dalar@gatech.edu jcamp6@gatech.edu'}], '_method': 'VASP DFT with PBE;DDEC'}
data_Er2C12(NO4)3
_symmetry_space_group_name_H-M   'P 1'
_cell_length_a   8.93990000
_cell_length_b   13.69299993
_cell_length_c   22.10300000
_cell_angle_alpha   90.00000000
_cell_angle_beta   90.00000000
_cell_angle_gamma   95.45999976
_symmetry_Int_Tables_number   1
_chemical_formula_structural   Er2C12(NO4)3
_chemical_formula_sum   'Er8 C48 N12 O48'
_cell_volume   2693.4415538
_cell_formula_units_Z   4
loop_
 _symmetry_equiv_pos_site_id
 _symmetry_equiv_pos_as_xyz
  1  'x, y, z'
loop_
 _atom_site_label
 _atom_site_fract_x
 _atom_site_fract_y
 _atom_site_fract_z
 _atom_site_charge
 Er 0.01716 0.0239 0.67364   1.206637
 Er 0.4535 0.74456 0.60909   1.729949
 Er 0.98284 0.4761 0.17365   1.206594
 Er 0.5465 0.75544 0.10909   1.729953
 Er 0.98284 0.9761 0.32636   1.206642
 Er 0.5465 0.25544 0.39091   1.729952
 Er 0.01716 0.5239 0.82636   1.20664
 Er 0.4535 0.24456 0.89091   1.72995
 C 0.9184 0.7884 0.7072   0.065155
 C 0.9348 0.6948 0.7283   0.096909
 C 0.1193 0.7594 0.7954   0.082536
 C 0.1038 0.8533 0.7729   0.091218
 C 0.8017 0.818 0.6623   0.728347
 C 0.8605 0.5966 0.7065   0.588726
 C 0.2355 0.7268 0.8405   0.584895
 C 0.1811 0.952 0.794   0.604156
 C 0.9286 0.0703 0.5293   0.094696
 C 0.9095 0.054 0.4671   0.06983
 C 0.8648 0.1466 0.5703   0.580019
 C 0.8102 0.1035 0.4231   0.709045
 C 0.0816 0.7116 0.2072   0.065153
 C 0.0652 0.8052 0.2283   0.096904
 C 0.8807 0.7406 0.2954   0.082538
 C 0.8962 0.6467 0.2729   0.091207
 C 0.1983 0.682 0.1623   0.728338
 C 0.1395 0.9034 0.2065   0.588735
 C 0.7645 0.7732 0.3405   0.58488
 C 0.8189 0.548 0.294   0.604162
 C 0.0714 0.4297 0.0293   0.094701
 C 0.0905 0.446 0.9671   0.069826
 C 0.1352 0.3534 0.0703   0.580013
 C 0.1898 0.3965 0.9231   0.709045
 C 0.0816 0.2116 0.2928   0.065158
 C 0.0652 0.3052 0.2717   0.096898
 C 0.8807 0.2406 0.2046   0.082536
 C 0.8962 0.1467 0.2271   0.091214
 C 0.1983 0.182 0.3377   0.728348
 C 0.1395 0.4034 0.2935   0.588741
 C 0.7645 0.2732 0.1595   0.584882
 C 0.8189 0.048 0.206   0.604166
 C 0.0714 0.9297 0.4707   0.094696
 C 0.0905 0.946 0.5329   0.069829
 C 0.1352 0.8534 0.4297   0.580014
 C 0.1898 0.8965 0.5769   0.709045
 C 0.9184 0.2884 0.7928   0.06516
 C 0.9348 0.1948 0.7717   0.096907
 C 0.1193 0.2594 0.7046   0.08254
 C 0.1038 0.3533 0.7271   0.091216
 C 0.8017 0.318 0.8377   0.728348
 C 0.8605 0.0966 0.7935   0.588736
 C 0.2355 0.2268 0.6595   0.584886
 C 0.1811 0.452 0.706   0.604168
 C 0.9286 0.5703 0.9707   0.094693
 C 0.9095 0.554 0.0329   0.069835
 C 0.8648 0.6466 0.9297   0.580014
 C 0.8102 0.6035 0.0769   0.709039
 N 0.0055 0.8643 0.7291   -0.200397
 N 0.0329 0.6836 0.7728   -0.236646
 N 0.017 0.0149 0.5591   -0.203477
 N 0.9945 0.6357 0.2291   -0.200383
 N 0.9671 0.8164 0.2728   -0.236644
 N 0.983 0.4851 0.0591   -0.203468
 N 0.9945 0.1357 0.2709   -0.200397
 N 0.9671 0.3164 0.2272   -0.236644
 N 0.983 0.9851 0.4409   -0.203478
 N 0.0055 0.3643 0.7709   -0.200401
 N 0.0329 0.1836 0.7272   -0.236649
 N 0.017 0.5149 0.9409   -0.203474
 O 0.8293 0.9023 0.6394   -0.605545
 O 0.6887 0.7597 0.6543   -0.797828
 O 0.8292 0.5836 0.6524   -0.425103
 O 0.8459 0.5313 0.7475   -0.511612
 O 0.2026 0.6409 0.8619   -0.537721
 O 0.3514 0.7806 0.8495   -0.397378
 O 0.2107 0.9645 0.8479   -0.471847
 O 0.1965 0.0163 0.7523   -0.559019
 O 0.8493 0.1196 0.6251   -0.506925
 O 0.8425 0.2278 0.55   -0.390035
 O 0.7188 0.1592 0.4415   -0.762927
 O 0.8233 0.0785 0.3684   -0.625657
 O 0.1707 0.5977 0.1394   -0.605525
 O 0.3113 0.7403 0.1543   -0.797827
 O 0.1708 0.9164 0.1524   -0.4251
 O 0.1541 0.9687 0.2475   -0.511624
 O 0.7974 0.8591 0.3619   -0.537717
 O 0.6486 0.7194 0.3495   -0.397359
 O 0.7893 0.5355 0.3479   -0.471862
 O 0.8035 0.4837 0.2523   -0.559027
 O 0.1507 0.3804 0.1251   -0.506902
 O 0.1575 0.2722 0.05   -0.390027
 O 0.2812 0.3408 0.9415   -0.762928
 O 0.1767 0.4215 0.8684   -0.625654
 O 0.1707 0.0977 0.3606   -0.605546
 O 0.3113 0.2403 0.3457   -0.797828
 O 0.1708 0.4164 0.3476   -0.425111
 O 0.1541 0.4687 0.2525   -0.511644
 O 0.7974 0.3591 0.1381   -0.537709
 O 0.6486 0.2194 0.1505   -0.397364
 O 0.7893 0.0355 0.1521   -0.471858
 O 0.8035 0.9837 0.2477   -0.559024
 O 0.1507 0.8804 0.3749   -0.506922
 O 0.1575 0.7722 0.45   -0.390031
 O 0.2812 0.8408 0.5585   -0.762927
 O 0.1767 0.9215 0.6316   -0.625655
 O 0.8293 0.4023 0.8606   -0.605545
 O 0.6887 0.2597 0.8457   -0.797827
 O 0.8292 0.0836 0.8476   -0.425108
 O 0.8459 0.0313 0.7525   -0.511622
 O 0.2026 0.1409 0.6381   -0.537719
 O 0.3514 0.2806 0.6505   -0.397368
 O 0.2107 0.4645 0.6521   -0.471861
 O 0.1965 0.5163 0.7477   -0.559027
 O 0.8493 0.6196 0.8749   -0.506925
 O 0.8425 0.7278 0.95   -0.390028
 O 0.7188 0.6592 0.0585   -0.762927
 O 0.8233 0.5785 0.1316   -0.62564
