{'_ref': 'TBD', '_srcid': 'CAKYAQ_clean', 'submitters': [{'name': 'Dalar Nazarian Jeff Camp and David Sholl', 'email': 'dalar@gatech.edu jcamp6@gatech.edu'}], '_method': 'VASP DFT with PBE;DDEC'}
data_MgHC5O4
_symmetry_space_group_name_H-M   'P 1'
_cell_length_a   6.90070037
_cell_length_b   7.47219958
_cell_length_c   8.25210000
_cell_angle_alpha   90.22699992
_cell_angle_beta   108.66999631
_cell_angle_gamma   93.33199847
_symmetry_Int_Tables_number   1
_chemical_formula_structural   MgHC5O4
_chemical_formula_sum   'Mg2 H2 C10 O8'
_cell_volume   402.319393471
_cell_formula_units_Z   2
loop_
 _symmetry_equiv_pos_site_id
 _symmetry_equiv_pos_as_xyz
  1  'x, y, z'
loop_
 _atom_site_label
 _atom_site_fract_x
 _atom_site_fract_y
 _atom_site_fract_z
 _atom_site_charge
 Mg 0.5 0.5 0.0   1.592826
 Mg 0.0 0.0 0.0   1.625369
 H 0.5762 0.7093 0.4591   0.116856
 H 0.4238 0.2907 0.5409   0.116855
 C 0.4219 0.84363 0.16004   0.801382
 C 0.4634 0.93171 0.33339   -0.148521
 C 0.54559 0.82615 0.47559   -0.017901
 C 0.41748 0.10773 0.35876   -0.118721
 C 0.3467 0.23849 0.21637   0.807738
 C 0.5781 0.15637 0.83996   0.801382
 C 0.5366 0.06829 0.66661   -0.148524
 C 0.45441 0.17385 0.52441   -0.017893
 C 0.58252 0.89227 0.64124   -0.118714
 C 0.6533 0.76151 0.78363   0.807738
 O 0.54933 0.73552 0.14641   -0.751284
 O 0.47861 0.35781 0.20938   -0.7293
 O 0.16376 0.22634 0.11849   -0.791679
 O 0.26324 0.87625 0.04164   -0.777674
 O 0.45067 0.26448 0.85359   -0.751284
 O 0.52139 0.64219 0.79062   -0.7293
 O 0.83624 0.77366 0.88151   -0.791678
 O 0.73676 0.12375 0.95836   -0.777674
