{'_ref': 'TBD', '_srcid': 'CAKYAQ_clean', 'submitters': [{'name': 'Dalar Nazarian Jeff Camp and David Sholl', 'email': 'dalar@gatech.edu jcamp6@gatech.edu'}], '_method': 'VASP DFT with PBE;DDEC'}
data_Co2H8C17O11
_symmetry_space_group_name_H-M   'P 1'
_cell_length_a   10.20670033
_cell_length_b   11.12969983
_cell_length_c   13.92510000
_cell_angle_alpha   112.66299994
_cell_angle_beta   104.57399975
_cell_angle_gamma   94.79599917
_symmetry_Int_Tables_number   1
_chemical_formula_structural   Co2H8C17O11
_chemical_formula_sum   'Co4 H16 C34 O22'
_cell_volume   1383.57343012
_cell_formula_units_Z   2
loop_
 _symmetry_equiv_pos_site_id
 _symmetry_equiv_pos_as_xyz
  1  'x, y, z'
loop_
 _atom_site_label
 _atom_site_fract_x
 _atom_site_fract_y
 _atom_site_fract_z
 _atom_site_charge
 Co 0.4943 0.13633 0.49098   1.158103
 Co 0.61382 0.92176 0.3024   1.046593
 Co 0.5057 0.86367 0.50902   1.158096
 Co 0.38618 0.07824 0.6976   1.046588
 H 0.0785 0.9667 0.3065   0.133058
 H 0.7999 0.6907 0.0257   0.149217
 H 0.2106 0.7308 0.0592   0.138942
 H 0.1405 0.53 0.9357   0.03809
 H 0.0271 0.4523 0.8169   0.061788
 H 0.2111 0.7809 0.774   0.145816
 H 0.4158 0.5326 0.5969   0.123693
 H 0.2209 0.4203 0.7785   0.123139
 H 0.9215 0.0333 0.6935   0.133061
 H 0.2001 0.3093 0.9743   0.14922
 H 0.7894 0.2692 0.9408   0.138942
 H 0.8595 0.47 0.0643   0.038094
 H 0.9729 0.5477 0.1831   0.061788
 H 0.7889 0.2191 0.226   0.145818
 H 0.5842 0.4674 0.4031   0.123702
 H 0.7791 0.5797 0.2215   0.123139
 C 0.3123 0.9309 0.2578   0.655446
 C 0.1655 0.8621 0.1914   -0.065755
 C 0.0585 0.8984 0.2348   -0.063913
 C 0.9229 0.8349 0.1736   -0.078057
 C 0.8073 0.8716 0.221   0.592412
 C 0.8928 0.7329 0.0687   -0.175102
 C 0.000999999999998 0.6945 0.0286   0.264312
 C 0.1377 0.7579 0.0881   -0.185794
 C 0.0647 0.5397 0.8805   0.300857
 C 0.2003 0.6028 0.7828   0.263056
 C 0.2405 0.6986 0.7501   -0.134676
 C 0.3238 0.675 0.6825   -0.093508
 C 0.371 0.7811 0.6506   0.70407
 C 0.3627 0.5519 0.6461   -0.056704
 C 0.3242 0.4576 0.6813   -0.062727
 C 0.3723 0.3282 0.6468   0.682285
 C 0.2445 0.4833 0.752   -0.195407
 C 0.6877 0.0691 0.7422   0.655456
 C 0.8345 0.1379 0.8086   -0.065751
 C 0.9415 0.1016 0.7652   -0.063911
 C 0.0771 0.1651 0.8264   -0.078056
 C 0.1927 0.1284 0.779   0.592414
 C 0.1072 0.2671 0.9313   -0.175095
 C 0.999 0.3055 0.9714   0.264315
 C 0.8623 0.2421 0.9119   -0.185792
 C 0.9353 0.4603 0.1195   0.300856
 C 0.7997 0.3972 0.2172   0.263062
 C 0.7595 0.3014 0.2499   -0.134669
 C 0.6762 0.325 0.3175   -0.093504
 C 0.629 0.2189 0.3494   0.704078
 C 0.6373 0.4481 0.3539   -0.056698
 C 0.6758 0.5424 0.3187   -0.062724
 C 0.6277 0.6718 0.3532   0.682287
 C 0.7555 0.5167 0.248   -0.195406
 O 0.3305 0.037 0.34347   -0.5392
 O 0.406 0.8788 0.22402   -0.501119
 O 0.6855 0.8447 0.15888   -0.464532
 O 0.8367 0.9307 0.32451   -0.455338
 O 0.9599 0.5873 0.92557   -0.303797
 O 0.1135 0.6374 0.84726   -0.303872
 O 0.4213 0.7469 0.57231   -0.566208
 O 0.3564 0.8964 0.70468   -0.517712
 O 0.3863 0.2808 0.55116   -0.540495
 O 0.3945 0.2736 0.71093   -0.528415
 O 0.6068 0.9895 0.45646   -0.74854
 O 0.6695 0.963 0.65653   -0.539205
 O 0.594 0.1212 0.77598   -0.501125
 O 0.3145 0.1553 0.84112   -0.464546
 O 0.1633 0.0693 0.67549   -0.455356
 O 0.0401 0.4127 0.07443   -0.303798
 O 0.8865 0.3626 0.15274   -0.303872
 O 0.5787 0.2531 0.42769   -0.566214
 O 0.6436 0.1036 0.29532   -0.517726
 O 0.6137 0.7192 0.44884   -0.540498
 O 0.6055 0.7264 0.28907   -0.52843
 O 0.3932 0.0105 0.54354   -0.748544
