{'_ref': 'TBD', '_srcid': 'CAKYAQ_clean', 'submitters': [{'name': 'Dalar Nazarian Jeff Camp and David Sholl', 'email': 'dalar@gatech.edu jcamp6@gatech.edu'}], '_method': 'VASP DFT with PBE;DDEC'}
data_YbCo3H30C18S6(NO2)6
_symmetry_space_group_name_H-M   'P 1'
_cell_length_a   13.54510000
_cell_length_b   13.54510026
_cell_length_c   23.03940000
_cell_angle_alpha   90.00000000
_cell_angle_beta   90.00000000
_cell_angle_gamma   119.99999936
_symmetry_Int_Tables_number   1
_chemical_formula_structural   YbCo3H30C18S6(NO2)6
_chemical_formula_sum   'Yb3 Co9 H90 C54 S18 N18 O36'
_cell_volume   3660.71769997
_cell_formula_units_Z   3
loop_
 _symmetry_equiv_pos_site_id
 _symmetry_equiv_pos_as_xyz
  1  'x, y, z'
loop_
 _atom_site_label
 _atom_site_fract_x
 _atom_site_fract_y
 _atom_site_fract_z
 _atom_site_charge
 Yb 0.60258 0.0 0.0   1.674908
 Yb 0.39742 0.39742 0.66667   1.674983
 Yb 0.0 0.60258 0.33333   1.674984
 Co 0.23185 0.90074 0.79304   0.108924
 Co 0.66889 0.76815 0.45971   0.108878
 Co 0.09926 0.33111 0.12637   0.108832
 Co 0.33111 0.09926 0.20696   0.108924
 Co 0.90074 0.23185 0.54029   0.108878
 Co 0.76815 0.66889 0.87363   0.108832
 Co 0.0 0.79653 0.83333   -0.145926
 Co 0.79653 0.0 0.5   -0.145405
 Co 0.20347 0.20347 0.16667   -0.145926
 H 0.3826 0.9399 0.8631   0.307013
 H 0.4283 0.0356 0.8211   0.316522
 H 0.3168 0.0886 0.7493   0.307541
 H 0.3617 0.0233 0.7184   0.314249
 H 0.2615 0.7822 0.7202   0.305402
 H 0.3704 0.8489 0.7526   0.31522
 H 0.2189 0.062 0.9333   0.134152
 H 0.2058 0.9374 0.9292   0.121341
 H 0.3762 0.1382 0.8697   0.089318
 H 0.0443 0.9266 0.6709   0.128597
 H 0.0867 0.997 0.7306   0.12326
 H 0.226 0.95 0.6544   0.0957
 H 0.1226 0.5822 0.8378   0.143213
 H 0.0891 0.6282 0.781   0.114131
 H 0.3162 0.7292 0.8269   0.083765
 H 0.5573 0.6174 0.52977   0.306988
 H 0.6073 0.5717 0.48777   0.316495
 H 0.7718 0.6832 0.41597   0.307533
 H 0.6616 0.6383 0.38507   0.314316
 H 0.5207 0.7385 0.38687   0.305343
 H 0.4785 0.6296 0.41927   0.315239
 H 0.8431 0.7811 0.59997   0.134123
 H 0.7316 0.7942 0.59587   0.121383
 H 0.762 0.6238 0.53637   0.089281
 H 0.8823 0.9557 0.33757   0.128697
 H 0.9103 0.9133 0.39727   0.123314
 H 0.724 0.774 0.32107   0.095613
 H 0.4596 0.8774 0.50447   0.143158
 H 0.5391 0.9109 0.44767   0.114131
 H 0.413 0.6838 0.49357   0.083726
 H 0.0601 0.4427 0.19643   0.307041
 H 0.9644 0.3927 0.15443   0.31654
 H 0.9114 0.2282 0.08263   0.30762
 H 0.9767 0.3384 0.05173   0.314302
 H 0.2178 0.4793 0.05353   0.305494
 H 0.1511 0.5215 0.08593   0.315209
 H 0.938 0.1569 0.26663   0.134211
 H 0.0626 0.2684 0.26253   0.121403
 H 0.8618 0.238 0.20303   0.089297
 H 0.0734 0.1177 0.00423   0.128599
 H 0.003 0.0897 0.06393   0.123299
 H 0.05 0.276 0.98773   0.095659
 H 0.4178 0.5404 0.17113   0.14325
 H 0.3718 0.4609 0.11433   0.114115
 H 0.2708 0.587 0.16023   0.083772
 H 0.4427 0.0601 0.1369   0.307013
 H 0.3927 0.9644 0.1789   0.316522
 H 0.2282 0.9114 0.2507   0.307541
 H 0.3384 0.9767 0.2816   0.314249
 H 0.4793 0.2178 0.2798   0.305402
 H 0.5215 0.1511 0.2474   0.31522
 H 0.1569 0.938 0.0667   0.134152
 H 0.2684 0.0626 0.0708   0.121341
 H 0.238 0.8618 0.1303   0.089319
 H 0.1177 0.0734 0.3291   0.128596
 H 0.0897 0.003 0.2694   0.12326
 H 0.276 0.05 0.3456   0.0957
 H 0.5404 0.4178 0.1622   0.143211
 H 0.4609 0.3718 0.219   0.11413
 H 0.587 0.2708 0.1731   0.083765
 H 0.9399 0.3826 0.47023   0.306988
 H 0.0356 0.4283 0.51223   0.316495
 H 0.0886 0.3168 0.58403   0.307533
 H 0.0233 0.3617 0.61493   0.314316
 H 0.7822 0.2615 0.61313   0.305343
 H 0.8489 0.3704 0.58073   0.315239
 H 0.062 0.2189 0.40003   0.134123
 H 0.9374 0.2058 0.40413   0.121383
 H 0.1382 0.3762 0.46363   0.089282
 H 0.9266 0.0443 0.66243   0.128697
 H 0.997 0.0867 0.60273   0.123313
 H 0.95 0.226 0.67893   0.095613
 H 0.5822 0.1226 0.49553   0.143157
 H 0.6282 0.0891 0.55233   0.114131
 H 0.7292 0.3162 0.50643   0.083726
 H 0.6174 0.5573 0.80357   0.307041
 H 0.5717 0.6073 0.84557   0.31654
 H 0.6832 0.7718 0.91737   0.30762
 H 0.6383 0.6616 0.94827   0.314302
 H 0.7385 0.5207 0.94647   0.305494
 H 0.6296 0.4785 0.91407   0.315209
 H 0.7811 0.8431 0.73337   0.134211
 H 0.7942 0.7316 0.73747   0.121403
 H 0.6238 0.762 0.79697   0.089298
 H 0.9557 0.8823 0.99577   0.128599
 H 0.9133 0.9103 0.93607   0.123299
 H 0.774 0.724 0.01227   0.095659
 H 0.8774 0.4596 0.82887   0.143248
 H 0.9109 0.5391 0.88567   0.114114
 H 0.6838 0.413 0.83977   0.083772
 C 0.2291 0.009 0.9077   -0.182639
 C 0.3536 0.0629 0.888   0.025052
 C 0.4323 0.0837 0.9408   0.690056
 C 0.0972 0.9455 0.704   -0.170088
 C 0.2195 0.0023 0.6828   0.030483
 C 0.2533 0.1142 0.652   0.677483
 C 0.143 0.6505 0.8139   -0.185555
 C 0.2647 0.7035 0.7924   0.033055
 C 0.2798 0.6118 0.7604   0.597411
 C 0.7799 0.7709 0.57437   -0.18264
 C 0.7093 0.6464 0.55467   0.025048
 C 0.6514 0.5677 0.60747   0.690174
 C 0.8483 0.9028 0.37067   -0.170255
 C 0.7828 0.7805 0.34947   0.030583
 C 0.8609 0.7467 0.31867   0.677604
 C 0.5075 0.857 0.48057   -0.185444
 C 0.4388 0.7353 0.45907   0.033038
 C 0.332 0.7202 0.42707   0.597459
 C 0.991 0.2201 0.24103   -0.182745
 C 0.9371 0.2907 0.22133   0.02512
 C 0.9163 0.3486 0.27413   0.689981
 C 0.0545 0.1517 0.03733   -0.170163
 C 0.9977 0.2172 0.01613   0.030615
 C 0.8858 0.1391 0.98533   0.677385
 C 0.3495 0.4925 0.14723   -0.185623
 C 0.2965 0.5612 0.12573   0.032919
 C 0.3882 0.668 0.09373   0.597745
 C 0.2201 0.991 0.0923   -0.182638
 C 0.2907 0.9371 0.112   0.025051
 C 0.3486 0.9163 0.0592   0.690056
 C 0.1517 0.0545 0.296   -0.170088
 C 0.2172 0.9977 0.3172   0.030482
 C 0.1391 0.8858 0.348   0.677483
 C 0.4925 0.3495 0.1861   -0.185555
 C 0.5612 0.2965 0.2076   0.033055
 C 0.668 0.3882 0.2396   0.59741
 C 0.009 0.2291 0.42563   -0.18264
 C 0.0629 0.3536 0.44533   0.025048
 C 0.0837 0.4323 0.39253   0.690174
 C 0.9455 0.0972 0.62933   -0.170255
 C 0.0023 0.2195 0.65053   0.030582
 C 0.1142 0.2533 0.68133   0.677604
 C 0.6505 0.143 0.51943   -0.185443
 C 0.7035 0.2647 0.54093   0.033037
 C 0.6118 0.2798 0.57293   0.597459
 C 0.7709 0.7799 0.75897   -0.182745
 C 0.6464 0.7093 0.77867   0.02512
 C 0.5677 0.6514 0.72587   0.689981
 C 0.9028 0.8483 0.96267   -0.170163
 C 0.7805 0.7828 0.98387   0.030615
 C 0.7467 0.8609 0.01467   0.677385
 C 0.857 0.5075 0.85277   -0.185622
 C 0.7353 0.4388 0.87427   0.032918
 C 0.7202 0.332 0.90627   0.597745
 S 0.14424 0.98019 0.84142   0.014292
 S 0.06954 0.81599 0.74207   -0.046727
 S 0.13988 0.7604 0.85688   0.00711
 S 0.83595 0.85576 0.50809   0.014409
 S 0.74645 0.93046 0.40874   -0.046598
 S 0.62052 0.86012 0.52355   0.007141
 S 0.01981 0.16405 0.17475   0.014329
 S 0.18401 0.25355 0.0754   -0.046647
 S 0.2396 0.37948 0.19021   0.007134
 S 0.16405 0.01981 0.15858   0.014292
 S 0.25355 0.18401 0.25793   -0.046727
 S 0.37948 0.2396 0.14312   0.00711
 S 0.98019 0.14424 0.49191   0.01441
 S 0.81599 0.06954 0.59126   -0.046597
 S 0.7604 0.13988 0.47645   0.007141
 S 0.85576 0.83595 0.82525   0.014328
 S 0.93046 0.74645 0.9246   -0.046647
 S 0.86012 0.62052 0.80979   0.007133
 N 0.3666 0.99 0.8441   -0.46645
 N 0.2963 0.0194 0.7325   -0.464941
 N 0.2925 0.8052 0.7566   -0.472809
 N 0.6234 0.6334 0.51077   -0.466397
 N 0.7231 0.7037 0.39917   -0.465021
 N 0.5127 0.7075 0.42327   -0.472733
 N 0.01 0.3766 0.17743   -0.466492
 N 0.9806 0.2769 0.06583   -0.465119
 N 0.1948 0.4873 0.08993   -0.472785
 N 0.3766 0.01 0.1559   -0.46645
 N 0.2769 0.9806 0.2675   -0.464941
 N 0.4873 0.1948 0.2434   -0.472809
 N 0.99 0.3666 0.48923   -0.466397
 N 0.0194 0.2963 0.60083   -0.465021
 N 0.8052 0.2925 0.57673   -0.472733
 N 0.6334 0.6234 0.82257   -0.466492
 N 0.7037 0.7231 0.93417   -0.465119
 N 0.7075 0.5127 0.91007   -0.472785
 O 0.4835 0.0289 0.94098   -0.754236
 O 0.4359 0.1507 0.97915   -0.610994
 O 0.3226 0.2033 0.67883   -0.765425
 O 0.2117 0.1105 0.60308   -0.58625
 O 0.3231 0.5634 0.7883   -0.554714
 O 0.2418 0.589 0.7096   -0.587207
 O 0.5454 0.5165 0.60765   -0.754278
 O 0.7148 0.5641 0.64582   -0.611043
 O 0.8807 0.6774 0.3455   -0.765454
 O 0.8988 0.7883 0.26975   -0.586265
 O 0.2403 0.6769 0.45497   -0.554763
 O 0.3472 0.7582 0.37627   -0.587169
 O 0.9711 0.4546 0.27431   -0.754264
 O 0.8493 0.2852 0.31248   -0.611026
 O 0.7967 0.1193 0.01216   -0.765438
 O 0.8895 0.1012 0.93641   -0.586114
 O 0.4366 0.7597 0.12163   -0.554879
 O 0.411 0.6528 0.04293   -0.587251
 O 0.4546 0.9711 0.05902   -0.754235
 O 0.2852 0.8493 0.02085   -0.610993
 O 0.1193 0.7967 0.32117   -0.765425
 O 0.1012 0.8895 0.39692   -0.586251
 O 0.7597 0.4366 0.2117   -0.554715
 O 0.6528 0.411 0.2904   -0.587207
 O 0.0289 0.4835 0.39235   -0.754278
 O 0.1507 0.4359 0.35418   -0.611043
 O 0.2033 0.3226 0.6545   -0.765455
 O 0.1105 0.2117 0.73025   -0.586265
 O 0.5634 0.3231 0.54503   -0.554763
 O 0.589 0.2418 0.62373   -0.587168
 O 0.5165 0.5454 0.72569   -0.754264
 O 0.5641 0.7148 0.68752   -0.611026
 O 0.6774 0.8807 0.98784   -0.765438
 O 0.7883 0.8988 0.06359   -0.586114
 O 0.6769 0.2403 0.87837   -0.55488
 O 0.7582 0.3472 0.95707   -0.587251
