{'_ref': 'TBD', '_srcid': 'CAKYAQ_clean', 'submitters': [{'name': 'Dalar Nazarian Jeff Camp and David Sholl', 'email': 'dalar@gatech.edu jcamp6@gatech.edu'}], '_method': 'VASP DFT with PBE;DDEC'}
data_NdH8(C3O2)3
_symmetry_space_group_name_H-M   'P 1'
_cell_length_a   8.72530000
_cell_length_b   12.78084506
_cell_length_c   19.47460000
_cell_angle_alpha   90.00000000
_cell_angle_beta   90.00000000
_cell_angle_gamma   109.95832696
_symmetry_Int_Tables_number   1
_chemical_formula_structural   NdH8(C3O2)3
_chemical_formula_sum   'Nd4 H32 C36 O24'
_cell_volume   2041.31083207
_cell_formula_units_Z   4
loop_
 _symmetry_equiv_pos_site_id
 _symmetry_equiv_pos_as_xyz
  1  'x, y, z'
loop_
 _atom_site_label
 _atom_site_fract_x
 _atom_site_fract_y
 _atom_site_fract_z
 _atom_site_charge
 Nd 0.74193 0.48386 0.5   2.268713
 Nd 0.25807 0.51614 0.0   2.268713
 Nd 0.25807 0.51614 0.5   2.268713
 Nd 0.74193 0.48386 0.0   2.268713
 H 0.3358 0.0968 0.5416   0.108056
 H 0.9968 0.334 0.6868   0.135257
 H 0.1198 0.4596 0.684   0.128071
 H 0.6642 0.9032 0.0416   0.108056
 H 0.0032 0.666 0.1868   0.135257
 H 0.8802 0.5404 0.184   0.128071
 H 0.239 0.9032 0.9584   0.107358
 H 0.6628 0.666 0.8132   0.135465
 H 0.6602 0.5404 0.816   0.12778
 H 0.761 0.0968 0.4584   0.107358
 H 0.3372 0.334 0.3132   0.135465
 H 0.3398 0.4596 0.316   0.12778
 H 0.6642 0.9032 0.4584   0.108055
 H 0.0032 0.666 0.3132   0.135257
 H 0.8802 0.5404 0.316   0.128071
 H 0.3358 0.0968 0.9584   0.108055
 H 0.9968 0.334 0.8132   0.135257
 H 0.1198 0.4596 0.816   0.128071
 H 0.761 0.0968 0.0416   0.107357
 H 0.3372 0.334 0.1868   0.135465
 H 0.3398 0.4596 0.184   0.127781
 H 0.239 0.9032 0.5416   0.107357
 H 0.6628 0.666 0.6868   0.135465
 H 0.6602 0.5404 0.684   0.127781
 H 0.8086 0.3958 0.75   0.076398
 H 0.9393 0.519 0.75   0.064385
 H 0.1914 0.6042 0.25   0.076398
 H 0.0607 0.481 0.25   0.064385
 H 0.4128 0.6042 0.75   0.076575
 H 0.4203 0.481 0.75   0.063881
 H 0.5872 0.3958 0.25   0.076575
 H 0.5797 0.519 0.25   0.063881
 C 0.40289 0.05758 0.52466   -0.074391
 C 0.92352 0.43124 0.61974   0.810094
 C 0.00294 0.41268 0.68508   -0.363035
 C 0.59711 0.94242 0.02466   -0.074391
 C 0.07648 0.56876 0.11974   0.810094
 C 0.99706 0.58732 0.18508   -0.363035
 C 0.34531 0.94242 0.97534   -0.072963
 C 0.49228 0.56876 0.88026   0.809445
 C 0.59026 0.58732 0.81492   -0.363217
 C 0.65469 0.05758 0.47534   -0.072963
 C 0.50772 0.43124 0.38026   0.809445
 C 0.40974 0.41268 0.31492   -0.363217
 C 0.59711 0.94242 0.47534   -0.074385
 C 0.07648 0.56876 0.38026   0.810094
 C 0.99706 0.58732 0.31492   -0.363035
 C 0.40289 0.05758 0.97534   -0.074385
 C 0.92352 0.43124 0.88026   0.810094
 C 0.00294 0.41268 0.81492   -0.363035
 C 0.65469 0.05758 0.02466   -0.072956
 C 0.50772 0.43124 0.11974   0.809445
 C 0.40974 0.41268 0.18508   -0.363217
 C 0.34531 0.94242 0.52466   -0.072956
 C 0.49228 0.56876 0.61974   0.809445
 C 0.59026 0.58732 0.68508   -0.363217
 C 0.62042 0.24084 0.5   0.674783
 C 0.55825 0.1165 0.5   -0.096851
 C 0.37958 0.75916 0.0   0.674783
 C 0.44175 0.8835 0.0   -0.096851
 C 0.37958 0.75916 0.5   0.674783
 C 0.44175 0.8835 0.5   -0.096853
 C 0.62042 0.24084 0.0   0.674783
 C 0.55825 0.1165 0.0   -0.096853
 C 0.92676 0.43912 0.75   0.002144
 C 0.07324 0.56088 0.25   0.002144
 C 0.48764 0.56088 0.75   0.003035
 C 0.51236 0.43912 0.25   0.003035
 O 0.52811 0.29302 0.51954   -0.685357
 O 0.77314 0.41728 0.61886   -0.668104
 O 0.00746 0.46092 0.56543   -0.885471
 O 0.47189 0.70698 0.01954   -0.685357
 O 0.22686 0.58272 0.11886   -0.668104
 O 0.99254 0.53908 0.06543   -0.885471
 O 0.23509 0.70698 0.98046   -0.685969
 O 0.35586 0.58272 0.88114   -0.66782
 O 0.54654 0.53908 0.93457   -0.885058
 O 0.76491 0.29302 0.48046   -0.685969
 O 0.64414 0.41728 0.38114   -0.66782
 O 0.45346 0.46092 0.43457   -0.885058
 O 0.47189 0.70698 0.48046   -0.685357
 O 0.22686 0.58272 0.38114   -0.668104
 O 0.99254 0.53908 0.43457   -0.885471
 O 0.52811 0.29302 0.98046   -0.685357
 O 0.77314 0.41728 0.88114   -0.668104
 O 0.00746 0.46092 0.93457   -0.885471
 O 0.76491 0.29302 0.01954   -0.685969
 O 0.64414 0.41728 0.11886   -0.66782
 O 0.45346 0.46092 0.06543   -0.885058
 O 0.23509 0.70698 0.51954   -0.685969
 O 0.35586 0.58272 0.61886   -0.66782
 O 0.54654 0.53908 0.56543   -0.885058
