{'_ref': 'TBD', '_srcid': 'CAKYAQ_clean', 'submitters': [{'name': 'Dalar Nazarian Jeff Camp and David Sholl', 'email': 'dalar@gatech.edu jcamp6@gatech.edu'}], '_method': 'VASP DFT with PBE;DDEC'}
data_Mn3H14(C5O2)6
_symmetry_space_group_name_H-M   'P 1'
_cell_length_a   14.82289981
_cell_length_b   19.21299995
_cell_length_c   19.21300000
_cell_angle_alpha   113.62800008
_cell_angle_beta   104.90210141
_cell_angle_gamma   104.90199996
_symmetry_Int_Tables_number   1
_chemical_formula_structural   Mn3H14(C5O2)6
_chemical_formula_sum   'Mn9 H42 C90 O36'
_cell_volume   4425.25627061
_cell_formula_units_Z   3
loop_
 _symmetry_equiv_pos_site_id
 _symmetry_equiv_pos_as_xyz
  1  'x, y, z'
loop_
 _atom_site_label
 _atom_site_fract_x
 _atom_site_fract_y
 _atom_site_fract_z
 _atom_site_charge
 Mn 0.92369 0.04235 0.32846   1.028516
 Mn 0.59523 0.67154 0.71389   1.061815
 Mn 0.88134 0.28611 0.95765   1.02561
 Mn 0.07631 0.95765 0.67154   1.028533
 Mn 0.40477 0.32846 0.28611   1.061836
 Mn 0.11866 0.71389 0.04235   1.025633
 Mn 0.0 0.0 0.5   0.943434
 Mn 0.5 0.5 0.5   1.194647
 Mn 0.0 0.5 0.0   0.951017
 H 0.732 0.6349 0.451   0.087603
 H 0.855 0.7135 0.418   0.128585
 H 0.5979 0.4533 0.2198   0.078607
 H 0.703 0.5238 0.1769   0.120633
 H 0.9714 0.8087 0.1872   0.113481
 H 0.8415 0.7932 0.3425   0.110188
 H 0.8691 0.5899 0.1837   0.116987
 H 0.281 0.549 0.1839   0.089197
 H 0.437 0.582 0.2955   0.129625
 H 0.3781 0.7802 0.2335   0.079112
 H 0.5261 0.8231 0.3469   0.120616
 H 0.7842 0.8128 0.6215   0.11278
 H 0.499 0.6575 0.4507   0.109413
 H 0.6854 0.8163 0.4062   0.11922
 H 0.0971 0.8161 0.3651   0.09082
 H 0.1415 0.7045 0.2865   0.127628
 H 0.1446 0.7665 0.5467   0.079354
 H 0.1792 0.6531 0.4762   0.11858
 H 0.1627 0.3785 0.1913   0.111515
 H 0.0483 0.5493 0.2068   0.107126
 H 0.2792 0.5938 0.4101   0.115449
 H 0.268 0.3651 0.549   0.087601
 H 0.145 0.2865 0.582   0.128586
 H 0.4021 0.5467 0.7802   0.078625
 H 0.297 0.4762 0.8231   0.120708
 H 0.0286 0.1913 0.8128   0.113491
 H 0.1585 0.2068 0.6575   0.110189
 H 0.1309 0.4101 0.8163   0.116985
 H 0.719 0.451 0.8161   0.089194
 H 0.563 0.418 0.7045   0.129625
 H 0.6219 0.2198 0.7665   0.079131
 H 0.4739 0.1769 0.6531   0.120689
 H 0.2158 0.1872 0.3785   0.112793
 H 0.501 0.3425 0.5493   0.109413
 H 0.3146 0.1837 0.5938   0.119218
 H 0.9029 0.1839 0.6349   0.090817
 H 0.8585 0.2955 0.7135   0.127629
 H 0.8554 0.2335 0.4533   0.079373
 H 0.8208 0.3469 0.5238   0.118675
 H 0.8373 0.6215 0.8087   0.111526
 H 0.9517 0.4507 0.7932   0.107127
 H 0.7208 0.4062 0.5899   0.115448
 C 0.5887 0.4867 0.3622   0.758059
 C 0.6586 0.5353 0.337   -0.184484
 C 0.7293 0.6132 0.3974   -0.014493
 C 0.8016 0.6628 0.3775   -0.16588
 C 0.7838 0.6278 0.2922   0.061656
 C 0.649 0.5057 0.2592   -0.00051
 C 0.7106 0.5479 0.232   -0.162337
 C 0.9673 0.6539 0.1119   0.683731
 C 0.9253 0.6901 0.1765   -0.154256
 C 0.9395 0.778 0.2077   0.000518
 C 0.9053 0.8133 0.2666   -0.128852
 C 0.8609 0.7681 0.2998   -0.065505
 C 0.8453 0.682 0.2671   0.006655
 C 0.8791 0.6455 0.2049   -0.058721
 C 0.9144 0.9002 0.2982   0.668186
 C 0.2265 0.6378 0.1245   0.739876
 C 0.3216 0.663 0.1983   -0.179681
 C 0.3319 0.6026 0.2158   -0.019972
 C 0.4241 0.6225 0.2853   -0.166393
 C 0.4916 0.7078 0.3356   0.063593
 C 0.3898 0.7408 0.2465   0.001359
 C 0.4786 0.768 0.3159   -0.160864
 C 0.8554 0.8881 0.542   0.679608
 C 0.7488 0.8235 0.5136   -0.146021
 C 0.7318 0.7923 0.5703   0.000144
 C 0.6387 0.7334 0.5467   -0.135504
 C 0.5611 0.7002 0.4683   -0.069837
 C 0.5782 0.7329 0.4149   0.006747
 C 0.6742 0.7951 0.4406   -0.062068
 C 0.6162 0.7018 0.602   0.678422
 C 0.102 0.8755 0.5133   0.731957
 C 0.1233 0.8017 0.4647   -0.176028
 C 0.1161 0.7842 0.3868   -0.017871
 C 0.1388 0.7147 0.3372   -0.164653
 C 0.156 0.6644 0.3722   0.059991
 C 0.1433 0.7535 0.4943   0.000244
 C 0.1627 0.6841 0.4521   -0.162091
 C 0.3134 0.458 0.3461   0.708068
 C 0.2352 0.4864 0.3099   -0.158193
 C 0.1615 0.4297 0.222   0.006455
 C 0.092 0.4533 0.1867   -0.146492
 C 0.0928 0.5317 0.2319   -0.063277
 C 0.1633 0.5851 0.318   0.008219
 C 0.2336 0.5594 0.3545   -0.051345
 C 0.0142 0.398 0.0998   0.684224
 C 0.4113 0.5133 0.6378   0.75806
 C 0.3414 0.4647 0.663   -0.184489
 C 0.2707 0.3868 0.6026   -0.014472
 C 0.1984 0.3372 0.6225   -0.165885
 C 0.2162 0.3722 0.7078   0.061665
 C 0.351 0.4943 0.7408   -0.000506
 C 0.2894 0.4521 0.768   -0.162361
 C 0.0327 0.3461 0.8881   0.68372
 C 0.0747 0.3099 0.8235   -0.154244
 C 0.0605 0.222 0.7923   0.000512
 C 0.0947 0.1867 0.7334   -0.128847
 C 0.1391 0.2319 0.7002   -0.065506
 C 0.1547 0.318 0.7329   0.006653
 C 0.1209 0.3545 0.7951   -0.05871
 C 0.0856 0.0998 0.7018   0.668162
 C 0.7735 0.3622 0.8755   0.739881
 C 0.6784 0.337 0.8017   -0.179685
 C 0.6681 0.3974 0.7842   -0.019951
 C 0.5759 0.3775 0.7147   -0.166399
 C 0.5084 0.2922 0.6644   0.063602
 C 0.6102 0.2592 0.7535   0.001362
 C 0.5214 0.232 0.6841   -0.160888
 C 0.1446 0.1119 0.458   0.679585
 C 0.2512 0.1765 0.4864   -0.146008
 C 0.2682 0.2077 0.4297   0.000137
 C 0.3613 0.2666 0.4533   -0.135498
 C 0.4389 0.2998 0.5317   -0.069838
 C 0.4218 0.2671 0.5851   0.006744
 C 0.3258 0.2049 0.5594   -0.062054
 C 0.3838 0.2982 0.398   0.678398
 C 0.898 0.1245 0.4867   0.73196
 C 0.8767 0.1983 0.5353   -0.176034
 C 0.8839 0.2158 0.6132   -0.017842
 C 0.8612 0.2853 0.6628   -0.16466
 C 0.844 0.3356 0.6278   0.060002
 C 0.8567 0.2465 0.5057   0.00025
 C 0.8373 0.3159 0.5479   -0.162123
 C 0.6866 0.542 0.6539   0.708044
 C 0.7648 0.5136 0.6901   -0.158179
 C 0.8385 0.5703 0.778   0.006449
 C 0.908 0.5467 0.8133   -0.146489
 C 0.9072 0.4683 0.7681   -0.063277
 C 0.8367 0.4149 0.682   0.008217
 C 0.7664 0.4406 0.6455   -0.05134
 C 0.9858 0.602 0.9002   0.684214
 O 0.9103 0.9416 0.3654   -0.56969
 O 0.9569 0.5808 0.0839   -0.513561
 O 0.5879 0.519 0.4304   -0.60383
 O 0.527 0.4155 0.3044   -0.669865
 O 0.0157 0.7085 0.0972   -0.629148
 O 0.922 0.9254 0.2469   -0.575687
 O 0.5449 0.6346 0.5762   -0.611524
 O 0.873 0.9161 0.4969   -0.524245
 O 0.1575 0.5696 0.0886   -0.537645
 O 0.2226 0.6956 0.1111   -0.659379
 O 0.9185 0.9028 0.6113   -0.63616
 O 0.6751 0.7531 0.6785   -0.578328
 O 0.9687 0.4238 0.0584   -0.572065
 O 0.3761 0.5031 0.4192   -0.594037
 O 0.0689 0.9114 0.481   -0.532595
 O 0.1115 0.8889 0.5845   -0.657851
 O 0.3072 0.3887 0.2915   -0.639806
 O 0.9966 0.3215 0.0746   -0.55416
 O 0.0897 0.0584 0.6346   -0.569688
 O 0.0431 0.4192 0.9161   -0.513561
 O 0.4121 0.481 0.5696   -0.603831
 O 0.473 0.5845 0.6956   -0.669863
 O 0.9843 0.2915 0.9028   -0.629146
 O 0.078 0.0746 0.7531   -0.575681
 O 0.4551 0.3654 0.4238   -0.611523
 O 0.127 0.0839 0.5031   -0.524246
 O 0.8425 0.4304 0.9114   -0.537646
 O 0.7774 0.3044 0.8889   -0.659378
 O 0.0815 0.0972 0.3887   -0.636157
 O 0.3249 0.2469 0.3215   -0.578322
 O 0.0313 0.5762 0.9416   -0.572065
 O 0.6239 0.4969 0.5808   -0.594036
 O 0.9311 0.0886 0.519   -0.532599
 O 0.8885 0.1111 0.4155   -0.65785
 O 0.6928 0.6113 0.7085   -0.639803
 O 0.0034 0.6785 0.9254   -0.554152
