{'_ref': 'TBD', '_srcid': 'CAKYAQ_clean', 'submitters': [{'name': 'Dalar Nazarian Jeff Camp and David Sholl', 'email': 'dalar@gatech.edu jcamp6@gatech.edu'}], '_method': 'VASP DFT with PBE;DDEC'}
data_CdH26C25S2(NO)4
_symmetry_space_group_name_H-M   'P 1'
_cell_length_a   12.27310000
_cell_length_b   12.27310000
_cell_length_c   25.13500000
_cell_angle_alpha   90.00000000
_cell_angle_beta   90.00000000
_cell_angle_gamma   90.00000000
_symmetry_Int_Tables_number   1
_chemical_formula_structural   CdH26C25S2(NO)4
_chemical_formula_sum   'Cd4 H104 C100 S8 N16 O16'
_cell_volume   3786.05950304
_cell_formula_units_Z   4
loop_
 _symmetry_equiv_pos_site_id
 _symmetry_equiv_pos_as_xyz
  1  'x, y, z'
loop_
 _atom_site_label
 _atom_site_fract_x
 _atom_site_fract_y
 _atom_site_fract_z
 _atom_site_charge
 Cd 0.75 0.75 0.92322   0.683289
 Cd 0.25 0.25 0.42322   0.683289
 Cd 0.25 0.25 0.07678   0.683289
 Cd 0.75 0.75 0.57678   0.683289
 H 0.919 0.573 0.8694   0.044
 H 0.9352 0.435 0.8081   0.154938
 H 0.6335 0.5046 0.759   0.136675
 H 0.626 0.6379 0.8229   0.066262
 H 0.6477 0.3247 0.7278   0.06747
 H 0.6932 0.4079 0.6856   0.058399
 H 0.6017 0.1735 0.6609   0.06518
 H 0.6815 0.1572 0.6124   0.058591
 H 0.4194 0.1137 0.4972   0.043705
 H 0.5403 0.1213 0.5673   0.135577
 H 0.4998 0.4436 0.566   0.146746
 H 0.3783 0.423 0.4977   0.066196
 H 0.5087 0.7708 0.9475   0.097603
 H 0.581 0.927 0.8694   0.044
 H 0.5648 0.065 0.8081   0.154938
 H 0.8665 0.9954 0.759   0.136675
 H 0.874 0.8621 0.8229   0.066262
 H 0.8523 0.1753 0.7278   0.06747
 H 0.8068 0.0921 0.6856   0.058399
 H 0.8983 0.3265 0.6609   0.06518
 H 0.8185 0.3428 0.6124   0.058592
 H 0.0806 0.3863 0.4972   0.043705
 H 0.9597 0.3787 0.5673   0.135577
 H 0.0002 0.0564 0.566   0.146746
 H 0.1217 0.077 0.4977   0.066196
 H 0.9913 0.7292 0.9475   0.097603
 H 0.427 0.419 0.3694   0.044
 H 0.565 0.4352 0.3081   0.154938
 H 0.4954 0.1335 0.259   0.136675
 H 0.3621 0.126 0.3229   0.066262
 H 0.6753 0.1477 0.2278   0.06747
 H 0.5921 0.1932 0.1856   0.058399
 H 0.8265 0.1017 0.1609   0.06518
 H 0.8428 0.1815 0.1124   0.058591
 H 0.8863 0.9194 0.9972   0.043705
 H 0.8787 0.0403 0.0673   0.135577
 H 0.5564 0.9998 0.066   0.146746
 H 0.577 0.8783 0.9977   0.066196
 H 0.2292 0.0087 0.4475   0.097604
 H 0.073 0.081 0.3694   0.044
 H 0.935 0.0648 0.3081   0.154938
 H 0.0046 0.3665 0.259   0.136675
 H 0.1379 0.374 0.3229   0.066262
 H 0.8247 0.3523 0.2278   0.06747
 H 0.9079 0.3068 0.1856   0.058399
 H 0.6735 0.3983 0.1609   0.06518
 H 0.6572 0.3185 0.1124   0.058592
 H 0.6137 0.5806 0.9972   0.043705
 H 0.6213 0.4597 0.0673   0.135577
 H 0.9436 0.5002 0.066   0.146746
 H 0.923 0.6217 0.9977   0.066196
 H 0.2708 0.4913 0.4475   0.097604
 H 0.081 0.427 0.1306   0.044
 H 0.0648 0.565 0.1919   0.154938
 H 0.3665 0.4954 0.241   0.136674
 H 0.374 0.3621 0.1771   0.066262
 H 0.3523 0.6753 0.2722   0.06747
 H 0.3068 0.5921 0.3144   0.058399
 H 0.3983 0.8265 0.3391   0.06518
 H 0.3185 0.8428 0.3876   0.058591
 H 0.5806 0.8863 0.5028   0.043705
 H 0.4597 0.8787 0.4327   0.135577
 H 0.5002 0.5564 0.434   0.146746
 H 0.6217 0.577 0.5023   0.066196
 H 0.4913 0.2292 0.0525   0.097603
 H 0.419 0.073 0.1306   0.044
 H 0.4352 0.935 0.1919   0.154938
 H 0.1335 0.0046 0.241   0.136674
 H 0.126 0.1379 0.1771   0.066262
 H 0.1477 0.8247 0.2722   0.06747
 H 0.1932 0.9079 0.3144   0.058399
 H 0.1017 0.6735 0.3391   0.065179
 H 0.1815 0.6572 0.3876   0.058592
 H 0.9194 0.6137 0.5028   0.043705
 H 0.0403 0.6213 0.4327   0.135577
 H 0.9998 0.9436 0.434   0.146746
 H 0.8783 0.923 0.5023   0.066196
 H 0.0087 0.2708 0.0525   0.097603
 H 0.573 0.581 0.6306   0.044
 H 0.435 0.5648 0.6919   0.154938
 H 0.5046 0.8665 0.741   0.136674
 H 0.6379 0.874 0.6771   0.066262
 H 0.3247 0.8523 0.7722   0.06747
 H 0.4079 0.8068 0.8144   0.058399
 H 0.1735 0.8983 0.8391   0.06518
 H 0.1572 0.8185 0.8876   0.058591
 H 0.1137 0.0806 0.0028   0.043705
 H 0.1213 0.9597 0.9327   0.135577
 H 0.4436 0.0002 0.934   0.146746
 H 0.423 0.1217 0.0023   0.066196
 H 0.7708 0.9913 0.5525   0.097604
 H 0.927 0.919 0.6306   0.044
 H 0.065 0.9352 0.6919   0.154938
 H 0.9954 0.6335 0.741   0.136674
 H 0.8621 0.626 0.6771   0.066262
 H 0.1753 0.6477 0.7722   0.06747
 H 0.0921 0.6932 0.8144   0.058399
 H 0.3265 0.6017 0.8391   0.065179
 H 0.3428 0.6815 0.8876   0.058592
 H 0.3863 0.4194 0.0028   0.043705
 H 0.3787 0.5403 0.9327   0.135577
 H 0.0564 0.4998 0.934   0.146746
 H 0.077 0.3783 0.0023   0.066196
 H 0.7292 0.5087 0.5525   0.097604
 C 0.8599 0.5579 0.84754   0.198275
 C 0.8711 0.4751 0.8103   -0.322865
 C 0.7852 0.4539 0.77681   0.366922
 C 0.6926 0.516 0.7814   -0.348811
 C 0.689 0.5962 0.8203   0.213158
 C 0.7117 0.3456 0.70753   0.072724
 C 0.6557 0.2091 0.63868   0.076703
 C 0.4356 0.1816 0.5116   0.223474
 C 0.5103 0.1847 0.5534   -0.32684
 C 0.5373 0.2839 0.57272   0.3539
 C 0.4854 0.3746 0.5524   -0.318345
 C 0.4118 0.3612 0.5115   0.183681
 C 0.6401 0.9421 0.84754   0.198275
 C 0.6289 0.0249 0.8103   -0.322864
 C 0.7148 0.0461 0.77681   0.366922
 C 0.8074 0.984 0.7814   -0.348811
 C 0.811 0.9038 0.8203   0.213158
 C 0.7883 0.1544 0.70753   0.072724
 C 0.8443 0.2909 0.63868   0.076703
 C 0.0644 0.3184 0.5116   0.223474
 C 0.9897 0.3153 0.5534   -0.32684
 C 0.9627 0.2161 0.57272   0.3539
 C 0.0146 0.1254 0.5524   -0.318345
 C 0.0882 0.1388 0.5115   0.183681
 C 0.4421 0.3599 0.34754   0.198275
 C 0.5249 0.3711 0.3103   -0.322865
 C 0.5461 0.2852 0.27681   0.366922
 C 0.484 0.1926 0.2814   -0.348811
 C 0.4038 0.189 0.3203   0.213158
 C 0.6544 0.2117 0.20753   0.072724
 C 0.7909 0.1557 0.13868   0.076703
 C 0.8184 0.9356 0.0116   0.223475
 C 0.8153 0.0103 0.0534   -0.32684
 C 0.7161 0.0373 0.07272   0.3539
 C 0.6254 0.9854 0.0524   -0.318345
 C 0.6388 0.9118 0.0115   0.183681
 C 0.0579 0.1401 0.34754   0.198275
 C 0.9751 0.1289 0.3103   -0.322864
 C 0.9539 0.2148 0.27681   0.366922
 C 0.016 0.3074 0.2814   -0.348811
 C 0.0962 0.311 0.3203   0.213158
 C 0.8456 0.2883 0.20753   0.072724
 C 0.7091 0.3443 0.13868   0.076703
 C 0.6816 0.5644 0.0116   0.223475
 C 0.6847 0.4897 0.0534   -0.32684
 C 0.7839 0.4627 0.07272   0.353901
 C 0.8746 0.5146 0.0524   -0.318345
 C 0.8612 0.5882 0.0115   0.183681
 C 0.75 0.25 0.6725   -0.042875
 C 0.75 0.25 0.1725   -0.042875
 C 0.1401 0.4421 0.15246   0.198275
 C 0.1289 0.5249 0.1897   -0.322865
 C 0.2148 0.5461 0.22319   0.366922
 C 0.3074 0.484 0.2186   -0.34881
 C 0.311 0.4038 0.1797   0.213157
 C 0.2883 0.6544 0.29247   0.072724
 C 0.3443 0.7909 0.36132   0.076703
 C 0.5644 0.8184 0.4884   0.223474
 C 0.4897 0.8153 0.4466   -0.32684
 C 0.4627 0.7161 0.42728   0.3539
 C 0.5146 0.6254 0.4476   -0.318345
 C 0.5882 0.6388 0.4885   0.183681
 C 0.3599 0.0579 0.15246   0.198275
 C 0.3711 0.9751 0.1897   -0.322864
 C 0.2852 0.9539 0.22319   0.366922
 C 0.1926 0.016 0.2186   -0.34881
 C 0.189 0.0962 0.1797   0.213157
 C 0.2117 0.8456 0.29247   0.072724
 C 0.1557 0.7091 0.36132   0.076703
 C 0.9356 0.6816 0.4884   0.223474
 C 0.0103 0.6847 0.4466   -0.32684
 C 0.0373 0.7839 0.42728   0.3539
 C 0.9854 0.8746 0.4476   -0.318345
 C 0.9118 0.8612 0.4885   0.183681
 C 0.5579 0.6401 0.65246   0.198275
 C 0.4751 0.6289 0.6897   -0.322865
 C 0.4539 0.7148 0.72319   0.366922
 C 0.516 0.8074 0.7186   -0.34881
 C 0.5962 0.811 0.6797   0.213158
 C 0.3456 0.7883 0.79247   0.072724
 C 0.2091 0.8443 0.86132   0.076703
 C 0.1816 0.0644 0.9884   0.223475
 C 0.1847 0.9897 0.9466   -0.32684
 C 0.2839 0.9627 0.92728   0.3539
 C 0.3746 0.0146 0.9476   -0.318345
 C 0.3612 0.0882 0.9885   0.183681
 C 0.9421 0.8599 0.65246   0.198275
 C 0.0249 0.8711 0.6897   -0.322864
 C 0.0461 0.7852 0.72319   0.366922
 C 0.984 0.6926 0.7186   -0.34881
 C 0.9038 0.689 0.6797   0.213157
 C 0.1544 0.7117 0.79247   0.072724
 C 0.2909 0.6557 0.86132   0.076703
 C 0.3184 0.4356 0.9884   0.223475
 C 0.3153 0.5103 0.9466   -0.32684
 C 0.2161 0.5373 0.92728   0.353901
 C 0.1254 0.4854 0.9476   -0.318345
 C 0.1388 0.4118 0.9885   0.183681
 C 0.25 0.75 0.3275   -0.042875
 C 0.25 0.75 0.8275   -0.042875
 S 0.54178 0.72386 0.92154   -0.611108
 S 0.95822 0.77614 0.92154   -0.611108
 S 0.27614 0.04178 0.42154   -0.611108
 S 0.22386 0.45822 0.42154   -0.611108
 S 0.45822 0.27614 0.07846   -0.611108
 S 0.04178 0.22386 0.07846   -0.611108
 S 0.72386 0.95822 0.57846   -0.611108
 S 0.77614 0.54178 0.57846   -0.611108
 N 0.7698 0.6172 0.85394   -0.344748
 N 0.3862 0.2668 0.49086   -0.349216
 N 0.7302 0.8828 0.85394   -0.344748
 N 0.1138 0.2332 0.49086   -0.349216
 N 0.3828 0.2698 0.35394   -0.344748
 N 0.7332 0.8862 0.99086   -0.349216
 N 0.1172 0.2302 0.35394   -0.344748
 N 0.7668 0.6138 0.99086   -0.349216
 N 0.2302 0.3828 0.14606   -0.344748
 N 0.6138 0.7332 0.50914   -0.349216
 N 0.2698 0.1172 0.14606   -0.344748
 N 0.8862 0.7668 0.50914   -0.349216
 N 0.6172 0.7302 0.64606   -0.344748
 N 0.2668 0.1138 0.00914   -0.349216
 N 0.8828 0.7698 0.64606   -0.344748
 N 0.2332 0.3862 0.00914   -0.349216
 O 0.7993 0.3723 0.74258   -0.265112
 O 0.6092 0.3025 0.6129   -0.263344
 O 0.7007 0.1277 0.74258   -0.265112
 O 0.8908 0.1975 0.6129   -0.263344
 O 0.6277 0.2993 0.24258   -0.265112
 O 0.6975 0.1092 0.1129   -0.263344
 O 0.8723 0.2007 0.24258   -0.265112
 O 0.8025 0.3908 0.1129   -0.263344
 O 0.2007 0.6277 0.25742   -0.265112
 O 0.3908 0.6975 0.3871   -0.263344
 O 0.2993 0.8723 0.25742   -0.265112
 O 0.1092 0.8025 0.3871   -0.263344
 O 0.3723 0.7007 0.75742   -0.265112
 O 0.3025 0.8908 0.8871   -0.263344
 O 0.1277 0.7993 0.75742   -0.265112
 O 0.1975 0.6092 0.8871   -0.263344
