{'_ref': 'TBD', '_srcid': 'CAKYAQ_clean', 'submitters': [{'name': 'Dalar Nazarian Jeff Camp and David Sholl', 'email': 'dalar@gatech.edu jcamp6@gatech.edu'}], '_method': 'VASP DFT with PBE;DDEC'}
data_FeAg2H4(C4N3)2
_symmetry_space_group_name_H-M   'P 1'
_cell_length_a   7.49300000
_cell_length_b   13.05280000
_cell_length_c   14.25840000
_cell_angle_alpha   90.00000000
_cell_angle_beta   92.05499855
_cell_angle_gamma   90.00000000
_symmetry_Int_Tables_number   1
_chemical_formula_structural   FeAg2H4(C4N3)2
_chemical_formula_sum   'Fe4 Ag8 H16 C32 N24'
_cell_volume   1393.64066816
_cell_formula_units_Z   4
loop_
 _symmetry_equiv_pos_site_id
 _symmetry_equiv_pos_as_xyz
  1  'x, y, z'
loop_
 _atom_site_label
 _atom_site_fract_x
 _atom_site_fract_y
 _atom_site_fract_z
 _atom_site_charge
 Fe 0.5 0.5 0.0   0.298544
 Fe 0.0 0.0 0.0   0.298544
 Fe 0.0 0.0 0.5   0.869567
 Fe 0.5 0.5 0.5   0.869565
 Ag 0.72949 0.24462 0.75932   0.2019
 Ag 0.96395 0.44483 0.78324   0.212305
 Ag 0.77051 0.74462 0.24068   0.201901
 Ag 0.53605 0.94483 0.21676   0.212306
 Ag 0.27051 0.75538 0.24068   0.201936
 Ag 0.03605 0.55517 0.21676   0.212329
 Ag 0.22949 0.25538 0.75932   0.201937
 Ag 0.46395 0.05517 0.78324   0.21233
 H 0.387 0.288 0.005   0.084476
 H 0.382 0.153 0.113   0.138162
 H 0.478 0.196 0.265   0.045896
 H 0.541 0.479 0.209   0.075154
 H 0.113 0.788 0.995   0.084476
 H 0.118 0.653 0.887   0.138162
 H 0.022 0.696 0.735   0.045896
 H 0.959 0.979 0.791   0.075154
 H 0.613 0.712 0.995   0.08448
 H 0.618 0.847 0.887   0.138164
 H 0.522 0.804 0.735   0.045898
 H 0.459 0.521 0.791   0.075153
 H 0.887 0.212 0.005   0.08448
 H 0.882 0.347 0.113   0.138164
 H 0.978 0.304 0.265   0.045898
 H 0.041 0.021 0.209   0.075153
 C 0.6583 0.3427 0.8651   -0.110437
 C 0.1486 0.4467 0.8938   -0.114165
 C 0.4239 0.2942 0.0695   0.173068
 C 0.4215 0.2148 0.1332   -0.256155
 C 0.4708 0.2369 0.2253   0.294172
 C 0.5146 0.4041 0.18737   0.301646
 C 0.8049 0.1508 0.6515   0.014299
 C 0.8081 0.4802 0.6654   0.01003
 C 0.8417 0.8427 0.1349   -0.110437
 C 0.3514 0.9467 0.1062   -0.114165
 C 0.0761 0.7942 0.9305   0.173068
 C 0.0785 0.7148 0.8668   -0.256155
 C 0.0292 0.7369 0.7747   0.294171
 C 0.9854 0.9041 0.81263   0.301646
 C 0.6951 0.6508 0.3485   0.014296
 C 0.6919 0.9802 0.3346   0.010026
 C 0.3417 0.6573 0.1349   -0.110453
 C 0.8514 0.5533 0.1062   -0.114224
 C 0.5761 0.7058 0.9305   0.173016
 C 0.5785 0.7852 0.8668   -0.256177
 C 0.5292 0.7631 0.7747   0.294146
 C 0.4854 0.5959 0.81263   0.301643
 C 0.1951 0.8492 0.3485   0.014313
 C 0.1919 0.5198 0.3346   0.010033
 C 0.1583 0.1573 0.8651   -0.110454
 C 0.6486 0.0533 0.8938   -0.114225
 C 0.9239 0.2058 0.0695   0.173016
 C 0.9215 0.2852 0.1332   -0.256177
 C 0.9708 0.2631 0.2253   0.294146
 C 0.0146 0.0959 0.18737   0.301643
 C 0.3049 0.3492 0.6515   0.014309
 C 0.3081 0.0198 0.6654   0.010029
 N 0.609 0.40186 0.91839   -0.165644
 N 0.2722 0.46404 0.94169   -0.17551
 N 0.4732 0.38976 0.09519   -0.211279
 N 0.5162 0.3314 0.25283   -0.429262
 N 0.8536 0.0978 0.59396   -0.337002
 N 0.7128 0.49944 0.6038   -0.335725
 N 0.891 0.90186 0.08161   -0.165644
 N 0.2278 0.96404 0.05831   -0.17551
 N 0.0268 0.88976 0.90481   -0.211279
 N 0.9838 0.8314 0.74717   -0.429262
 N 0.6464 0.5978 0.40604   -0.33698
 N 0.7872 0.99944 0.3962   -0.335702
 N 0.391 0.59814 0.08161   -0.165646
 N 0.7278 0.53596 0.05831   -0.175505
 N 0.5268 0.61024 0.90481   -0.211273
 N 0.4838 0.6686 0.74717   -0.429247
 N 0.1464 0.9022 0.40604   -0.336977
 N 0.2872 0.50056 0.3962   -0.335685
 N 0.109 0.09814 0.91839   -0.165645
 N 0.7722 0.03596 0.94169   -0.175505
 N 0.9732 0.11024 0.09519   -0.211273
 N 0.0162 0.1686 0.25283   -0.429247
 N 0.3536 0.4022 0.59396   -0.336955
 N 0.2128 0.00056 0.6038   -0.335663
