{'_ref': 'TBD', '_srcid': 'CAKYAQ_clean', 'submitters': [{'name': 'Dalar Nazarian Jeff Camp and David Sholl', 'email': 'dalar@gatech.edu jcamp6@gatech.edu'}], '_method': 'VASP DFT with PBE;DDEC'}
data_FeH4Au2(C4N3)2
_symmetry_space_group_name_H-M   'P 1'
_cell_length_a   7.22719990
_cell_length_b   13.30750000
_cell_length_c   14.61570000
_cell_angle_alpha   90.00000000
_cell_angle_beta   90.94399766
_cell_angle_gamma   90.00000000
_symmetry_Int_Tables_number   1
_chemical_formula_structural   FeH4Au2(C4N3)2
_chemical_formula_sum   'Fe4 H16 Au8 C32 N24'
_cell_volume   1405.48823408
_cell_formula_units_Z   4
loop_
 _symmetry_equiv_pos_site_id
 _symmetry_equiv_pos_as_xyz
  1  'x, y, z'
loop_
 _atom_site_label
 _atom_site_fract_x
 _atom_site_fract_y
 _atom_site_fract_z
 _atom_site_charge
 Fe 0.5 0.5 0.0   0.852781
 Fe 0.0 0.0 0.0   0.852781
 Fe 0.0 0.0 0.5   1.031661
 Fe 0.5 0.5 0.5   1.031661
 H 0.397 0.289 0.019   0.07947
 H 0.405 0.148 0.128   0.128655
 H 0.498 0.184 0.275   0.069036
 H 0.524 0.465 0.202   0.034169
 H 0.103 0.789 0.981   0.07947
 H 0.095 0.648 0.872   0.128655
 H 0.002 0.684 0.725   0.069036
 H 0.976 0.965 0.798   0.034169
 H 0.603 0.711 0.981   0.07947
 H 0.595 0.852 0.872   0.128655
 H 0.502 0.816 0.725   0.069036
 H 0.476 0.535 0.798   0.034169
 H 0.897 0.211 0.019   0.07947
 H 0.905 0.352 0.128   0.128655
 H 0.998 0.316 0.275   0.069036
 H 0.024 0.035 0.202   0.034169
 Au 0.73177 0.24511 0.75096   0.026803
 Au 0.97768 0.45569 0.76825   0.021726
 Au 0.76823 0.74511 0.24904   0.026803
 Au 0.52232 0.95569 0.23175   0.021726
 Au 0.26823 0.75489 0.24904   0.026805
 Au 0.02232 0.54431 0.23175   0.021728
 Au 0.23177 0.25489 0.75096   0.026805
 Au 0.47768 0.04431 0.76825   0.021728
 C 0.6584 0.3331 0.8542   0.10233
 C 0.1357 0.4517 0.8811   0.099444
 C 0.4299 0.2898 0.0815   0.219376
 C 0.436 0.2123 0.1443   -0.241857
 C 0.4815 0.236 0.233   0.26064
 C 0.5054 0.4003 0.1945   0.406603
 C 0.8073 0.1573 0.6475   0.136126
 C 0.8215 0.4802 0.6592   0.136184
 C 0.8416 0.8331 0.1458   0.10233
 C 0.3643 0.9517 0.1189   0.099444
 C 0.0701 0.7898 0.9185   0.219376
 C 0.064 0.7123 0.8557   -0.241857
 C 0.0185 0.736 0.767   0.26064
 C 0.9946 0.9003 0.8055   0.406603
 C 0.6927 0.6573 0.3525   0.136126
 C 0.6785 0.9802 0.3408   0.136184
 C 0.3416 0.6669 0.1458   0.102329
 C 0.8643 0.5483 0.1189   0.099443
 C 0.5701 0.7102 0.9185   0.21937
 C 0.564 0.7877 0.8557   -0.241861
 C 0.5185 0.764 0.767   0.260638
 C 0.4946 0.5997 0.8055   0.406602
 C 0.1927 0.8427 0.3525   0.136124
 C 0.1785 0.5198 0.3408   0.136183
 C 0.1584 0.1669 0.8542   0.102329
 C 0.6357 0.0483 0.8811   0.099443
 C 0.9299 0.2102 0.0815   0.21937
 C 0.936 0.2877 0.1443   -0.241861
 C 0.9815 0.264 0.233   0.260638
 C 0.0054 0.0997 0.1945   0.406602
 C 0.3073 0.3427 0.6475   0.136124
 C 0.3215 0.0198 0.6592   0.136183
 N 0.6157 0.3861 0.9121   -0.363482
 N 0.2363 0.4586 0.9412   -0.370073
 N 0.4669 0.385 0.1066   -0.396176
 N 0.515 0.3304 0.2593   -0.44521
 N 0.8541 0.1051 0.5911   -0.418981
 N 0.7229 0.4974 0.5978   -0.426998
 N 0.8843 0.8861 0.0879   -0.363482
 N 0.2637 0.9586 0.0588   -0.370073
 N 0.0331 0.885 0.8934   -0.396176
 N 0.985 0.8304 0.7407   -0.44521
 N 0.6459 0.6051 0.4089   -0.418981
 N 0.7771 0.9974 0.4022   -0.426999
 N 0.3843 0.6139 0.0879   -0.363483
 N 0.7637 0.5414 0.0588   -0.370073
 N 0.5331 0.615 0.8934   -0.396175
 N 0.485 0.6696 0.7407   -0.44521
 N 0.1459 0.8949 0.4089   -0.41898
 N 0.2771 0.5026 0.4022   -0.426998
 N 0.1157 0.1139 0.9121   -0.363483
 N 0.7363 0.0414 0.9412   -0.370073
 N 0.9669 0.115 0.1066   -0.396175
 N 0.015 0.1696 0.2593   -0.44521
 N 0.3541 0.3949 0.5911   -0.418981
 N 0.2229 0.0026 0.5978   -0.426998
