{'_ref': 'TBD', '_srcid': 'CAKYAQ_clean', 'submitters': [{'name': 'Dalar Nazarian Jeff Camp and David Sholl', 'email': 'dalar@gatech.edu jcamp6@gatech.edu'}], '_method': 'VASP DFT with PBE;DDEC'}
data_FeH4Au2(C4N3)2
_symmetry_space_group_name_H-M   'P 1'
_cell_length_a   7.43059994
_cell_length_b   13.17700000
_cell_length_c   14.01940000
_cell_angle_alpha   90.00000000
_cell_angle_beta   91.37799665
_cell_angle_gamma   90.00000000
_symmetry_Int_Tables_number   1
_chemical_formula_structural   FeH4Au2(C4N3)2
_chemical_formula_sum   'Fe4 H16 Au8 C32 N24'
_cell_volume   1372.28474674
_cell_formula_units_Z   4
loop_
 _symmetry_equiv_pos_site_id
 _symmetry_equiv_pos_as_xyz
  1  'x, y, z'
loop_
 _atom_site_label
 _atom_site_fract_x
 _atom_site_fract_y
 _atom_site_fract_z
 _atom_site_charge
 Fe 0.5 0.5 0.0   0.394285
 Fe 0.0 0.0 0.0   0.394285
 Fe 0.0 0.0 0.5   1.062657
 Fe 0.5 0.5 0.5   1.062654
 H 0.375 0.284 0.011   0.066654
 H 0.372 0.154 0.115   0.13359
 H 0.457 0.19 0.263   0.048153
 H 0.526 0.459 0.204   0.017799
 H 0.125 0.784 0.989   0.066654
 H 0.128 0.654 0.885   0.13359
 H 0.043 0.69 0.737   0.048153
 H 0.974 0.959 0.796   0.017799
 H 0.625 0.716 0.989   0.066654
 H 0.628 0.846 0.885   0.133589
 H 0.543 0.81 0.737   0.048153
 H 0.474 0.541 0.796   0.017798
 H 0.875 0.216 0.011   0.066654
 H 0.872 0.346 0.115   0.133589
 H 0.957 0.31 0.263   0.048153
 H 0.026 0.041 0.204   0.017798
 Au 0.73154 0.24735 0.75933   0.031504
 Au 0.97712 0.46033 0.77643   0.041433
 Au 0.76846 0.74735 0.24067   0.031504
 Au 0.52288 0.96033 0.22357   0.041433
 Au 0.26846 0.75265 0.24067   0.031504
 Au 0.02288 0.53967 0.22357   0.041433
 Au 0.23154 0.25265 0.75933   0.031504
 Au 0.47712 0.03967 0.77643   0.041433
 C 0.6532 0.3403 0.8614   0.028127
 C 0.1505 0.4592 0.8855   0.019019
 C 0.4004 0.2996 0.0689   0.213179
 C 0.3932 0.2198 0.1332   -0.262165
 C 0.4443 0.2394 0.2254   0.278292
 C 0.499 0.4045 0.1878   0.417126
 C 0.8108 0.1555 0.6548   0.137365
 C 0.8169 0.4831 0.6639   0.142899
 C 0.8468 0.8403 0.1386   0.028127
 C 0.3495 0.9592 0.1145   0.019019
 C 0.0996 0.7996 0.9311   0.213179
 C 0.1068 0.7198 0.8668   -0.262165
 C 0.0557 0.7394 0.7746   0.278292
 C 0.000999999999998 0.9045 0.8122   0.417126
 C 0.6892 0.6555 0.3452   0.137364
 C 0.6831 0.9831 0.3361   0.142899
 C 0.3468 0.6597 0.1386   0.028127
 C 0.8495 0.5408 0.1145   0.019019
 C 0.5996 0.7004 0.9311   0.213178
 C 0.6068 0.7802 0.8668   -0.262161
 C 0.5557 0.7606 0.7746   0.278294
 C 0.501 0.5955 0.8122   0.417129
 C 0.1892 0.8445 0.3452   0.137364
 C 0.1831 0.5169 0.3361   0.142899
 C 0.1532 0.1597 0.8614   0.028127
 C 0.6505 0.0408 0.8855   0.019019
 C 0.9004 0.2004 0.0689   0.213178
 C 0.8932 0.2802 0.1332   -0.262161
 C 0.9443 0.2606 0.2254   0.278294
 C 0.999 0.0955 0.1878   0.417129
 C 0.3108 0.3445 0.6548   0.137363
 C 0.3169 0.0169 0.6639   0.142899
 N 0.6051 0.3985 0.917   -0.229728
 N 0.2706 0.4713 0.9383   -0.233679
 N 0.4582 0.3926 0.0964   -0.266539
 N 0.4975 0.3325 0.2543   -0.457433
 N 0.8571 0.1008 0.5974   -0.430762
 N 0.7178 0.5002 0.602   -0.423309
 N 0.8949 0.8985 0.083   -0.229728
 N 0.2294 0.9713 0.0617   -0.233679
 N 0.0418 0.8926 0.9036   -0.266539
 N 0.0025 0.8325 0.7457   -0.457433
 N 0.6429 0.6008 0.4026   -0.430762
 N 0.7822 0.0002 0.398   -0.423309
 N 0.3949 0.6015 0.083   -0.229728
 N 0.7294 0.5287 0.0617   -0.233679
 N 0.5418 0.6074 0.9036   -0.266539
 N 0.5025 0.6675 0.7457   -0.457431
 N 0.1429 0.8992 0.4026   -0.430762
 N 0.2822 0.4998 0.398   -0.423307
 N 0.1051 0.1015 0.917   -0.229728
 N 0.7706 0.0287 0.9383   -0.233679
 N 0.9582 0.1074 0.0964   -0.266539
 N 0.9975 0.1675 0.2543   -0.457431
 N 0.3571 0.3992 0.5974   -0.430761
 N 0.2178 0.9998 0.602   -0.423306
