{'_ref': 'TBD', '_srcid': 'CAKYAQ_clean', 'submitters': [{'name': 'Dalar Nazarian Jeff Camp and David Sholl', 'email': 'dalar@gatech.edu jcamp6@gatech.edu'}], '_method': 'VASP DFT with PBE;DDEC'}
data_V9Si4H16C8(N2O9)2
_symmetry_space_group_name_H-M   'P 1'
_cell_length_a   16.16900000
_cell_length_b   16.16900000
_cell_length_c   18.19900000
_cell_angle_alpha   90.00000000
_cell_angle_beta   90.00000000
_cell_angle_gamma   90.00000000
_symmetry_Int_Tables_number   1
_chemical_formula_structural   V9Si4H16C8(N2O9)2
_chemical_formula_sum   'V36 Si16 H64 C32 N16 O72'
_cell_volume   4757.88397364
_cell_formula_units_Z   4
loop_
 _symmetry_equiv_pos_site_id
 _symmetry_equiv_pos_as_xyz
  1  'x, y, z'
loop_
 _atom_site_label
 _atom_site_fract_x
 _atom_site_fract_y
 _atom_site_fract_z
 _atom_site_charge
 V 0.0042 0.82246 0.86407   1.350857
 V 0.17532 0.83103 0.000100000000003   1.357582
 V 0.24685 0.00457 0.99245   1.2092
 V 0.2139 0.2514 0.72758   1.192876
 V 0.9958 0.17754 0.86407   1.350757
 V 0.82468 0.16897 0.000100000000003   1.357581
 V 0.75315 0.99543 0.99245   1.209183
 V 0.7861 0.7486 0.72758   1.192781
 V 0.82246 0.9958 0.13593   1.350866
 V 0.83103 0.82468 0.9999   1.357576
 V 0.00457 0.75315 0.00755   1.209213
 V 0.2514 0.7861 0.27242   1.192861
 V 0.17754 0.0042 0.13593   1.350768
 V 0.16897 0.17532 0.9999   1.357572
 V 0.99543 0.24685 0.00755   1.20919
 V 0.7486 0.2139 0.27242   1.192766
 V 0.4958 0.32246 0.63593   1.350773
 V 0.32468 0.33103 0.4999   1.357441
 V 0.25315 0.50457 0.50755   1.209172
 V 0.2861 0.7514 0.77242   1.192648
 V 0.5042 0.67754 0.63593   1.350674
 V 0.67532 0.66897 0.4999   1.35744
 V 0.74685 0.49543 0.50755   1.209155
 V 0.7139 0.2486 0.77242   1.192554
 V 0.67754 0.4958 0.36407   1.350782
 V 0.66897 0.32468 0.5001   1.357436
 V 0.49543 0.25315 0.49245   1.209185
 V 0.2486 0.2861 0.22758   1.192633
 V 0.32246 0.5042 0.36407   1.350685
 V 0.33103 0.67532 0.5001   1.357432
 V 0.50457 0.74685 0.49245   1.209163
 V 0.7514 0.7139 0.22758   1.192538
 V 0.0 0.0 0.79698   1.208904
 V 0.0 0.0 0.20302   1.208905
 V 0.5 0.5 0.70302   1.208899
 V 0.5 0.5 0.29698   1.208899
 Si 0.177 0.093 0.8377   2.080041
 Si 0.1799 0.9146 0.8378   2.071984
 Si 0.823 0.907 0.8377   2.08004
 Si 0.8201 0.0854 0.8378   2.071978
 Si 0.093 0.823 0.1623   2.080042
 Si 0.9146 0.8201 0.1622   2.071981
 Si 0.907 0.177 0.1623   2.080041
 Si 0.0854 0.1799 0.1622   2.071981
 Si 0.323 0.593 0.6623   2.080028
 Si 0.3201 0.4146 0.6622   2.071985
 Si 0.677 0.407 0.6623   2.080027
 Si 0.6799 0.5854 0.6622   2.071979
 Si 0.407 0.323 0.3377   2.080028
 Si 0.5854 0.3201 0.3378   2.071981
 Si 0.593 0.677 0.3377   2.080027
 Si 0.4146 0.6799 0.3378   2.071982
 H 0.2888 0.073 0.7069   0.079744
 H 0.2435 0.0782 0.6312   0.064515
 H 0.4153 0.0626 0.6462   0.063071
 H 0.3697 0.0672 0.5708   0.047275
 H 0.4179 0.9357 0.6081   0.044059
 H 0.329 0.9399 0.5752   0.057934
 H 0.3692 0.9281 0.7133   0.078147
 H 0.2802 0.9352 0.6822   0.078091
 H 0.7112 0.927 0.7069   0.079744
 H 0.7565 0.9218 0.6312   0.064517
 H 0.5847 0.9374 0.6462   0.063019
 H 0.6303 0.9328 0.5708   0.047267
 H 0.5821 0.0643 0.6081   0.044029
 H 0.671 0.0601 0.5752   0.057932
 H 0.6308 0.0719 0.7133   0.078116
 H 0.7198 0.0648 0.6822   0.078089
 H 0.073 0.7112 0.2931   0.079745
 H 0.0782 0.7565 0.3688   0.064542
 H 0.0626 0.5847 0.3538   0.063071
 H 0.0672 0.6303 0.4292   0.047275
 H 0.9357 0.5821 0.3919   0.044059
 H 0.9399 0.671 0.4248   0.057938
 H 0.9281 0.6308 0.2867   0.078148
 H 0.9352 0.7198 0.3178   0.078091
 H 0.927 0.2888 0.2931   0.079746
 H 0.9218 0.2435 0.3688   0.064543
 H 0.9374 0.4153 0.3538   0.063019
 H 0.9328 0.3697 0.4292   0.047267
 H 0.0643 0.4179 0.3919   0.044029
 H 0.0601 0.329 0.4248   0.057936
 H 0.0719 0.3692 0.2867   0.078116
 H 0.0648 0.2802 0.3178   0.078089
 H 0.2112 0.573 0.7931   0.079744
 H 0.2565 0.5782 0.8688   0.064516
 H 0.0847 0.5626 0.8538   0.063071
 H 0.1303 0.5672 0.9292   0.047275
 H 0.0821 0.4357 0.8919   0.044059
 H 0.171 0.4399 0.9248   0.057934
 H 0.1308 0.4281 0.7867   0.078147
 H 0.2198 0.4352 0.8178   0.078091
 H 0.7888 0.427 0.7931   0.079744
 H 0.7435 0.4218 0.8688   0.064517
 H 0.9153 0.4374 0.8538   0.063019
 H 0.8697 0.4328 0.9292   0.047267
 H 0.9179 0.5643 0.8919   0.044029
 H 0.829 0.5601 0.9248   0.057932
 H 0.8692 0.5719 0.7867   0.078116
 H 0.7802 0.5648 0.8178   0.078089
 H 0.427 0.2112 0.2069   0.079745
 H 0.4218 0.2565 0.1312   0.064542
 H 0.4374 0.0847 0.1462   0.06307
 H 0.4328 0.1303 0.0708   0.047274
 H 0.5643 0.0821 0.1081   0.044059
 H 0.5601 0.171 0.0752   0.057938
 H 0.5719 0.1308 0.2133   0.078147
 H 0.5648 0.2198 0.1822   0.078091
 H 0.573 0.7888 0.2069   0.079745
 H 0.5782 0.7435 0.1312   0.064543
 H 0.5626 0.9153 0.1462   0.063019
 H 0.5672 0.8697 0.0708   0.047266
 H 0.4357 0.9179 0.1081   0.044029
 H 0.4399 0.829 0.0752   0.057937
 H 0.4281 0.8692 0.2133   0.078116
 H 0.4352 0.7802 0.1822   0.078089
 C 0.294 0.0929 0.6568   0.045553
 C 0.3649 0.0471 0.621   -0.127727
 C 0.362 0.9547 0.6177   -0.13709
 C 0.335 0.9129 0.672   0.105591
 C 0.706 0.9071 0.6568   0.045547
 C 0.6351 0.9529 0.621   -0.127707
 C 0.638 0.0453 0.6177   -0.137085
 C 0.665 0.0871 0.672   0.105598
 C 0.0929 0.706 0.3432   0.045545
 C 0.0471 0.6351 0.379   -0.127724
 C 0.9547 0.638 0.3823   -0.137092
 C 0.9129 0.665 0.328   0.10559
 C 0.9071 0.294 0.3432   0.045539
 C 0.9529 0.3649 0.379   -0.127705
 C 0.0453 0.362 0.3823   -0.137088
 C 0.0871 0.335 0.328   0.1056
 C 0.206 0.5929 0.8432   0.04555
 C 0.1351 0.5471 0.879   -0.127727
 C 0.138 0.4547 0.8823   -0.13709
 C 0.165 0.4129 0.828   0.105596
 C 0.794 0.4071 0.8432   0.045544
 C 0.8649 0.4529 0.879   -0.127708
 C 0.862 0.5453 0.8823   -0.137085
 C 0.835 0.5871 0.828   0.105603
 C 0.4071 0.206 0.1568   0.045542
 C 0.4529 0.1351 0.121   -0.127724
 C 0.5453 0.138 0.1177   -0.137092
 C 0.5871 0.165 0.172   0.105594
 C 0.5929 0.794 0.1568   0.045536
 C 0.5471 0.8649 0.121   -0.127705
 C 0.4547 0.862 0.1177   -0.137088
 C 0.4129 0.835 0.172   0.105605
 N 0.3 0.1847 0.6589   -0.486767
 N 0.3257 0.8261 0.6764   -0.543572
 N 0.7 0.8153 0.6589   -0.486761
 N 0.6743 0.1739 0.6764   -0.543568
 N 0.1847 0.7 0.3411   -0.486765
 N 0.8261 0.6743 0.3236   -0.543566
 N 0.8153 0.3 0.3411   -0.486759
 N 0.1739 0.3257 0.3236   -0.543572
 N 0.2 0.6847 0.8411   -0.486755
 N 0.1743 0.3261 0.8236   -0.543587
 N 0.8 0.3153 0.8411   -0.486749
 N 0.8257 0.6739 0.8236   -0.543583
 N 0.3153 0.2 0.1589   -0.486753
 N 0.6739 0.1743 0.1764   -0.543581
 N 0.6847 0.8 0.1589   -0.486747
 N 0.3261 0.8257 0.1764   -0.543587
 O 0.0848 0.7974 0.936   -0.967483
 O 0.2088 0.0025 0.8056   -1.071804
 O 0.2184 0.1667 0.7972   -0.977438
 O 0.2068 0.9142 0.9255   -1.08612
 O 0.2002 0.0915 0.924   -1.071357
 O 0.078 0.9138 0.8361   -1.033474
 O 0.0742 0.0887 0.8274   -1.094464
 O 0.9254 0.7928 0.9395   -0.965088
 O 0.2182 0.8374 0.7936   -0.968264
 O 0.9152 0.2026 0.936   -0.967474
 O 0.7912 0.9975 0.8056   -1.071803
 O 0.7816 0.8333 0.7972   -0.977431
 O 0.7932 0.0858 0.9255   -1.086118
 O 0.7998 0.9085 0.924   -1.071355
 O 0.922 0.0862 0.8361   -1.033465
 O 0.9258 0.9113 0.8274   -1.094471
 O 0.0746 0.2072 0.9395   -0.965076
 O 0.7818 0.1626 0.7936   -0.968255
 O 0.7974 0.9152 0.064   -0.967483
 O 0.0025 0.7912 0.1944   -1.071803
 O 0.1667 0.7816 0.2028   -0.977437
 O 0.9142 0.7932 0.0745   -1.086119
 O 0.0915 0.7998 0.076   -1.071358
 O 0.9138 0.922 0.1639   -1.033474
 O 0.0887 0.9258 0.1726   -1.094464
 O 0.7928 0.0746 0.0605   -0.965086
 O 0.8374 0.7818 0.2064   -0.968255
 O 0.2026 0.0848 0.064   -0.967474
 O 0.9975 0.2088 0.1944   -1.071803
 O 0.8333 0.2184 0.2028   -0.977429
 O 0.0858 0.2068 0.0745   -1.086118
 O 0.9085 0.2002 0.076   -1.071357
 O 0.0862 0.078 0.1639   -1.033466
 O 0.9113 0.0742 0.1726   -1.094472
 O 0.2072 0.9254 0.0605   -0.965079
 O 0.1626 0.2182 0.2064   -0.968262
 O 0.4152 0.2974 0.564   -0.967461
 O 0.2912 0.5025 0.6944   -1.071803
 O 0.2816 0.6667 0.7028   -0.977419
 O 0.2932 0.4142 0.5745   -1.086108
 O 0.2998 0.5915 0.576   -1.071343
 O 0.422 0.4138 0.6639   -1.033467
 O 0.4258 0.5887 0.6726   -1.094454
 O 0.5746 0.2928 0.5605   -0.965069
 O 0.2818 0.3374 0.7064   -0.968282
 O 0.5848 0.7026 0.564   -0.967452
 O 0.7088 0.4975 0.6944   -1.071803
 O 0.7184 0.3333 0.7028   -0.977412
 O 0.7068 0.5858 0.5745   -1.086105
 O 0.7002 0.4085 0.576   -1.071342
 O 0.578 0.5862 0.6639   -1.033458
 O 0.5742 0.4113 0.6726   -1.094462
 O 0.4254 0.7072 0.5605   -0.965058
 O 0.7182 0.6626 0.7064   -0.968273
 O 0.7026 0.4152 0.436   -0.96746
 O 0.4975 0.2912 0.3056   -1.071803
 O 0.3333 0.2816 0.2972   -0.977418
 O 0.5858 0.2932 0.4255   -1.086107
 O 0.4085 0.2998 0.424   -1.071345
 O 0.5862 0.422 0.3361   -1.033468
 O 0.4113 0.4258 0.3274   -1.094455
 O 0.7072 0.5746 0.4395   -0.965067
 O 0.6626 0.2818 0.2936   -0.968272
 O 0.2974 0.5848 0.436   -0.967452
 O 0.5025 0.7088 0.3056   -1.071803
 O 0.6667 0.7184 0.2972   -0.977411
 O 0.4142 0.7068 0.4255   -1.086106
 O 0.5915 0.7002 0.424   -1.071343
 O 0.4138 0.578 0.3361   -1.033459
 O 0.5887 0.5742 0.3274   -1.094462
 O 0.2928 0.4254 0.4395   -0.96506
 O 0.3374 0.7182 0.2936   -0.96828
