{'_ref': 'TBD', '_srcid': 'CAKYAQ_clean', 'submitters': [{'name': 'Dalar Nazarian Jeff Camp and David Sholl', 'email': 'dalar@gatech.edu jcamp6@gatech.edu'}], '_method': 'VASP DFT with PBE;DDEC'}
data_ZnH4(CN5)2
_symmetry_space_group_name_H-M   'P 1'
_cell_length_a   8.77959956
_cell_length_b   10.02969995
_cell_length_c   10.15606960
_cell_angle_alpha   119.58691410
_cell_angle_beta   115.60684362
_cell_angle_gamma   90.00450043
_symmetry_Int_Tables_number   1
_chemical_formula_structural   ZnH4(CN5)2
_chemical_formula_sum   'Zn2 H8 C4 N20'
_cell_volume   674.829917082
_cell_formula_units_Z   2
loop_
 _symmetry_equiv_pos_site_id
 _symmetry_equiv_pos_as_xyz
  1  'x, y, z'
loop_
 _atom_site_label
 _atom_site_fract_x
 _atom_site_fract_y
 _atom_site_fract_z
 _atom_site_charge
 Zn 0.97961 0.16314 0.27542   0.787732
 Zn 0.20419 0.88772 0.72458   0.787097
 H 0.849 0.8526 0.246   0.319255
 H 0.8753 0.7687 0.3408   0.369074
 H 0.0026 0.1839 0.878   0.362625
 H 0.0437 0.2756 0.0562   0.307393
 H 0.103 0.6066 0.754   0.319561
 H 0.0345 0.4279 0.6592   0.368693
 H 0.6246 0.3059 0.122   0.362518
 H 0.4875 0.2194 0.9438   0.306958
 C 0.0296 0.9809 0.456   0.606829
 C 0.096 0.0793 0.0038   0.618996
 C 0.0736 0.5249 0.544   0.607408
 C 0.5922 0.0755 0.9962   0.620335
 N 0.064 0.1098 0.4528   -0.379868
 N 0.2035 0.2172 0.6128   -0.101525
 N 0.8975 0.8495 0.3274   -0.71726
 N 0.1431 0.0075 0.6106   -0.414957
 N 0.2494 0.159 0.7056   -0.058397
 N 0.1356 0.9308 0.1064   -0.104518
 N 0.1572 0.8624 0.9744   -0.047238
 N 0.0954 0.0713 0.1312   -0.383487
 N 0.1334 0.9528 0.905   -0.417682
 N 0.0626 0.1998 0.9822   -0.747135
 N 0.1112 0.657 0.5472   -0.380669
 N 0.0907 0.6044 0.3872   -0.100719
 N 0.0701 0.5221 0.6726   -0.716054
 N 0.0325 0.3969 0.3894   -0.416141
 N 0.0438 0.4534 0.2944   -0.058939
 N 0.5292 0.8244 0.8936   -0.105452
 N 0.6828 0.888 0.0256   -0.045953
 N 0.4642 0.9401 0.8688   -0.382304
 N 0.7284 0.0478 0.095   -0.419219
 N 0.5804 0.2176 0.0178   -0.746958
