{'_ref': 'TBD', '_srcid': 'CAKYAQ_clean', 'submitters': [{'name': 'Dalar Nazarian Jeff Camp and David Sholl', 'email': 'dalar@gatech.edu jcamp6@gatech.edu'}], '_method': 'VASP DFT with PBE;DDEC'}
data_Zn5H6(C10O9)2
_symmetry_space_group_name_H-M   'P 1'
_cell_length_a   7.40870000
_cell_length_b   14.53470030
_cell_length_c   16.42360000
_cell_angle_alpha   90.00000000
_cell_angle_beta   90.00000000
_cell_angle_gamma   94.99300159
_symmetry_Int_Tables_number   1
_chemical_formula_structural   Zn5H6(C10O9)2
_chemical_formula_sum   'Zn10 H12 C40 O36'
_cell_volume   1761.83532504
_cell_formula_units_Z   2
loop_
 _symmetry_equiv_pos_site_id
 _symmetry_equiv_pos_as_xyz
  1  'x, y, z'
loop_
 _atom_site_label
 _atom_site_fract_x
 _atom_site_fract_y
 _atom_site_fract_z
 _atom_site_charge
 Zn 0.2216 0.68087 0.48192   1.145997
 Zn 0.1913 0.4791 0.37277   1.122505
 Zn 0.2784 0.81913 0.98192   1.145997
 Zn 0.3087 0.0209 0.87277   1.122505
 Zn 0.7784 0.31913 0.51808   1.145998
 Zn 0.8087 0.5209 0.62723   1.122506
 Zn 0.7216 0.18087 0.01808   1.145998
 Zn 0.6913 0.9791 0.12723   1.122506
 Zn 0.5 0.5 0.5   1.129625
 Zn 0.0 0.0 0.0   1.129625
 H 0.8362 0.482 0.476   0.4409
 H 0.4288 0.6742 0.2054   0.110058
 H 0.0486 0.7292 0.2244   0.115349
 H 0.6638 0.018 0.976   0.4409
 H 0.0712 0.8258 0.7054   0.110058
 H 0.4514 0.7708 0.7244   0.115349
 H 0.1638 0.518 0.524   0.4409
 H 0.5712 0.3258 0.7946   0.110058
 H 0.9514 0.2708 0.7756   0.115349
 H 0.3362 0.982 0.024   0.4409
 H 0.9288 0.1742 0.2946   0.110058
 H 0.5486 0.2292 0.2756   0.115349
 C 0.8307 0.6644 0.2803   -0.029907
 C 0.6431 0.6476 0.2747   -0.134303
 C 0.5535 0.6872 0.2105   -0.009588
 C 0.6439 0.7448 0.1545   -0.129917
 C 0.8327 0.7599 0.1597   -0.098193
 C 0.923 0.7195 0.2216   -0.058961
 C 0.9459 0.6259 0.3457   0.730389
 C 0.5344 0.592 0.3363   0.703664
 C 0.5281 0.7863 0.0921   0.708372
 C 0.9456 0.819 0.0993   0.753566
 C 0.6693 0.8356 0.7803   -0.029907
 C 0.8569 0.8524 0.7747   -0.134303
 C 0.9465 0.8128 0.7105   -0.009588
 C 0.8561 0.7552 0.6545   -0.129917
 C 0.6673 0.7401 0.6597   -0.098193
 C 0.577 0.7805 0.7216   -0.058961
 C 0.5541 0.8741 0.8457   0.730389
 C 0.9656 0.908 0.8363   0.703664
 C 0.9719 0.7137 0.5921   0.708372
 C 0.5544 0.681 0.5993   0.753566
 C 0.1693 0.3356 0.7197   -0.029907
 C 0.3569 0.3524 0.7253   -0.134303
 C 0.4465 0.3128 0.7895   -0.009588
 C 0.3561 0.2552 0.8455   -0.129917
 C 0.1673 0.2401 0.8403   -0.098193
 C 0.077 0.2805 0.7784   -0.058961
 C 0.0541 0.3741 0.6543   0.730389
 C 0.4656 0.408 0.6637   0.703664
 C 0.4719 0.2137 0.9079   0.708372
 C 0.0544 0.181 0.9007   0.753566
 C 0.3307 0.1644 0.2197   -0.029907
 C 0.1431 0.1476 0.2253   -0.134303
 C 0.0535 0.1872 0.2895   -0.009588
 C 0.1439 0.2448 0.3455   -0.129917
 C 0.3327 0.2599 0.3403   -0.098193
 C 0.423 0.2195 0.2784   -0.058961
 C 0.4459 0.1259 0.1543   0.730389
 C 0.0344 0.092 0.1637   0.703664
 C 0.0281 0.2863 0.4079   0.708372
 C 0.4456 0.319 0.4007   0.753566
 O 0.97 0.5426 0.341   -0.626747
 O 0.0174 0.6833 0.3947   -0.630075
 O 0.3778 0.5603 0.3138   -0.635056
 O 0.6038 0.5809 0.4041   -0.590603
 O 0.5237 0.8716 0.087   -0.640427
 O 0.4272 0.7329 0.0496   -0.550506
 O 0.0783 0.7831 0.0705   -0.609351
 O 0.9014 0.8973 0.0843   -0.644795
 O 0.754 0.4535 0.5174   -1.007184
 O 0.53 0.9574 0.841   -0.626747
 O 0.4826 0.8167 0.8947   -0.630075
 O 0.1222 0.9397 0.8138   -0.635056
 O 0.8962 0.9191 0.9041   -0.590603
 O 0.9763 0.6284 0.587   -0.640427
 O 0.0728 0.7671 0.5496   -0.550506
 O 0.4217 0.7169 0.5705   -0.609351
 O 0.5986 0.6027 0.5843   -0.644795
 O 0.746 0.0465 0.0174   -1.007184
 O 0.03 0.4574 0.659   -0.626747
 O 0.9826 0.3167 0.6053   -0.630075
 O 0.6222 0.4397 0.6862   -0.635056
 O 0.3962 0.4191 0.5959   -0.590603
 O 0.4763 0.1284 0.913   -0.640427
 O 0.5728 0.2671 0.9504   -0.550506
 O 0.9217 0.2169 0.9295   -0.609351
 O 0.0986 0.1027 0.9157   -0.644795
 O 0.246 0.5465 0.4826   -1.007184
 O 0.47 0.0426 0.159   -0.626747
 O 0.5174 0.1833 0.1053   -0.630075
 O 0.8778 0.0603 0.1862   -0.635056
 O 0.1038 0.0809 0.0959   -0.590603
 O 0.0237 0.3716 0.413   -0.640427
 O 0.9272 0.2329 0.4504   -0.550506
 O 0.5783 0.2831 0.4295   -0.609351
 O 0.4014 0.3973 0.4157   -0.644795
 O 0.254 0.9535 0.9826   -1.007184
