{'_ref': 'TBD', '_srcid': 'CAKYAQ_clean', 'submitters': [{'name': 'Dalar Nazarian Jeff Camp and David Sholl', 'email': 'dalar@gatech.edu jcamp6@gatech.edu'}], '_method': 'VASP DFT with PBE;DDEC'}
data_CdC2(N2O)2
_symmetry_space_group_name_H-M   'P 1'
_cell_length_a   8.82160017
_cell_length_b   8.82160032
_cell_length_c   10.07550000
_cell_angle_alpha   102.66999929
_cell_angle_beta   102.66999951
_cell_angle_gamma   119.93199991
_symmetry_Int_Tables_number   1
_chemical_formula_structural   CdC2(N2O)2
_chemical_formula_sum   'Cd4 C8 N16 O8'
_cell_volume   610.780079521
_cell_formula_units_Z   4
loop_
 _symmetry_equiv_pos_site_id
 _symmetry_equiv_pos_as_xyz
  1  'x, y, z'
loop_
 _atom_site_label
 _atom_site_fract_x
 _atom_site_fract_y
 _atom_site_fract_z
 _atom_site_charge
 Cd 0.47211 0.97211 0.94422   0.866308
 Cd 0.72211 0.72211 0.44422   0.866309
 Cd 0.24081 0.24081 0.48162   1.058664
 Cd 0.99081 0.49081 0.98162   1.058662
 C 0.628 0.8876 0.7062   0.166127
 C 0.4984 0.6872 0.6896   0.618009
 C 0.0782 0.8186 0.7062   0.169274
 C 0.1912 0.0024 0.6896   0.614714
 C 0.6376 0.878 0.2062   0.166127
 C 0.4372 0.7484 0.1896   0.61801
 C 0.5686 0.3282 0.2062   0.169274
 C 0.7524 0.4412 0.1896   0.614714
 N 0.6542 0.0334 0.805   -0.205929
 N 0.7749 0.1855 0.7826   -0.079317
 N 0.8171 0.1297 0.6728   -0.115017
 N 0.7252 0.9406 0.6216   -0.183484
 N 0.1508 0.7716 0.805   -0.204202
 N 0.0077 0.5971 0.7826   -0.081469
 N 0.8557 0.5431 0.6728   -0.113089
 N 0.8964 0.681 0.6216   -0.186985
 N 0.7834 0.9042 0.305   -0.205929
 N 0.9355 0.0249 0.2826   -0.079317
 N 0.8797 0.0671 0.1728   -0.115017
 N 0.6906 0.9752 0.1216   -0.183484
 N 0.5216 0.4008 0.305   -0.204202
 N 0.3471 0.2577 0.2826   -0.081469
 N 0.2931 0.1057 0.1728   -0.113089
 N 0.431 0.1464 0.1216   -0.186985
 O 0.4243 0.6631 0.7806   -0.563227
 O 0.4784 0.5626 0.5828   -0.599375
 O 0.3563 0.1175 0.7806   -0.560659
 O 0.1044 0.0202 0.5828   -0.600342
 O 0.4131 0.6743 0.2806   -0.563228
 O 0.3126 0.7284 0.0828   -0.599376
 O 0.8675 0.6063 0.2806   -0.56066
 O 0.7702 0.3544 0.0828   -0.600343
