{'_ref': 'TBD', '_srcid': 'CAKYAQ_clean', 'submitters': [{'name': 'Dalar Nazarian Jeff Camp and David Sholl', 'email': 'dalar@gatech.edu jcamp6@gatech.edu'}], '_method': 'VASP DFT with PBE;DDEC'}
data_CuH8C14N2O5
_symmetry_space_group_name_H-M   'P 1'
_cell_length_a   8.40479968
_cell_length_b   10.23790000
_cell_length_c   17.66710000
_cell_angle_alpha   90.00000000
_cell_angle_beta   103.03199951
_cell_angle_gamma   90.00000000
_symmetry_Int_Tables_number   1
_chemical_formula_structural   CuH8C14N2O5
_chemical_formula_sum   'Cu4 H32 C56 N8 O20'
_cell_volume   1481.05566397
_cell_formula_units_Z   4
loop_
 _symmetry_equiv_pos_site_id
 _symmetry_equiv_pos_as_xyz
  1  'x, y, z'
loop_
 _atom_site_label
 _atom_site_fract_x
 _atom_site_fract_y
 _atom_site_fract_z
 _atom_site_charge
 Cu 0.82629 0.55774 0.43204   0.853735
 Cu 0.32629 0.94226 0.93204   0.853735
 Cu 0.67371 0.05774 0.06796   0.853736
 Cu 0.17371 0.44226 0.56796   0.853736
 H 0.5369 0.7703 0.1696   0.110618
 H 0.6456 0.5892 0.9848   0.121048
 H 0.8142 0.4488 0.1998   0.127886
 H 0.8942 0.2711 0.8637   0.138611
 H 0.0634 0.109 0.8418   0.095617
 H 0.2355 0.0644 0.0645   0.099644
 H 0.0693 0.2258 0.0921   0.144913
 H 0.8649 0.3381 0.0961   0.286437
 H 0.0369 0.7297 0.6696   0.110618
 H 0.1456 0.9108 0.4848   0.121048
 H 0.3142 0.0512 0.6998   0.127886
 H 0.3942 0.2289 0.3637   0.138611
 H 0.5634 0.391 0.3418   0.095617
 H 0.7355 0.4356 0.5645   0.099644
 H 0.5693 0.2742 0.5921   0.144913
 H 0.3649 0.1619 0.5961   0.286437
 H 0.9631 0.2703 0.3304   0.110619
 H 0.8544 0.0892 0.5152   0.121048
 H 0.6858 0.9488 0.3002   0.127887
 H 0.6058 0.7711 0.6363   0.138612
 H 0.4366 0.609 0.6582   0.095617
 H 0.2645 0.5644 0.4355   0.099644
 H 0.4307 0.7258 0.4079   0.144913
 H 0.6351 0.8381 0.4039   0.286437
 H 0.4631 0.2297 0.8304   0.110619
 H 0.3544 0.4108 0.0152   0.121048
 H 0.1858 0.5512 0.8002   0.127887
 H 0.1058 0.7289 0.1363   0.138611
 H 0.9366 0.891 0.1582   0.095617
 H 0.7645 0.9356 0.9355   0.099644
 H 0.9307 0.7742 0.9079   0.144913
 H 0.1351 0.6619 0.9039   0.286437
 C 0.6775 0.6108 0.1976   -0.118758
 C 0.5887 0.7028 0.1493   -0.013216
 C 0.577 0.6941 0.0697   -0.124044
 C 0.6544 0.5944 0.0381   -0.123522
 C 0.7455 0.5027 0.0882   0.214076
 C 0.7548 0.5111 0.1667   -0.104388
 C 0.6947 0.6191 0.2839   0.660628
 C 0.4862 0.7929 0.0166   0.586633
 C 0.8592 0.3829 0.9912   0.494939
 C 0.9642 0.2683 0.9811   -0.008739
 C 0.9637 0.2303 0.9054   -0.12448
 C 0.065 0.1335 0.8926   0.163689
 C 0.166 0.1074 0.0237   0.176204
 C 0.0668 0.2041 0.0407   -0.144156
 C 0.1775 0.8892 0.6976   -0.118758
 C 0.0887 0.7972 0.6493   -0.013216
 C 0.077 0.8059 0.5697   -0.124044
 C 0.1544 0.9056 0.5381   -0.123522
 C 0.2455 0.9973 0.5882   0.214076
 C 0.2548 0.9889 0.6667   -0.104388
 C 0.1947 0.8809 0.7839   0.660628
 C 0.9862 0.7071 0.5166   0.586633
 C 0.3592 0.1171 0.4912   0.49494
 C 0.4642 0.2317 0.4811   -0.00874
 C 0.4637 0.2697 0.4054   -0.12448
 C 0.565 0.3665 0.3926   0.163689
 C 0.666 0.3926 0.5237   0.176204
 C 0.5668 0.2959 0.5407   -0.144155
 C 0.8225 0.1108 0.3024   -0.118758
 C 0.9113 0.2028 0.3507   -0.013216
 C 0.923 0.1941 0.4303   -0.124044
 C 0.8456 0.0944 0.4619   -0.123522
 C 0.7545 0.0027 0.4118   0.214075
 C 0.7452 0.0111 0.3333   -0.104388
 C 0.8053 0.1191 0.2161   0.660628
 C 0.0138 0.2929 0.4834   0.586633
 C 0.6408 0.8829 0.5088   0.494939
 C 0.5358 0.7683 0.5189   -0.00874
 C 0.5363 0.7303 0.5946   -0.124481
 C 0.435 0.6335 0.6074   0.163689
 C 0.334 0.6074 0.4763   0.176204
 C 0.4332 0.7041 0.4593   -0.144156
 C 0.3225 0.3892 0.8024   -0.118758
 C 0.4113 0.2972 0.8507   -0.013216
 C 0.423 0.3059 0.9303   -0.124044
 C 0.3456 0.4056 0.9619   -0.123522
 C 0.2545 0.4973 0.9118   0.214076
 C 0.2452 0.4889 0.8333   -0.104388
 C 0.3053 0.3809 0.7161   0.660628
 C 0.5138 0.2071 0.9834   0.586633
 C 0.1408 0.6171 0.0088   0.494939
 C 0.0358 0.7317 0.0189   -0.00874
 C 0.0363 0.7697 0.0946   -0.124481
 C 0.935 0.8665 0.1074   0.163689
 C 0.834 0.8926 0.9763   0.176204
 C 0.9332 0.7959 0.9593   -0.144155
 N 0.1671 0.0722 0.951   -0.395917
 N 0.8292 0.3984 0.0627   -0.385912
 N 0.6671 0.4278 0.451   -0.395917
 N 0.3292 0.1016 0.5627   -0.385912
 N 0.3329 0.5722 0.549   -0.395917
 N 0.6708 0.8984 0.4373   -0.385912
 N 0.8329 0.9278 0.049   -0.395917
 N 0.1708 0.6016 0.9373   -0.385912
 O 0.79312 0.5362 0.32362   -0.571505
 O 0.6189 0.7007 0.3125   -0.600324
 O 0.46968 0.784 0.94418   -0.502854
 O 0.42092 0.8906 0.04172   -0.577363
 O 0.81035 0.4573 0.93745   -0.479501
 O 0.29312 0.9638 0.82362   -0.571505
 O 0.1189 0.7993 0.8125   -0.600324
 O 0.96968 0.716 0.44418   -0.502854
 O 0.92092 0.6094 0.54172   -0.577363
 O 0.31035 0.0427 0.43745   -0.479501
 O 0.70688 0.0362 0.17638   -0.571505
 O 0.8811 0.2007 0.1875   -0.600324
 O 0.03032 0.284 0.55582   -0.502855
 O 0.07908 0.3906 0.45828   -0.577363
 O 0.68965 0.9573 0.56255   -0.479501
 O 0.20688 0.4638 0.67638   -0.571505
 O 0.3811 0.2993 0.6875   -0.600324
 O 0.53032 0.216 0.05582   -0.502854
 O 0.57908 0.1094 0.95828   -0.577363
 O 0.18965 0.5427 0.06255   -0.479501
