{'_ref': 'TBD', '_srcid': 'CAKYAQ_clean', 'submitters': [{'name': 'Dalar Nazarian Jeff Camp and David Sholl', 'email': 'dalar@gatech.edu jcamp6@gatech.edu'}], '_method': 'VASP DFT with PBE;DDEC'}
data_CuH6(C5N2)2
_symmetry_space_group_name_H-M   'P 1'
_cell_length_a   18.80700000
_cell_length_b   18.80700000
_cell_length_c   18.80700000
_cell_angle_alpha   90.00000000
_cell_angle_beta   90.00000000
_cell_angle_gamma   90.00000000
_symmetry_Int_Tables_number   1
_chemical_formula_structural   CuH6(C5N2)2
_chemical_formula_sum   'Cu12 H72 C120 N48'
_cell_volume   6652.09700394
_cell_formula_units_Z   12
loop_
 _symmetry_equiv_pos_site_id
 _symmetry_equiv_pos_as_xyz
  1  'x, y, z'
loop_
 _atom_site_label
 _atom_site_fract_x
 _atom_site_fract_y
 _atom_site_fract_z
 _atom_site_charge
 Cu 0.0 0.61329 0.5   0.49803
 Cu 0.0 0.38671 0.5   0.49803
 Cu 0.5 0.0 0.61329   0.49803
 Cu 0.5 0.0 0.38671   0.49803
 Cu 0.61329 0.5 0.0   0.49803
 Cu 0.38671 0.5 0.0   0.49803
 Cu 0.61329 0.0 0.5   0.498029
 Cu 0.38671 0.0 0.5   0.498029
 Cu 0.0 0.5 0.38671   0.498029
 Cu 0.0 0.5 0.61329   0.498029
 Cu 0.5 0.61329 0.0   0.498029
 Cu 0.5 0.38671 0.0   0.498029
 H 0.85021 0.7108 0.56012   0.095412
 H 0.14979 0.2892 0.56012   0.095412
 H 0.14979 0.7108 0.43988   0.095412
 H 0.85021 0.2892 0.43988   0.095412
 H 0.56012 0.85021 0.7108   0.095412
 H 0.56012 0.14979 0.2892   0.095412
 H 0.43988 0.14979 0.7108   0.095412
 H 0.43988 0.85021 0.2892   0.095412
 H 0.7108 0.56012 0.85021   0.095412
 H 0.2892 0.56012 0.14979   0.095412
 H 0.7108 0.43988 0.14979   0.095412
 H 0.2892 0.43988 0.85021   0.095412
 H 0.7108 0.85021 0.43988   0.095412
 H 0.2892 0.14979 0.43988   0.095412
 H 0.7108 0.14979 0.56012   0.095412
 H 0.2892 0.85021 0.56012   0.095412
 H 0.85021 0.56012 0.2892   0.095412
 H 0.14979 0.56012 0.7108   0.095412
 H 0.14979 0.43988 0.2892   0.095412
 H 0.85021 0.43988 0.7108   0.095412
 H 0.56012 0.7108 0.14979   0.095412
 H 0.56012 0.2892 0.85021   0.095412
 H 0.43988 0.7108 0.85021   0.095412
 H 0.43988 0.2892 0.14979   0.095412
 H 0.14979 0.2892 0.43988   0.095413
 H 0.85021 0.7108 0.43988   0.095413
 H 0.85021 0.2892 0.56012   0.095413
 H 0.14979 0.7108 0.56012   0.095413
 H 0.43988 0.14979 0.2892   0.095413
 H 0.43988 0.85021 0.7108   0.095413
 H 0.56012 0.85021 0.2892   0.095413
 H 0.56012 0.14979 0.7108   0.095413
 H 0.2892 0.43988 0.14979   0.095413
 H 0.7108 0.43988 0.85021   0.095413
 H 0.2892 0.56012 0.85021   0.095413
 H 0.7108 0.56012 0.14979   0.095413
 H 0.2892 0.14979 0.56012   0.095413
 H 0.7108 0.85021 0.56012   0.095413
 H 0.2892 0.85021 0.43988   0.095413
 H 0.7108 0.14979 0.43988   0.095413
 H 0.14979 0.43988 0.7108   0.095413
 H 0.85021 0.43988 0.2892   0.095413
 H 0.85021 0.56012 0.7108   0.095413
 H 0.14979 0.56012 0.2892   0.095413
 H 0.43988 0.2892 0.85021   0.095413
 H 0.43988 0.7108 0.14979   0.095413
 H 0.56012 0.2892 0.14979   0.095413
 H 0.56012 0.7108 0.85021   0.095413
 H 0.76895 0.76895 0.61711   0.109891
 H 0.23105 0.23105 0.61711   0.109891
 H 0.23105 0.76895 0.38289   0.109891
 H 0.76895 0.23105 0.38289   0.109891
 H 0.61711 0.76895 0.76895   0.109891
 H 0.61711 0.23105 0.23105   0.109891
 H 0.38289 0.23105 0.76895   0.109891
 H 0.38289 0.76895 0.23105   0.109891
 H 0.76895 0.61711 0.76895   0.109891
 H 0.23105 0.61711 0.23105   0.109891
 H 0.76895 0.38289 0.23105   0.109891
 H 0.23105 0.38289 0.76895   0.109891
 H 0.76895 0.76895 0.38289   0.109891
 H 0.23105 0.23105 0.38289   0.109891
 H 0.76895 0.23105 0.61711   0.109891
 H 0.23105 0.76895 0.61711   0.109891
 H 0.76895 0.61711 0.23105   0.109891
 H 0.23105 0.61711 0.76895   0.109891
 H 0.23105 0.38289 0.23105   0.109891
 H 0.76895 0.38289 0.76895   0.109891
 H 0.61711 0.76895 0.23105   0.109891
 H 0.61711 0.23105 0.76895   0.109891
 H 0.38289 0.76895 0.76895   0.109891
 H 0.38289 0.23105 0.23105   0.109891
 C 0.86124 0.66902 0.58629   0.013257
 C 0.13876 0.33098 0.58629   0.013257
 C 0.13876 0.66902 0.41371   0.013257
 C 0.86124 0.33098 0.41371   0.013257
 C 0.58629 0.86124 0.66902   0.013257
 C 0.58629 0.13876 0.33098   0.013257
 C 0.41371 0.13876 0.66902   0.013257
 C 0.41371 0.86124 0.33098   0.013257
 C 0.66902 0.58629 0.86124   0.013257
 C 0.33098 0.58629 0.13876   0.013257
 C 0.66902 0.41371 0.13876   0.013257
 C 0.33098 0.41371 0.86124   0.013257
 C 0.66902 0.86124 0.41371   0.013257
 C 0.33098 0.13876 0.41371   0.013257
 C 0.66902 0.13876 0.58629   0.013257
 C 0.33098 0.86124 0.58629   0.013257
 C 0.86124 0.58629 0.33098   0.013257
 C 0.13876 0.58629 0.66902   0.013257
 C 0.13876 0.41371 0.33098   0.013257
 C 0.86124 0.41371 0.66902   0.013257
 C 0.58629 0.66902 0.13876   0.013257
 C 0.58629 0.33098 0.86124   0.013257
 C 0.41371 0.66902 0.86124   0.013257
 C 0.41371 0.33098 0.13876   0.013257
 C 0.13876 0.33098 0.41371   0.013253
 C 0.86124 0.66902 0.41371   0.013253
 C 0.86124 0.33098 0.58629   0.013253
 C 0.13876 0.66902 0.58629   0.013253
 C 0.41371 0.13876 0.33098   0.013253
 C 0.41371 0.86124 0.66902   0.013253
 C 0.58629 0.86124 0.33098   0.013253
 C 0.58629 0.13876 0.66902   0.013253
 C 0.33098 0.41371 0.13876   0.013253
 C 0.66902 0.41371 0.86124   0.013253
 C 0.33098 0.58629 0.86124   0.013253
 C 0.66902 0.58629 0.13876   0.013253
 C 0.33098 0.13876 0.58629   0.013253
 C 0.66902 0.86124 0.58629   0.013253
 C 0.33098 0.86124 0.41371   0.013253
 C 0.66902 0.13876 0.41371   0.013253
 C 0.13876 0.41371 0.66902   0.013253
 C 0.86124 0.41371 0.33098   0.013253
 C 0.86124 0.58629 0.66902   0.013253
 C 0.13876 0.58629 0.33098   0.013253
 C 0.41371 0.33098 0.86124   0.013253
 C 0.41371 0.66902 0.13876   0.013253
 C 0.58629 0.33098 0.13876   0.013253
 C 0.58629 0.66902 0.86124   0.013253
 C 0.77667 0.68746 0.68746   0.124959
 C 0.83119 0.64891 0.64891   -0.109892
 C 0.22333 0.31254 0.68746   0.124959
 C 0.16881 0.35109 0.64891   -0.109892
 C 0.22333 0.68746 0.31254   0.124959
 C 0.16881 0.64891 0.35109   -0.109892
 C 0.77667 0.31254 0.31254   0.124959
 C 0.83119 0.35109 0.35109   -0.109892
 C 0.68746 0.77667 0.68746   0.124958
 C 0.64891 0.83119 0.64891   -0.109892
 C 0.68746 0.22333 0.31254   0.124958
 C 0.64891 0.16881 0.35109   -0.109892
 C 0.31254 0.22333 0.68746   0.124958
 C 0.35109 0.16881 0.64891   -0.109892
 C 0.31254 0.77667 0.31254   0.124958
 C 0.35109 0.83119 0.35109   -0.109892
 C 0.68746 0.68746 0.77667   0.124958
 C 0.64891 0.64891 0.83119   -0.109892
 C 0.31254 0.68746 0.22333   0.124958
 C 0.35109 0.64891 0.16881   -0.109892
 C 0.68746 0.31254 0.22333   0.124958
 C 0.64891 0.35109 0.16881   -0.109892
 C 0.31254 0.31254 0.77667   0.124958
 C 0.35109 0.35109 0.83119   -0.109892
 C 0.68746 0.77667 0.31254   0.124959
 C 0.64891 0.83119 0.35109   -0.109892
 C 0.31254 0.22333 0.31254   0.124959
 C 0.35109 0.16881 0.35109   -0.109892
 C 0.68746 0.22333 0.68746   0.124959
 C 0.64891 0.16881 0.64891   -0.109892
 C 0.31254 0.77667 0.68746   0.124959
 C 0.35109 0.83119 0.64891   -0.109892
 C 0.77667 0.68746 0.31254   0.124958
 C 0.83119 0.64891 0.35109   -0.109892
 C 0.22333 0.68746 0.68746   0.124958
 C 0.16881 0.64891 0.64891   -0.109892
 C 0.22333 0.31254 0.31254   0.124958
 C 0.16881 0.35109 0.35109   -0.109892
 C 0.77667 0.31254 0.68746   0.124958
 C 0.83119 0.35109 0.64891   -0.109892
 C 0.68746 0.68746 0.22333   0.124958
 C 0.64891 0.64891 0.16881   -0.109892
 C 0.68746 0.31254 0.77667   0.124958
 C 0.64891 0.35109 0.83119   -0.109892
 C 0.31254 0.68746 0.77667   0.124958
 C 0.35109 0.64891 0.83119   -0.109892
 C 0.31254 0.31254 0.22333   0.124958
 C 0.35109 0.35109 0.16881   -0.109892
 C 0.75086 0.75086 0.66067   -0.220553
 C 0.24914 0.24914 0.66067   -0.220553
 C 0.24914 0.75086 0.33933   -0.220553
 C 0.75086 0.24914 0.33933   -0.220553
 C 0.66067 0.75086 0.75086   -0.220553
 C 0.66067 0.24914 0.24914   -0.220553
 C 0.33933 0.24914 0.75086   -0.220553
 C 0.33933 0.75086 0.24914   -0.220553
 C 0.75086 0.66067 0.75086   -0.220553
 C 0.24914 0.66067 0.24914   -0.220553
 C 0.75086 0.33933 0.24914   -0.220553
 C 0.24914 0.33933 0.75086   -0.220553
 C 0.75086 0.75086 0.33933   -0.220553
 C 0.24914 0.24914 0.33933   -0.220553
 C 0.75086 0.24914 0.66067   -0.220553
 C 0.24914 0.75086 0.66067   -0.220553
 C 0.75086 0.66067 0.24914   -0.220553
 C 0.24914 0.66067 0.75086   -0.220553
 C 0.24914 0.33933 0.24914   -0.220553
 C 0.75086 0.33933 0.75086   -0.220553
 C 0.66067 0.75086 0.24914   -0.220553
 C 0.66067 0.24914 0.75086   -0.220553
 C 0.33933 0.75086 0.75086   -0.220553
 C 0.33933 0.24914 0.24914   -0.220553
 N 0.90987 0.61883 0.5677   -0.185394
 N 0.09013 0.38117 0.5677   -0.185394
 N 0.09013 0.61883 0.4323   -0.185394
 N 0.90987 0.38117 0.4323   -0.185394
 N 0.5677 0.90987 0.61883   -0.185394
 N 0.5677 0.09013 0.38117   -0.185394
 N 0.4323 0.09013 0.61883   -0.185394
 N 0.4323 0.90987 0.38117   -0.185394
 N 0.61883 0.5677 0.90987   -0.185394
 N 0.38117 0.5677 0.09013   -0.185394
 N 0.61883 0.4323 0.09013   -0.185394
 N 0.38117 0.4323 0.90987   -0.185394
 N 0.61883 0.90987 0.4323   -0.185393
 N 0.38117 0.09013 0.4323   -0.185393
 N 0.61883 0.09013 0.5677   -0.185393
 N 0.38117 0.90987 0.5677   -0.185393
 N 0.90987 0.5677 0.38117   -0.185393
 N 0.09013 0.5677 0.61883   -0.185393
 N 0.09013 0.4323 0.38117   -0.185393
 N 0.90987 0.4323 0.61883   -0.185393
 N 0.5677 0.61883 0.09013   -0.185393
 N 0.5677 0.38117 0.90987   -0.185393
 N 0.4323 0.61883 0.90987   -0.185393
 N 0.4323 0.38117 0.09013   -0.185393
 N 0.09013 0.38117 0.4323   -0.18536
 N 0.90987 0.61883 0.4323   -0.18536
 N 0.90987 0.38117 0.5677   -0.18536
 N 0.09013 0.61883 0.5677   -0.18536
 N 0.4323 0.09013 0.38117   -0.18536
 N 0.4323 0.90987 0.61883   -0.18536
 N 0.5677 0.90987 0.38117   -0.18536
 N 0.5677 0.09013 0.61883   -0.18536
 N 0.38117 0.4323 0.09013   -0.18536
 N 0.61883 0.4323 0.90987   -0.18536
 N 0.38117 0.5677 0.90987   -0.18536
 N 0.61883 0.5677 0.09013   -0.18536
 N 0.38117 0.09013 0.5677   -0.18536
 N 0.61883 0.90987 0.5677   -0.18536
 N 0.38117 0.90987 0.4323   -0.18536
 N 0.61883 0.09013 0.4323   -0.18536
 N 0.09013 0.4323 0.61883   -0.18536
 N 0.90987 0.4323 0.38117   -0.18536
 N 0.90987 0.5677 0.61883   -0.18536
 N 0.09013 0.5677 0.38117   -0.18536
 N 0.4323 0.38117 0.90987   -0.18536
 N 0.4323 0.61883 0.09013   -0.18536
 N 0.5677 0.38117 0.09013   -0.18536
 N 0.5677 0.61883 0.90987   -0.18536
