{'_ref': 'TBD', '_srcid': 'CAKYAQ_clean', 'submitters': [{'name': 'Dalar Nazarian Jeff Camp and David Sholl', 'email': 'dalar@gatech.edu jcamp6@gatech.edu'}], '_method': 'VASP DFT with PBE;DDEC'}
data_NiH6(C5N2)2
_symmetry_space_group_name_H-M   'P 1'
_cell_length_a   18.54900000
_cell_length_b   18.54900000
_cell_length_c   18.54900000
_cell_angle_alpha   90.00000000
_cell_angle_beta   90.00000000
_cell_angle_gamma   90.00000000
_symmetry_Int_Tables_number   1
_chemical_formula_structural   NiH6(C5N2)2
_chemical_formula_sum   'Ni12 H72 C120 N48'
_cell_volume   6382.06912315
_cell_formula_units_Z   12
loop_
 _symmetry_equiv_pos_site_id
 _symmetry_equiv_pos_as_xyz
  1  'x, y, z'
loop_
 _atom_site_label
 _atom_site_fract_x
 _atom_site_fract_y
 _atom_site_fract_z
 _atom_site_charge
 Ni 0.0 0.61885 0.5   0.259778
 Ni 0.0 0.38115 0.5   0.259776
 Ni 0.5 0.0 0.61885   0.259778
 Ni 0.5 0.0 0.38115   0.259776
 Ni 0.61885 0.5 0.0   0.259778
 Ni 0.38115 0.5 0.0   0.259776
 Ni 0.61885 0.0 0.5   0.259777
 Ni 0.38115 0.0 0.5   0.259775
 Ni 0.0 0.5 0.38115   0.259775
 Ni 0.0 0.5 0.61885   0.259777
 Ni 0.5 0.61885 0.0   0.259777
 Ni 0.5 0.38115 0.0   0.259775
 H 0.8545 0.71315 0.56038   0.104131
 H 0.1455 0.28685 0.56038   0.104126
 H 0.1455 0.71315 0.43962   0.104127
 H 0.8545 0.28685 0.43962   0.104132
 H 0.56038 0.8545 0.71315   0.104131
 H 0.56038 0.1455 0.28685   0.104126
 H 0.43962 0.1455 0.71315   0.104127
 H 0.43962 0.8545 0.28685   0.104132
 H 0.71315 0.56038 0.8545   0.104131
 H 0.28685 0.56038 0.1455   0.104126
 H 0.71315 0.43962 0.1455   0.104127
 H 0.28685 0.43962 0.8545   0.104132
 H 0.71315 0.8545 0.43962   0.104132
 H 0.28685 0.1455 0.43962   0.104127
 H 0.71315 0.1455 0.56038   0.104126
 H 0.28685 0.8545 0.56038   0.104132
 H 0.8545 0.56038 0.28685   0.104132
 H 0.1455 0.56038 0.71315   0.104126
 H 0.1455 0.43962 0.28685   0.104127
 H 0.8545 0.43962 0.71315   0.104132
 H 0.56038 0.71315 0.1455   0.104126
 H 0.56038 0.28685 0.8545   0.104132
 H 0.43962 0.71315 0.8545   0.104132
 H 0.43962 0.28685 0.1455   0.104127
 H 0.1455 0.28685 0.43962   0.104128
 H 0.8545 0.71315 0.43962   0.104133
 H 0.8545 0.28685 0.56038   0.104133
 H 0.1455 0.71315 0.56038   0.104128
 H 0.43962 0.1455 0.28685   0.104128
 H 0.43962 0.8545 0.71315   0.104133
 H 0.56038 0.8545 0.28685   0.104133
 H 0.56038 0.1455 0.71315   0.104128
 H 0.28685 0.43962 0.1455   0.104128
 H 0.71315 0.43962 0.8545   0.104133
 H 0.28685 0.56038 0.8545   0.104133
 H 0.71315 0.56038 0.1455   0.104128
 H 0.28685 0.1455 0.56038   0.104128
 H 0.71315 0.8545 0.56038   0.104133
 H 0.28685 0.8545 0.43962   0.104133
 H 0.71315 0.1455 0.43962   0.104128
 H 0.1455 0.43962 0.71315   0.104128
 H 0.8545 0.43962 0.28685   0.104133
 H 0.8545 0.56038 0.71315   0.104133
 H 0.1455 0.56038 0.28685   0.104128
 H 0.43962 0.28685 0.8545   0.104133
 H 0.43962 0.71315 0.1455   0.104128
 H 0.56038 0.28685 0.1455   0.104128
 H 0.56038 0.71315 0.8545   0.104133
 H 0.77211 0.77211 0.61817   0.109627
 H 0.22788 0.22788 0.61817   0.109635
 H 0.22788 0.77211 0.38183   0.109661
 H 0.77211 0.22788 0.38183   0.109661
 H 0.61817 0.77211 0.77211   0.109627
 H 0.61817 0.22788 0.22788   0.109635
 H 0.38183 0.22788 0.77211   0.109661
 H 0.38183 0.77211 0.22788   0.109661
 H 0.77211 0.61817 0.77211   0.109627
 H 0.22788 0.61817 0.22788   0.109635
 H 0.77211 0.38183 0.22788   0.109661
 H 0.22788 0.38183 0.77211   0.109661
 H 0.77211 0.77211 0.38183   0.109632
 H 0.22788 0.22788 0.38183   0.109639
 H 0.77211 0.22788 0.61817   0.109656
 H 0.22788 0.77211 0.61817   0.109656
 H 0.77211 0.61817 0.22788   0.109656
 H 0.22788 0.61817 0.77211   0.109656
 H 0.22788 0.38183 0.22788   0.109639
 H 0.77211 0.38183 0.77211   0.109632
 H 0.61817 0.77211 0.22788   0.109656
 H 0.61817 0.22788 0.77211   0.109656
 H 0.38183 0.77211 0.77211   0.109632
 H 0.38183 0.22788 0.22788   0.109639
 C 0.86569 0.6708 0.58691   -0.020367
 C 0.13431 0.3292 0.58691   -0.020363
 C 0.13431 0.6708 0.41309   -0.020365
 C 0.86569 0.3292 0.41309   -0.020366
 C 0.58691 0.86569 0.6708   -0.020367
 C 0.58691 0.13431 0.3292   -0.020363
 C 0.41309 0.13431 0.6708   -0.020365
 C 0.41309 0.86569 0.3292   -0.020366
 C 0.6708 0.58691 0.86569   -0.020367
 C 0.3292 0.58691 0.13431   -0.020363
 C 0.6708 0.41309 0.13431   -0.020365
 C 0.3292 0.41309 0.86569   -0.020366
 C 0.6708 0.86569 0.41309   -0.020368
 C 0.3292 0.13431 0.41309   -0.020363
 C 0.6708 0.13431 0.58691   -0.020364
 C 0.3292 0.86569 0.58691   -0.020365
 C 0.86569 0.58691 0.3292   -0.020366
 C 0.13431 0.58691 0.6708   -0.020364
 C 0.13431 0.41309 0.3292   -0.020363
 C 0.86569 0.41309 0.6708   -0.020368
 C 0.58691 0.6708 0.13431   -0.020364
 C 0.58691 0.3292 0.86569   -0.020366
 C 0.41309 0.6708 0.86569   -0.020368
 C 0.41309 0.3292 0.13431   -0.020363
 C 0.13431 0.3292 0.41309   -0.020371
 C 0.86569 0.6708 0.41309   -0.020375
 C 0.86569 0.3292 0.58691   -0.020373
 C 0.13431 0.6708 0.58691   -0.020371
 C 0.41309 0.13431 0.3292   -0.020371
 C 0.41309 0.86569 0.6708   -0.020375
 C 0.58691 0.86569 0.3292   -0.020373
 C 0.58691 0.13431 0.6708   -0.020371
 C 0.3292 0.41309 0.13431   -0.020371
 C 0.6708 0.41309 0.86569   -0.020375
 C 0.3292 0.58691 0.86569   -0.020373
 C 0.6708 0.58691 0.13431   -0.020371
 C 0.3292 0.13431 0.58691   -0.02037
 C 0.6708 0.86569 0.58691   -0.020375
 C 0.3292 0.86569 0.41309   -0.020373
 C 0.6708 0.13431 0.41309   -0.020372
 C 0.13431 0.41309 0.6708   -0.020372
 C 0.86569 0.41309 0.3292   -0.020373
 C 0.86569 0.58691 0.6708   -0.020375
 C 0.13431 0.58691 0.3292   -0.02037
 C 0.41309 0.3292 0.86569   -0.020373
 C 0.41309 0.6708 0.13431   -0.020372
 C 0.58691 0.3292 0.13431   -0.02037
 C 0.58691 0.6708 0.86569   -0.020375
 C 0.77994 0.68949 0.68949   0.124643
 C 0.83522 0.6504 0.6504   -0.100846
 C 0.22006 0.31051 0.68949   0.124684
 C 0.16478 0.3496 0.6504   -0.100858
 C 0.22006 0.68949 0.31051   0.124684
 C 0.16478 0.6504 0.3496   -0.100858
 C 0.77994 0.31051 0.31051   0.124687
 C 0.83522 0.3496 0.3496   -0.100858
 C 0.68949 0.77994 0.68949   0.124642
 C 0.6504 0.83522 0.6504   -0.100846
 C 0.68949 0.22006 0.31051   0.124683
 C 0.6504 0.16478 0.3496   -0.100858
 C 0.31051 0.22006 0.68949   0.124683
 C 0.3496 0.16478 0.6504   -0.100858
 C 0.31051 0.77994 0.31051   0.124687
 C 0.3496 0.83522 0.3496   -0.100858
 C 0.68949 0.68949 0.77994   0.124642
 C 0.6504 0.6504 0.83522   -0.100846
 C 0.31051 0.68949 0.22006   0.124683
 C 0.3496 0.6504 0.16478   -0.100857
 C 0.68949 0.31051 0.22006   0.124683
 C 0.6504 0.3496 0.16478   -0.100857
 C 0.31051 0.31051 0.77994   0.124686
 C 0.3496 0.3496 0.83522   -0.100858
 C 0.68949 0.77994 0.31051   0.124666
 C 0.6504 0.83522 0.3496   -0.100853
 C 0.31051 0.22006 0.31051   0.124686
 C 0.3496 0.16478 0.3496   -0.100861
 C 0.68949 0.22006 0.68949   0.12468
 C 0.6504 0.16478 0.6504   -0.100855
 C 0.31051 0.77994 0.68949   0.124666
 C 0.3496 0.83522 0.6504   -0.100853
 C 0.77994 0.68949 0.31051   0.124666
 C 0.83522 0.6504 0.3496   -0.100853
 C 0.22006 0.68949 0.68949   0.124679
 C 0.16478 0.6504 0.6504   -0.100855
 C 0.22006 0.31051 0.31051   0.124685
 C 0.16478 0.3496 0.3496   -0.100861
 C 0.77994 0.31051 0.68949   0.124666
 C 0.83522 0.3496 0.6504   -0.100853
 C 0.68949 0.68949 0.22006   0.124679
 C 0.6504 0.6504 0.16478   -0.100855
 C 0.68949 0.31051 0.77994   0.124665
 C 0.6504 0.3496 0.83522   -0.100853
 C 0.31051 0.68949 0.77994   0.124665
 C 0.3496 0.6504 0.83522   -0.100853
 C 0.31051 0.31051 0.22006   0.124684
 C 0.3496 0.3496 0.16478   -0.10086
 C 0.75378 0.75378 0.66233   -0.223947
 C 0.24622 0.24622 0.66233   -0.223987
 C 0.24622 0.75378 0.33767   -0.224007
 C 0.75378 0.24622 0.33767   -0.224007
 C 0.66233 0.75378 0.75378   -0.223947
 C 0.66233 0.24622 0.24622   -0.223987
 C 0.33767 0.24622 0.75378   -0.224007
 C 0.33767 0.75378 0.24622   -0.224007
 C 0.75378 0.66233 0.75378   -0.223947
 C 0.24622 0.66233 0.24622   -0.223987
 C 0.75378 0.33767 0.24622   -0.224007
 C 0.24622 0.33767 0.75378   -0.224007
 C 0.75378 0.75378 0.33767   -0.223954
 C 0.24622 0.24622 0.33767   -0.223984
 C 0.75378 0.24622 0.66233   -0.224006
 C 0.24622 0.75378 0.66233   -0.224006
 C 0.75378 0.66233 0.24622   -0.224006
 C 0.24622 0.66233 0.75378   -0.224006
 C 0.24622 0.33767 0.24622   -0.223984
 C 0.75378 0.33767 0.75378   -0.223953
 C 0.66233 0.75378 0.24622   -0.224006
 C 0.66233 0.24622 0.75378   -0.224006
 C 0.33767 0.75378 0.75378   -0.223954
 C 0.33767 0.24622 0.24622   -0.223984
 N 0.915 0.61991 0.56807   -0.103464
 N 0.085 0.38009 0.56807   -0.103462
 N 0.085 0.61991 0.43193   -0.103463
 N 0.915 0.38009 0.43193   -0.103463
 N 0.56807 0.915 0.61991   -0.103464
 N 0.56807 0.085 0.38009   -0.103462
 N 0.43193 0.085 0.61991   -0.103463
 N 0.43193 0.915 0.38009   -0.103463
 N 0.61991 0.56807 0.915   -0.103464
 N 0.38009 0.56807 0.085   -0.103462
 N 0.61991 0.43193 0.085   -0.103463
 N 0.38009 0.43193 0.915   -0.103463
 N 0.61991 0.915 0.43193   -0.103463
 N 0.38009 0.085 0.43193   -0.103462
 N 0.61991 0.085 0.56807   -0.103464
 N 0.38009 0.915 0.56807   -0.103462
 N 0.915 0.56807 0.38009   -0.103462
 N 0.085 0.56807 0.61991   -0.103464
 N 0.085 0.43193 0.38009   -0.103462
 N 0.915 0.43193 0.61991   -0.103463
 N 0.56807 0.61991 0.085   -0.103464
 N 0.56807 0.38009 0.915   -0.103462
 N 0.43193 0.61991 0.915   -0.103463
 N 0.43193 0.38009 0.085   -0.103462
 N 0.085 0.38009 0.43193   -0.103424
 N 0.915 0.61991 0.43193   -0.103425
 N 0.915 0.38009 0.56807   -0.103425
 N 0.085 0.61991 0.56807   -0.103426
 N 0.43193 0.085 0.38009   -0.103424
 N 0.43193 0.915 0.61991   -0.103425
 N 0.56807 0.915 0.38009   -0.103425
 N 0.56807 0.085 0.61991   -0.103426
 N 0.38009 0.43193 0.085   -0.103424
 N 0.61991 0.43193 0.915   -0.103425
 N 0.38009 0.56807 0.915   -0.103425
 N 0.61991 0.56807 0.085   -0.103426
 N 0.38009 0.085 0.56807   -0.103424
 N 0.61991 0.915 0.56807   -0.103426
 N 0.38009 0.915 0.43193   -0.103424
 N 0.61991 0.085 0.43193   -0.103425
 N 0.085 0.43193 0.61991   -0.103425
 N 0.915 0.43193 0.38009   -0.103424
 N 0.915 0.56807 0.61991   -0.103426
 N 0.085 0.56807 0.38009   -0.103424
 N 0.43193 0.38009 0.915   -0.103424
 N 0.43193 0.61991 0.085   -0.103425
 N 0.56807 0.38009 0.085   -0.103424
 N 0.56807 0.61991 0.915   -0.103425
