{'_ref': 'TBD', '_srcid': 'CAKYAQ_clean', 'submitters': [{'name': 'Dalar Nazarian Jeff Camp and David Sholl', 'email': 'dalar@gatech.edu jcamp6@gatech.edu'}], '_method': 'VASP DFT with PBE;DDEC'}
data_ZnH20C28(NO2)2
_symmetry_space_group_name_H-M   'P 1'
_cell_length_a   8.71500020
_cell_length_b   12.93400011
_cell_length_c   14.06050000
_cell_angle_alpha   62.61669933
_cell_angle_beta   83.68600086
_cell_angle_gamma   76.16589841
_symmetry_Int_Tables_number   1
_chemical_formula_structural   ZnH20C28(NO2)2
_chemical_formula_sum   'Zn2 H40 C56 N4 O8'
_cell_volume   1366.48539594
_cell_formula_units_Z   2
loop_
 _symmetry_equiv_pos_site_id
 _symmetry_equiv_pos_as_xyz
  1  'x, y, z'
loop_
 _atom_site_label
 _atom_site_fract_x
 _atom_site_fract_y
 _atom_site_fract_z
 _atom_site_charge
 Zn 0.36757 0.74115 0.82246   0.857986
 Zn 0.86757 0.56361 0.17754   0.857567
 H 0.093 0.0963 0.4684   0.090778
 H 0.8501 0.2004 0.3922   0.10113
 H 0.6438 0.0204 0.6648   0.086675
 H 0.8785 0.9199 0.7432   0.078271
 H 0.4757 0.1623 0.5158   0.10222
 H 0.6228 0.3164 0.344   0.11572
 H 0.2483 0.2614 0.459   0.132714
 H 0.0015 0.3733 0.3828   0.088761
 H 0.2087 0.566 0.1258   0.054088
 H 0.4524 0.4737 0.1958   0.143258
 H 0.2398 0.4354 0.7786   0.101499
 H 0.1497 0.2613 0.8404   0.104351
 H 0.145 0.2204 0.1388   0.115914
 H 0.2457 0.392 0.0774   0.084338
 H 0.051 0.082 0.1062   0.090879
 H 0.0826 0.0944 0.905   0.108913
 H 0.0571 0.9255 0.889   0.129931
 H 0.9675 0.7489 0.9544   0.094268
 H 0.8583 0.7591 0.2292   0.084808
 H 0.9355 0.9305 0.1682   0.123236
 H 0.593 0.5647 0.5316   0.090355
 H 0.3501 0.5926 0.6078   0.101479
 H 0.1438 0.6852 0.3352   0.08687
 H 0.3785 0.6631 0.2568   0.078944
 H 0.9757 0.6781 0.4842   0.10174
 H 0.1228 0.6604 0.656   0.116063
 H 0.7483 0.7204 0.541   0.132935
 H 0.5015 0.7561 0.6172   0.088021
 H 0.7087 0.6918 0.8742   0.053963
 H 0.9524 0.6695 0.8042   0.143331
 H 0.7398 0.214 0.2214   0.101419
 H 0.6497 0.1017 0.1596   0.104414
 H 0.645 0.3592 0.8612   0.116267
 H 0.7457 0.4694 0.9226   0.08411
 H 0.551 0.1882 0.8938   0.090733
 H 0.5826 0.9994 0.095   0.109534
 H 0.5571 0.8145 0.111   0.129107
 H 0.4675 0.7033 0.0456   0.094615
 H 0.3583 0.9883 0.7708   0.084619
 H 0.4355 0.0987 0.8318   0.123328
 C 0.165 0.9205 0.6632   0.666015
 C 0.0168 0.9931 0.6148   -0.147649
 C 0.0024 0.0802 0.5092   -0.033823
 C 0.8564 0.1433 0.4636   -0.130474
 C 0.7198 0.1233 0.5218   0.075299
 C 0.7349 0.0372 0.6248   -0.128925
 C 0.875 0.9756 0.6716   -0.04239
 C 0.5627 0.1902 0.4768   -0.076693
 C 0.5359 0.2886 0.3838   -0.151716
 C 0.3768 0.3563 0.3398   0.155156
 C 0.2426 0.3266 0.3916   -0.217287
 C 0.093 0.3934 0.3448   0.179228
 C 0.2157 0.5064 0.1962   0.179445
 C 0.3636 0.4506 0.2358   -0.206557
 C 0.3017 0.5421 0.8788   0.614739
 C 0.2437 0.4322 0.9246   -0.126288
 C 0.2198 0.3926 0.851   -0.044935
 C 0.1657 0.2884 0.8886   -0.130034
 C 0.1352 0.2238 0.9954   0.060753
 C 0.164 0.2631 0.0662   -0.128041
 C 0.2222 0.3678 0.0288   9e-06
 C 0.078 0.1164 0.0342   -0.061082
 C 0.0588 0.0597 0.9776   -0.160573
 C 0.0047 0.9501 0.0206   0.15153
 C 0.0164 0.8931 0.958   -0.205932
 C 0.966 0.7841 0.9994   0.172524
 C 0.9008 0.7906 0.1606   0.154391
 C 0.9449 0.894 0.1236   -0.203918
 C 0.665 0.5837 0.3368   0.663539
 C 0.5168 0.6079 0.3852   -0.147173
 C 0.5024 0.5894 0.4908   -0.033059
 C 0.3564 0.6069 0.5364   -0.130711
 C 0.2198 0.6451 0.4782   0.074315
 C 0.2349 0.662 0.3752   -0.128806
 C 0.375 0.6472 0.3284   -0.043721
 C 0.0627 0.667 0.5232   -0.07486
 C 0.0359 0.6724 0.6162   -0.153094
 C 0.8768 0.6961 0.6602   0.155612
 C 0.7426 0.7182 0.6084   -0.217883
 C 0.593 0.7382 0.6552   0.179678
 C 0.7157 0.7026 0.8038   0.17988
 C 0.8636 0.6864 0.7642   -0.206307
 C 0.8017 0.4209 0.1212   0.616292
 C 0.7437 0.3568 0.0754   -0.127188
 C 0.7198 0.2436 0.149   -0.045472
 C 0.6657 0.177 0.1114   -0.129048
 C 0.6352 0.2192 0.0046   0.059786
 C 0.664 0.3293 0.9338   -0.128712
 C 0.7222 0.3966 0.9712   0.000881
 C 0.578 0.1506 0.9658   -0.060199
 C 0.5588 0.0373 0.0224   -0.161591
 C 0.5047 0.9707 0.9794   0.151279
 C 0.5164 0.8511 0.042   -0.204711
 C 0.466 0.7835 0.000599999999999   0.171961
 C 0.4008 0.9512 0.8394   0.153937
 C 0.4449 0.0176 0.8764   -0.203197
 N 0.0814 0.4864 0.2452   -0.353263
 N 0.9154 0.7288 0.1022   -0.35323
 N 0.5814 0.7316 0.7548   -0.353682
 N 0.4154 0.831 0.8978   -0.352972
 O 0.1631 0.843 0.7602   -0.607591
 O 0.2886 0.9422 0.612   -0.621155
 O 0.3165 0.59 0.9428   -0.616558
 O 0.3307 0.5992 0.783   -0.550368
 O 0.6631 0.6032 0.2398   -0.606265
 O 0.7886 0.5542 0.388   -0.620003
 O 0.8165 0.5328 0.0572   -0.617304
 O 0.8307 0.3822 0.217   -0.550961
