{'_ref': 'TBD', '_srcid': 'CAKYAQ_clean', 'submitters': [{'name': 'Dalar Nazarian Jeff Camp and David Sholl', 'email': 'dalar@gatech.edu jcamp6@gatech.edu'}], '_method': 'VASP DFT with PBE;DDEC'}
data_ZnH20C28(NO2)2
_symmetry_space_group_name_H-M   'P 1'
_cell_length_a   8.40599974
_cell_length_b   13.50699963
_cell_length_c   14.13610000
_cell_angle_alpha   61.46149967
_cell_angle_beta   85.78919654
_cell_angle_gamma   81.15909688
_symmetry_Int_Tables_number   1
_chemical_formula_structural   ZnH20C28(NO2)2
_chemical_formula_sum   'Zn2 H40 C56 N4 O8'
_cell_volume   1393.24344935
_cell_formula_units_Z   2
loop_
 _symmetry_equiv_pos_site_id
 _symmetry_equiv_pos_as_xyz
  1  'x, y, z'
loop_
 _atom_site_label
 _atom_site_fract_x
 _atom_site_fract_y
 _atom_site_fract_z
 _atom_site_charge
 Zn 0.83362 0.9203 0.18274   0.841296
 Zn 0.33362 0.10304 0.81726   0.840652
 H 0.8399 0.0243 0.7406   0.078422
 H 0.079 0.9896 0.6658   0.094208
 H 0.8412 0.0421 0.4074   0.107474
 H 0.5999 0.0819 0.4806   0.098672
 H 0.2308 0.9662 0.5272   0.096326
 H 0.074 0.9997 0.3492   0.115204
 H 0.4574 0.8947 0.4822   0.137387
 H 0.6971 0.8662 0.4022   0.085983
 H 0.4867 0.9903 0.125   0.065241
 H 0.2402 0.0172 0.196   0.141402
 H 0.4658 0.1949 0.0752   0.076952
 H 0.5519 0.3072 0.1386   0.11969
 H 0.5327 0.567 0.8372   0.109499
 H 0.4467 0.4549 0.7762   0.096124
 H 0.6364 0.4846 0.1076   0.091116
 H 0.6063 0.6658 0.906   0.105571
 H 0.6405 0.8472 0.8892   0.126588
 H 0.7053 0.9597 0.9616   0.095658
 H 0.8402 0.6869 0.2302   0.077047
 H 0.7581 0.5706 0.1698   0.13349
 H 0.3399 0.7649 0.2594   0.078657
 H 0.579 0.6554 0.3342   0.094046
 H 0.3412 0.4495 0.5926   0.107908
 H 0.0999 0.5625 0.5194   0.097743
 H 0.7308 0.4934 0.4728   0.096913
 H 0.574 0.3489 0.6508   0.115102
 H 0.9574 0.3769 0.5178   0.137529
 H 0.1971 0.2684 0.5978   0.085617
 H 0.9867 0.1153 0.875   0.064642
 H 0.7402 0.2132 0.804   0.141194
 H 0.9658 0.2701 0.9248   0.077176
 H 0.0519 0.4458 0.8614   0.120023
 H 0.0327 0.4042 0.1628   0.10925
 H 0.9467 0.2311 0.2238   0.096169
 H 0.1364 0.5922 0.8924   0.090868
 H 0.1063 0.5718 0.094   0.105726
 H 0.1405 0.7364 0.1108   0.126091
 H 0.2053 0.9213 0.0384   0.096721
 H 0.3402 0.9171 0.7698   0.076714
 H 0.2581 0.7404 0.8302   0.133601
 C 0.5405 0.0821 0.666   0.639433
 C 0.6943 0.0585 0.6186   -0.142136
 C 0.8398 0.0292 0.6728   -0.038287
 C 0.9832 0.0072 0.6286   -0.141219
 C 0.9855 0.0113 0.527   0.072479
 C 0.8416 0.0391 0.4744   -0.127716
 C 0.6955 0.063 0.5184   -0.048122
 C 0.1405 0.9846 0.4846   -0.082587
 C 0.1643 0.9842 0.3908   -0.143676
 C 0.3234 0.9613 0.3468   0.149128
 C 0.4608 0.9142 0.4096   -0.215253
 C 0.6039 0.8971 0.3608   0.187977
 C 0.4798 0.9693 0.198   0.171737
 C 0.3318 0.9878 0.239   -0.193455
 C 0.3954 0.2404 0.8774   0.624529
 C 0.447 0.311 0.92   -0.144869
 C 0.4794 0.2697 0.027   0.001393
 C 0.5322 0.3367 0.0656   -0.136013
 C 0.555 0.4478 0.994   0.059821
 C 0.5204 0.4919 0.8852   -0.141289
 C 0.4684 0.4249 0.849   -0.029305
 C 0.6115 0.5202 0.0346   -0.067965
 C 0.6303 0.629 0.9792   -0.15866
 C 0.6861 0.6967 0.0236   0.148069
 C 0.6755 0.8134 0.96   -0.200728
 C 0.7183 0.881 0.0032   0.166703
 C 0.7947 0.7202 0.162   0.162441
 C 0.7477 0.6489 0.1256   -0.206716
 C 0.0405 0.7481 0.334   0.639387
 C 0.1943 0.6771 0.3814   -0.141503
 C 0.3398 0.702 0.3272   -0.03915
 C 0.4832 0.6358 0.3714   -0.140545
 C 0.4855 0.5383 0.473   0.073073
 C 0.3416 0.5135 0.5256   -0.128945
 C 0.1955 0.5814 0.4816   -0.047269
 C 0.6405 0.4692 0.5154   -0.083592
 C 0.6643 0.375 0.6092   -0.143176
 C 0.8234 0.3081 0.6532   0.148881
 C 0.9608 0.3238 0.5904   -0.215707
 C 0.1039 0.2579 0.6392   0.188507
 C 0.9798 0.1673 0.802   0.171701
 C 0.8318 0.2268 0.761   -0.192394
 C 0.8954 0.1178 0.1226   0.62349
 C 0.947 0.231 0.08   -0.144723
 C 0.9794 0.2967 0.973   0.001603
 C 0.0322 0.4023 0.9344   -0.137195
 C 0.055 0.4418 0.006   0.060643
 C 0.0204 0.3771 0.1148   -0.140622
 C 0.9684 0.2739 0.151   -0.029812
 C 0.1115 0.5548 0.9654   -0.067615
 C 0.1303 0.6082 0.0208   -0.159383
 C 0.1861 0.7203 0.9764   0.146716
 C 0.1755 0.7734 0.04   -0.198379
 C 0.2183 0.8842 0.9968   0.164797
 C 0.2947 0.8822 0.838   0.163027
 C 0.2477 0.7745 0.8744   -0.206529
 N 0.6142 0.9231 0.2564   -0.355954
 N 0.7773 0.8331 0.1036   -0.347988
 N 0.1142 0.1795 0.7436   -0.355612
 N 0.2773 0.9367 0.8964   -0.347617
 O 0.5465 0.0707 0.7624   -0.604695
 O 0.4106 0.1098 0.6168   -0.599128
 O 0.3792 0.1355 0.9418   -0.587514
 O 0.371 0.2814 0.7786   -0.563697
 O 0.0465 0.8331 0.2376   -0.604819
 O 0.9106 0.7266 0.3832   -0.599334
 O 0.8792 0.0773 0.0582   -0.587086
 O 0.871 0.06 0.2214   -0.563251
