{'_ref': 'TBD', '_srcid': 'CAKYAQ_clean', 'submitters': [{'name': 'Dalar Nazarian Jeff Camp and David Sholl', 'email': 'dalar@gatech.edu jcamp6@gatech.edu'}], '_method': 'VASP DFT with PBE;DDEC'}
data_MnH5C10N3O4
_symmetry_space_group_name_H-M   'P 1'
_cell_length_a   11.21399946
_cell_length_b   12.58500000
_cell_length_c   14.44700000
_cell_angle_alpha   90.00000000
_cell_angle_beta   110.12499848
_cell_angle_gamma   90.00000000
_symmetry_Int_Tables_number   1
_chemical_formula_structural   MnH5C10N3O4
_chemical_formula_sum   'Mn4 H20 C40 N12 O16'
_cell_volume   1914.39352781
_cell_formula_units_Z   4
loop_
 _symmetry_equiv_pos_site_id
 _symmetry_equiv_pos_as_xyz
  1  'x, y, z'
loop_
 _atom_site_label
 _atom_site_fract_x
 _atom_site_fract_y
 _atom_site_fract_z
 _atom_site_charge
 Mn 0.61287 0.5817 0.53287   1.040743
 Mn 0.38713 0.0817 0.96713   1.040743
 Mn 0.38713 0.4183 0.46713   1.040741
 Mn 0.61287 0.9183 0.03287   1.040741
 H 0.1323 0.6243 0.5649   0.112271
 H 0.1304 0.8528 0.7569   0.113976
 H 0.4626 0.7444 0.7457   0.121381
 H 0.926 0.5788 0.6081   0.122024
 H 0.9236 0.8902 0.612   0.120196
 H 0.8677 0.1243 0.9351   0.112271
 H 0.8696 0.3528 0.7431   0.113977
 H 0.5374 0.2444 0.7543   0.121381
 H 0.074 0.0788 0.8919   0.122024
 H 0.0764 0.3902 0.888   0.120196
 H 0.8677 0.3757 0.4351   0.112271
 H 0.8696 0.1472 0.2431   0.113976
 H 0.5374 0.2556 0.2543   0.121381
 H 0.074 0.4212 0.3919   0.122024
 H 0.0764 0.1098 0.388   0.120196
 H 0.1323 0.8757 0.0649   0.112271
 H 0.1304 0.6472 0.2569   0.113977
 H 0.4626 0.7556 0.2457   0.121381
 H 0.926 0.9212 0.1081   0.122025
 H 0.9236 0.6098 0.112   0.120196
 C 0.3804 0.6093 0.5961   0.693712
 C 0.3091 0.6755 0.6463   -0.085436
 C 0.1768 0.6712 0.6145   -0.131938
 C 0.1129 0.7372 0.6573   0.085091
 C 0.1758 0.8073 0.7305   -0.135396
 C 0.3083 0.8097 0.7652   -0.081978
 C 0.3743 0.7434 0.7227   -0.013528
 C 0.3777 0.8835 0.8463   0.698316
 C 0.8989 0.6491 0.6025   0.121852
 C 0.8967 0.8198 0.6042   0.139207
 C 0.6196 0.1093 0.9039   0.693711
 C 0.6909 0.1755 0.8537   -0.085435
 C 0.8232 0.1712 0.8855   -0.131938
 C 0.8871 0.2372 0.8427   0.085091
 C 0.8242 0.3073 0.7695   -0.135396
 C 0.6917 0.3097 0.7348   -0.081977
 C 0.6257 0.2434 0.7773   -0.013532
 C 0.6223 0.3835 0.6537   0.698315
 C 0.1011 0.1491 0.8975   0.121852
 C 0.1033 0.3198 0.8958   0.139206
 C 0.6196 0.3907 0.4039   0.693711
 C 0.6909 0.3245 0.3537   -0.085436
 C 0.8232 0.3288 0.3855   -0.131939
 C 0.8871 0.2628 0.3427   0.085092
 C 0.8242 0.1927 0.2695   -0.135397
 C 0.6917 0.1903 0.2348   -0.081979
 C 0.6257 0.2566 0.2773   -0.013529
 C 0.6223 0.1165 0.1537   0.698316
 C 0.1011 0.3509 0.3975   0.121852
 C 0.1033 0.1802 0.3958   0.139207
 C 0.3804 0.8907 0.0961   0.693711
 C 0.3091 0.8245 0.1463   -0.085436
 C 0.1768 0.8288 0.1145   -0.13194
 C 0.1129 0.7628 0.1573   0.085092
 C 0.1758 0.6927 0.2305   -0.135397
 C 0.3083 0.6903 0.2652   -0.081978
 C 0.3743 0.7566 0.2227   -0.013532
 C 0.3777 0.6165 0.3463   0.698315
 C 0.8989 0.8509 0.1025   0.121852
 C 0.8967 0.6802 0.1042   0.139206
 N 0.9755 0.7353 0.6227   0.000121
 N 0.7796 0.6808 0.57343   -0.204253
 N 0.7784 0.7903 0.574   -0.268338
 N 0.0245 0.2353 0.8773   0.000121
 N 0.2204 0.1808 0.92657   -0.204253
 N 0.2216 0.2903 0.926   -0.268337
 N 0.0245 0.2647 0.3773   0.000121
 N 0.2204 0.3192 0.42657   -0.204253
 N 0.2216 0.2097 0.426   -0.268338
 N 0.9755 0.7647 0.1227   0.000121
 N 0.7796 0.8192 0.07343   -0.204253
 N 0.7784 0.7097 0.074   -0.268338
 O 0.4872 0.8564 0.90038   -0.60237
 O 0.3226 0.9676 0.854   -0.62286
 O 0.4907 0.6396 0.60432   -0.601334
 O 0.3257 0.5296 0.5502   -0.621455
 O 0.5128 0.3564 0.59962   -0.60237
 O 0.6774 0.4676 0.646   -0.62286
 O 0.5093 0.1396 0.89568   -0.601334
 O 0.6743 0.0296 0.9498   -0.621455
 O 0.5128 0.1436 0.09962   -0.60237
 O 0.6774 0.0324 0.146   -0.62286
 O 0.5093 0.3604 0.39568   -0.601334
 O 0.6743 0.4704 0.4498   -0.621455
 O 0.4872 0.6436 0.40038   -0.60237
 O 0.3226 0.5324 0.354   -0.62286
 O 0.4907 0.8604 0.10432   -0.601334
 O 0.3257 0.9704 0.0502   -0.621455
