{'_ref': 'TBD', '_srcid': 'CAKYAQ_clean', 'submitters': [{'name': 'Dalar Nazarian Jeff Camp and David Sholl', 'email': 'dalar@gatech.edu jcamp6@gatech.edu'}], '_method': 'VASP DFT with PBE;DDEC'}
data_Ga2H5C5O8
_symmetry_space_group_name_H-M   'P 1'
_cell_length_a   7.23350037
_cell_length_b   7.62729981
_cell_length_c   11.24368748
_cell_angle_alpha   107.44379527
_cell_angle_beta   106.26704682
_cell_angle_gamma   97.03730011
_symmetry_Int_Tables_number   1
_chemical_formula_structural   Ga2H5C5O8
_chemical_formula_sum   'Ga4 H10 C10 O16'
_cell_volume   553.488671629
_cell_formula_units_Z   2
loop_
 _symmetry_equiv_pos_site_id
 _symmetry_equiv_pos_as_xyz
  1  'x, y, z'
loop_
 _atom_site_label
 _atom_site_fract_x
 _atom_site_fract_y
 _atom_site_fract_z
 _atom_site_charge
 Ga 0.70527 0.70527 0.41054   1.585651
 Ga 0.29473 0.29473 0.58946   1.585651
 Ga 0.5 0.0 0.5   1.608205
 Ga 0.0 0.5 0.5   1.606311
 H 0.34424 0.6605 0.35148   0.462686
 H 0.664 0.495 0.522   0.416327
 H 0.00724 0.69098 0.35148   0.461867
 H 0.858 0.027 0.522   0.41644
 H 0.65576 0.3395 0.64852   0.462686
 H 0.336 0.505 0.478   0.416325
 H 0.99276 0.30902 0.64852   0.461867
 H 0.142 0.973 0.478   0.416438
 H 0.549 0.298 0.0   0.106082
 H 0.451 0.702 0.0   0.106083
 C 0.67474 0.31844 0.25088   0.68429
 C 0.57437 0.15717 0.12334   -0.077068
 C 0.57614 0.93244 0.25088   0.684302
 C 0.54897 0.96617 0.12334   -0.078794
 C 0.32526 0.68156 0.74912   0.68429
 C 0.42563 0.84283 0.87666   -0.077068
 C 0.42386 0.06756 0.74912   0.684302
 C 0.45103 0.03383 0.87666   -0.078794
 C 0.5261 0.18 0.0   -0.034643
 C 0.4739 0.82 0.0   -0.034643
 O 0.44447 0.72583 0.41988   -0.980548
 O 0.76886 0.57921 0.53614   -0.936901
 O 0.5943 0.45784 0.26256   -0.606186
 O 0.83304 0.30271 0.33044   -0.593624
 O 0.97541 0.69405 0.41988   -0.980024
 O 0.76728 0.95693 0.53614   -0.937707
 O 0.66826 0.80472 0.26256   -0.605223
 O 0.4974 0.02773 0.33044   -0.594189
 O 0.55553 0.27417 0.58012   -0.980548
 O 0.23114 0.42079 0.46386   -0.936898
 O 0.4057 0.54216 0.73744   -0.606185
 O 0.16696 0.69729 0.66956   -0.593623
 O 0.02459 0.30595 0.58012   -0.980024
 O 0.23272 0.04307 0.46386   -0.937704
 O 0.33174 0.19528 0.73744   -0.605223
 O 0.5026 0.97227 0.66956   -0.594187
