{'_ref': 'TBD', '_srcid': 'CAKYAQ_clean', 'submitters': [{'name': 'Dalar Nazarian Jeff Camp and David Sholl', 'email': 'dalar@gatech.edu jcamp6@gatech.edu'}], '_method': 'VASP DFT with PBE;DDEC'}
data_MnH4C10(SO2)2
_symmetry_space_group_name_H-M   'P 1'
_cell_length_a   12.01780003
_cell_length_b   12.01779955
_cell_length_c   19.42500000
_cell_angle_alpha   77.41860105
_cell_angle_beta   77.41860156
_cell_angle_gamma   77.68940179
_symmetry_Int_Tables_number   1
_chemical_formula_structural   MnH4C10(SO2)2
_chemical_formula_sum   'Mn6 H24 C60 S12 O24'
_cell_volume   2631.61304919
_cell_formula_units_Z   6
loop_
 _symmetry_equiv_pos_site_id
 _symmetry_equiv_pos_as_xyz
  1  'x, y, z'
loop_
 _atom_site_label
 _atom_site_fract_x
 _atom_site_fract_y
 _atom_site_fract_z
 _atom_site_charge
 Mn 0.6757 0.01804 0.32219   0.965881
 Mn 0.98196 0.3243 0.17781   0.965871
 Mn 0.3243 0.98196 0.67781   0.965882
 Mn 0.01804 0.6757 0.82219   0.965872
 Mn 0.5 0.0 0.5   1.091864
 Mn 0.0 0.5 0.0   1.091864
 H 0.7895 0.3423 0.4055   0.123126
 H 0.6979 0.5143 0.4575   0.113271
 H 0.2985 0.7663 0.4375   0.097094
 H 0.204 0.6726 0.373   0.107844
 H 0.7517 0.7149 0.5895   0.135406
 H 0.8931 0.5357 0.6092   0.096882
 H 0.6577 0.2105 0.0945   0.123125
 H 0.4857 0.3021 0.0425   0.113271
 H 0.2337 0.7015 0.0625   0.097094
 H 0.3274 0.796 0.127   0.107847
 H 0.2851 0.2483 0.9105   0.135406
 H 0.4643 0.1069 0.8908   0.096882
 H 0.2105 0.6577 0.5945   0.12312
 H 0.3021 0.4857 0.5425   0.113271
 H 0.7015 0.2337 0.5625   0.097095
 H 0.796 0.3274 0.627   0.107828
 H 0.2483 0.2851 0.4105   0.135406
 H 0.1069 0.4643 0.3908   0.096871
 H 0.3423 0.7895 0.9055   0.12312
 H 0.5143 0.6979 0.9575   0.113271
 H 0.7663 0.2985 0.9375   0.097095
 H 0.6726 0.204 0.873   0.107831
 H 0.7149 0.7517 0.0895   0.135406
 H 0.5357 0.8931 0.1092   0.09687
 C 0.6594 0.179 0.3957   0.700037
 C 0.6333 0.2881 0.4267   -0.237075
 C 0.711 0.3582 0.4248   -0.042952
 C 0.6584 0.457 0.4552   -0.141366
 C 0.5406 0.4592 0.4815   -0.015435
 C 0.4622 0.9042 0.3658   0.755572
 C 0.3854 0.8412 0.3449   -0.22703
 C 0.3118 0.7756 0.3878   -0.014408
 C 0.2561 0.7221 0.3504   -0.154313
 C 0.2865 0.7503 0.2784   0.005468
 C 0.7393 0.8379 0.4495   0.731234
 C 0.8117 0.7295 0.4812   -0.222527
 C 0.8039 0.6831 0.553   -0.05286
 C 0.8869 0.5791 0.5638   -0.151512
 C 0.9554 0.5486 0.504   0.002534
 C 0.821 0.3406 0.1043   0.700036
 C 0.7119 0.3667 0.0733   -0.237075
 C 0.6418 0.289 0.0752   -0.042951
 C 0.543 0.3416 0.0448   -0.141367
 C 0.5408 0.4594 0.0185   -0.015435
 C 0.0958 0.5378 0.1342   0.75557
 C 0.1588 0.6146 0.1551   -0.22702
 C 0.2244 0.6882 0.1122   -0.014407
 C 0.2779 0.7439 0.1496   -0.15433
 C 0.2497 0.7135 0.2216   0.005567
 C 0.1621 0.2607 0.0505   0.731231
 C 0.2705 0.1883 0.0188   -0.222519
 C 0.3169 0.1961 0.947   -0.052862
 C 0.4209 0.1131 0.9362   -0.151512
 C 0.4514 0.0446 0.996   0.002539
 C 0.3406 0.821 0.6043   0.700039
 C 0.3667 0.7119 0.5733   -0.237077
 C 0.289 0.6418 0.5752   -0.042947
 C 0.3416 0.543 0.5448   -0.141413
 C 0.4594 0.5408 0.5185   -0.015432
 C 0.5378 0.0958 0.6342   0.755571
 C 0.6146 0.1588 0.6551   -0.22702
 C 0.6882 0.2244 0.6122   -0.014454
 C 0.7439 0.2779 0.6496   -0.154333
 C 0.7135 0.2497 0.7216   0.005469
 C 0.2607 0.1621 0.5505   0.73126
 C 0.1883 0.2705 0.5188   -0.222515
 C 0.1961 0.3169 0.447   -0.052853
 C 0.1131 0.4209 0.4362   -0.151525
 C 0.0446 0.4514 0.496   0.00264
 C 0.179 0.6594 0.8957   0.700039
 C 0.2881 0.6333 0.9267   -0.237077
 C 0.3582 0.711 0.9248   -0.042946
 C 0.457 0.6584 0.9552   -0.141414
 C 0.4592 0.5406 0.9815   -0.015432
 C 0.9042 0.4622 0.8658   0.755569
 C 0.8412 0.3854 0.8449   -0.22701
 C 0.7756 0.3118 0.8878   -0.014453
 C 0.7221 0.2561 0.8504   -0.154349
 C 0.7503 0.2865 0.7784   0.005568
 C 0.8379 0.7393 0.9495   0.731258
 C 0.7295 0.8117 0.9812   -0.222507
 C 0.6831 0.8039 0.053   -0.052855
 C 0.5791 0.8869 0.0638   -0.151525
 C 0.5486 0.9554 0.004   0.002645
 S 0.49809 0.33953 0.46582   0.178287
 S 0.38793 0.83895 0.25749   0.093472
 S 0.9174 0.64886 0.42996   0.097715
 S 0.66047 0.50191 0.03418   0.178286
 S 0.16105 0.61207 0.24251   0.093336
 S 0.35114 0.0826 0.07004   0.097586
 S 0.50191 0.66047 0.53418   0.178286
 S 0.61207 0.16105 0.74251   0.09347
 S 0.0826 0.35114 0.57004   0.097707
 S 0.33953 0.49809 0.96582   0.178285
 S 0.83895 0.38793 0.75749   0.093334
 S 0.64886 0.9174 0.92996   0.097579
 O 0.5772 0.1228 0.4082   -0.59566
 O 0.7532 0.151 0.358   -0.550469
 O 0.5392 0.9396 0.3174   -0.609426
 O 0.4438 0.9194 0.4287   -0.575366
 O 0.7611 0.8675 0.3843   -0.576776
 O 0.662 0.886 0.4939   -0.582481
 O 0.8772 0.4228 0.0918   -0.595659
 O 0.849 0.2468 0.142   -0.550469
 O 0.0604 0.4608 0.1826   -0.609425
 O 0.0806 0.5562 0.0713   -0.575367
 O 0.1325 0.2389 0.1157   -0.576774
 O 0.114 0.338 0.0061   -0.582481
 O 0.4228 0.8772 0.5918   -0.59566
 O 0.2468 0.849 0.642   -0.550469
 O 0.4608 0.0604 0.6826   -0.609427
 O 0.5562 0.0806 0.5713   -0.575376
 O 0.2389 0.1325 0.6157   -0.576778
 O 0.338 0.114 0.5061   -0.582494
 O 0.1228 0.5772 0.9082   -0.59566
 O 0.151 0.7532 0.858   -0.550469
 O 0.9396 0.5392 0.8174   -0.609425
 O 0.9194 0.4438 0.9287   -0.575378
 O 0.8675 0.7611 0.8843   -0.576777
 O 0.886 0.662 0.9939   -0.582494
