{'_ref': 'TBD', '_srcid': 'CAKYAQ_clean', 'submitters': [{'name': 'Dalar Nazarian Jeff Camp and David Sholl', 'email': 'dalar@gatech.edu jcamp6@gatech.edu'}], '_method': 'VASP DFT with PBE;DDEC'}
data_ZnH28C37(N2O3)2
_symmetry_space_group_name_H-M   'P 1'
_cell_length_a   11.68300000
_cell_length_b   15.57100000
_cell_length_c   26.71000000
_cell_angle_alpha   90.00000000
_cell_angle_beta   90.00000000
_cell_angle_gamma   90.00000000
_symmetry_Int_Tables_number   1
_chemical_formula_structural   ZnH28C37(N2O3)2
_chemical_formula_sum   'Zn4 H112 C148 N16 O24'
_cell_volume   4858.97617303
_cell_formula_units_Z   4
loop_
 _symmetry_equiv_pos_site_id
 _symmetry_equiv_pos_as_xyz
  1  'x, y, z'
loop_
 _atom_site_label
 _atom_site_fract_x
 _atom_site_fract_y
 _atom_site_fract_z
 _atom_site_charge
 Zn 0.52804 0.56649 0.70428   0.898556
 Zn 0.97196 0.43351 0.20428   0.898556
 Zn 0.47196 0.06649 0.79572   0.898556
 Zn 0.02804 0.93351 0.29572   0.898556
 H 0.5285 0.4729 0.5439   0.391273
 H 0.9715 0.5271 0.0439   0.391273
 H 0.4715 0.9729 0.9561   0.391273
 H 0.0285 0.0271 0.4561   0.391273
 H 0.2575 0.5268 0.306   0.386719
 H 0.2425 0.4732 0.806   0.386719
 H 0.7425 0.0268 0.194   0.386719
 H 0.7575 0.9732 0.694   0.386719
 H 0.2822 0.6618 0.5942   0.082846
 H 0.2178 0.3382 0.0942   0.082846
 H 0.7178 0.1618 0.9058   0.082846
 H 0.7822 0.8382 0.4058   0.082846
 H 0.1436 0.7457 0.5538   0.090798
 H 0.3564 0.2543 0.0538   0.090798
 H 0.8564 0.2457 0.9462   0.090798
 H 0.6436 0.7543 0.4462   0.090798
 H 0.0333 0.7784 0.4839   0.100203
 H 0.4667 0.2216 0.9839   0.100203
 H 0.9667 0.2784 0.0161   0.100203
 H 0.5333 0.7216 0.5161   0.100203
 H 0.0621 0.6985 0.4102   0.092796
 H 0.4379 0.3015 0.9102   0.092796
 H 0.9379 0.1985 0.0898   0.092796
 H 0.5621 0.8015 0.5898   0.092796
 H 0.1976 0.5948 0.4069   0.084187
 H 0.3024 0.4052 0.9069   0.084187
 H 0.8024 0.0948 0.0931   0.084187
 H 0.6976 0.9052 0.5931   0.084187
 H 0.0448 0.3092 0.3494   0.104828
 H 0.4552 0.6908 0.8494   0.104828
 H 0.9552 0.8092 0.1506   0.104828
 H 0.5448 0.1908 0.6506   0.104828
 H 0.0398 0.2197 0.4211   0.100227
 H 0.4602 0.7803 0.9211   0.100227
 H 0.9602 0.7197 0.0789   0.100227
 H 0.5398 0.2803 0.5789   0.100227
 H 0.1073 0.1762 0.4978   0.113693
 H 0.3927 0.8238 0.9978   0.113693
 H 0.8927 0.6762 0.0022   0.113693
 H 0.6073 0.3238 0.5022   0.113693
 H 0.2814 0.2417 0.5245   0.089349
 H 0.2186 0.7583 0.0245   0.089349
 H 0.7186 0.7417 0.9755   0.089349
 H 0.7814 0.2583 0.4755   0.089349
 H 0.3257 0.3765 0.4976   0.10035
 H 0.1743 0.6235 0.9976   0.10035
 H 0.6743 0.8765 0.0024   0.10035
 H 0.8257 0.1235 0.5024   0.10035
 H 0.3968 0.5321 0.4027   0.083747
 H 0.1032 0.4679 0.9027   0.083747
 H 0.6032 0.0321 0.0973   0.083747
 H 0.8968 0.9679 0.5973   0.083747
 H 0.4352 0.4547 0.4357   0.104687
 H 0.0648 0.5453 0.9357   0.104687
 H 0.5648 0.9547 0.0643   0.104687
 H 0.9352 0.0453 0.5643   0.104687
 H 0.5438 0.4226 0.7828   0.078516
 H 0.9562 0.5774 0.2828   0.078516
 H 0.4562 0.9226 0.7172   0.078516
 H 0.0438 0.0774 0.2172   0.078516
 H 0.6882 0.4169 0.6537   0.111073
 H 0.8118 0.5831 0.1537   0.111073
 H 0.3118 0.9169 0.8463   0.111073
 H 0.1882 0.0831 0.3463   0.111073
 H 0.7568 0.2956 0.702   0.141479
 H 0.7432 0.7044 0.202   0.141479
 H 0.2432 0.7956 0.798   0.141479
 H 0.2568 0.2044 0.298   0.141479
 H 0.6322 0.2144 0.7814   0.105485
 H 0.8678 0.7856 0.2814   0.105485
 H 0.3678 0.7144 0.7186   0.105485
 H 0.1322 0.2856 0.2186   0.105485
 H 0.6109 0.2851 0.8223   0.113525
 H 0.8891 0.7149 0.3223   0.113525
 H 0.3891 0.7851 0.6777   0.113525
 H 0.1109 0.2149 0.1777   0.113525
 H 0.7991 0.1365 0.8015   0.107301
 H 0.7009 0.8635 0.3015   0.107301
 H 0.2009 0.6365 0.6985   0.107301
 H 0.2991 0.3635 0.1985   0.107301
 H 0.9748 0.1213 0.8381   0.11164
 H 0.5252 0.8787 0.3381   0.11164
 H 0.0252 0.6213 0.6619   0.11164
 H 0.4748 0.3787 0.1619   0.11164
 H 0.9862 0.373 0.8593   0.106024
 H 0.5138 0.627 0.3593   0.106024
 H 0.0138 0.873 0.6407   0.106024
 H 0.4862 0.127 0.1407   0.106024
 H 0.8072 0.3856 0.8269   0.098939
 H 0.6928 0.6144 0.3269   0.098939
 H 0.1928 0.8856 0.6731   0.098939
 H 0.3072 0.1144 0.1731   0.098939
 H 0.1301 0.2874 0.8945   0.097789
 H 0.3699 0.7126 0.3945   0.097789
 H 0.8699 0.7874 0.6055   0.097789
 H 0.6301 0.2126 0.1055   0.097789
 H 0.1061 0.1889 0.9001   0.112881
 H 0.3939 0.8111 0.4001   0.112881
 H 0.8939 0.6889 0.5999   0.112881
 H 0.6061 0.3111 0.0999   0.112881
 H 0.2054 0.3193 0.7937   0.154894
 H 0.2946 0.6807 0.2937   0.154894
 H 0.7946 0.8193 0.7063   0.154894
 H 0.7054 0.1807 0.2063   0.154894
 H 0.3678 0.2494 0.7562   0.114186
 H 0.1322 0.7506 0.2562   0.114186
 H 0.6322 0.7494 0.7438   0.114186
 H 0.8678 0.2506 0.2438   0.114186
 H 0.2678 0.1112 0.8688   0.088877
 H 0.2322 0.8888 0.3688   0.088877
 H 0.7322 0.6112 0.6312   0.088877
 H 0.7678 0.3888 0.1312   0.088877
 C 0.4506 0.5577 0.6105   0.69226
 C 0.0494 0.4423 0.1105   0.69226
 C 0.5494 0.0577 0.8895   0.69226
 C 0.9506 0.9423 0.3895   0.69226
 C 0.2985 0.6329 0.5646   -0.026108
 C 0.2015 0.3671 0.0646   -0.026108
 C 0.7015 0.1329 0.9354   -0.026108
 C 0.7985 0.8671 0.4354   -0.026108
 C 0.3847 0.5762 0.5639   -0.267295
 C 0.1153 0.4238 0.0639   -0.267295
 C 0.6153 0.0762 0.9361   -0.267295
 C 0.8847 0.9238 0.4361   -0.267295
 C 0.4075 0.5329 0.5188   0.303639
 C 0.0925 0.4671 0.0188   0.303639
 C 0.5925 0.0329 0.9812   0.303639
 C 0.9075 0.9671 0.4812   0.303639
 C 0.348 0.5443 0.4749   -0.11764
 C 0.152 0.4557 0.9749   -0.11764
 C 0.652 0.0443 0.0251   -0.11764
 C 0.848 0.9557 0.5251   -0.11764
 C 0.2572 0.6025 0.4757   0.043725
 C 0.2428 0.3975 0.9757   0.043725
 C 0.7428 0.1025 0.0243   0.043725
 C 0.7572 0.8975 0.5243   0.043725
 C 0.2332 0.65 0.5227   0.006807
 C 0.2668 0.35 0.0227   0.006807
 C 0.7668 0.15 0.9773   0.006807
 C 0.7332 0.85 0.4773   0.006807
 C 0.1536 0.7148 0.5243   -0.11042
 C 0.3464 0.2852 0.0243   -0.11042
 C 0.8464 0.2148 0.9757   -0.11042
 C 0.6536 0.7852 0.4757   -0.11042
 C 0.0877 0.7349 0.4827   -0.124206
 C 0.4123 0.2651 0.9827   -0.124206
 C 0.9123 0.2349 0.0173   -0.124206
 C 0.5877 0.7651 0.5173   -0.124206
 C 0.1061 0.6872 0.4385   -0.078355
 C 0.3939 0.3128 0.9385   -0.078355
 C 0.8939 0.1872 0.0615   -0.078355
 C 0.6061 0.8128 0.5615   -0.078355
 C 0.1883 0.6245 0.4368   -0.137747
 C 0.3117 0.3755 0.9368   -0.137747
 C 0.8117 0.1245 0.0632   -0.137747
 C 0.6883 0.8755 0.5632   -0.137747
 C 0.1076 0.4289 0.287   0.669036
 C 0.3924 0.5711 0.787   0.669036
 C 0.8924 0.9289 0.213   0.669036
 C 0.6076 0.0711 0.713   0.669036
 C 0.1047 0.3402 0.3636   -0.053083
 C 0.3953 0.6598 0.8636   -0.053083
 C 0.8953 0.8402 0.1364   -0.053083
 C 0.6047 0.1598 0.6364   -0.053083
 C 0.1499 0.4098 0.3397   -0.287515
 C 0.3501 0.5902 0.8397   -0.287515
 C 0.8501 0.9098 0.1603   -0.287515
 C 0.6499 0.0902 0.6603   -0.287515
 C 0.2416 0.4531 0.3587   0.308697
 C 0.2584 0.5469 0.8587   0.308697
 C 0.7584 0.9531 0.1413   0.308697
 C 0.7416 0.0469 0.6413   0.308697
 C 0.2809 0.4397 0.4065   -0.093597
 C 0.2191 0.5603 0.9065   -0.093597
 C 0.7191 0.9397 0.0935   -0.093597
 C 0.7809 0.0603 0.5935   -0.093597
 C 0.2375 0.368 0.4314   0.041499
 C 0.2625 0.632 0.9314   0.041499
 C 0.7625 0.868 0.0686   0.041499
 C 0.7375 0.132 0.5686   0.041499
 C 0.1504 0.3167 0.4096   0.013905
 C 0.3496 0.6833 0.9096   0.013905
 C 0.8496 0.8167 0.0904   0.013905
 C 0.6504 0.1833 0.5904   0.013905
 C 0.1019 0.248 0.4353   -0.112324
 C 0.3981 0.752 0.9353   -0.112324
 C 0.8981 0.748 0.0647   -0.112324
 C 0.6019 0.252 0.5647   -0.112324
 C 0.1414 0.2208 0.4801   -0.11801
 C 0.3586 0.7792 0.9801   -0.11801
 C 0.8586 0.7208 0.0199   -0.11801
 C 0.6414 0.2792 0.5199   -0.11801
 C 0.2401 0.2659 0.4983   -0.062664
 C 0.2599 0.7341 0.9983   -0.062664
 C 0.7599 0.7659 0.0017   -0.062664
 C 0.7401 0.2341 0.5017   -0.062664
 C 0.2761 0.3418 0.4794   -0.140128
 C 0.2239 0.6582 0.9794   -0.140128
 C 0.7239 0.8418 0.0206   -0.140128
 C 0.7761 0.1582 0.5206   -0.140128
 C 0.3712 0.4924 0.4284   -0.091348
 C 0.1288 0.5076 0.9284   -0.091348
 C 0.6288 0.9924 0.0716   -0.091348
 C 0.8712 0.0076 0.5716   -0.091348
 C 0.588 0.4064 0.7554   0.133247
 C 0.912 0.5936 0.2554   0.133247
 C 0.412 0.9064 0.7446   0.133247
 C 0.088 0.0936 0.2446   0.133247
 C 0.6668 0.4045 0.6865   0.010377
 C 0.8332 0.5955 0.1865   0.010377
 C 0.3332 0.9045 0.8135   0.010377
 C 0.1668 0.0955 0.3135   0.010377
 C 0.7025 0.3352 0.7127   -0.156428
 C 0.7975 0.6648 0.2127   -0.156428
 C 0.2975 0.8352 0.7873   -0.156428
 C 0.2025 0.1648 0.2873   -0.156428
 C 0.6585 0.2694 0.794   -0.0624
 C 0.8415 0.7306 0.294   -0.0624
 C 0.3415 0.7694 0.706   -0.0624
 C 0.1585 0.2306 0.206   -0.0624
 C 0.778 0.2621 0.8102   0.031035
 C 0.722 0.7379 0.3102   0.031035
 C 0.222 0.7621 0.6898   0.031035
 C 0.278 0.2379 0.1898   0.031035
 C 0.835 0.1853 0.8139   -0.091598
 C 0.665 0.8147 0.3139   -0.091598
 C 0.165 0.6853 0.6861   -0.091598
 C 0.335 0.3147 0.1861   -0.091598
 C 0.9432 0.1759 0.835   -0.128459
 C 0.5568 0.8241 0.335   -0.128459
 C 0.0568 0.6759 0.665   -0.128459
 C 0.4432 0.3241 0.165   -0.128459
 C 0.0038 0.2462 0.8512   0.036947
 C 0.4962 0.7538 0.3512   0.036947
 C 0.9962 0.7462 0.6488   0.036947
 C 0.5038 0.2538 0.1488   0.036947
 C 0.949 0.324 0.8479   -0.114416
 C 0.551 0.676 0.3479   -0.114416
 C 0.051 0.824 0.6521   -0.114416
 C 0.449 0.176 0.1521   -0.114416
 C 0.8404 0.3313 0.8282   -0.122281
 C 0.6596 0.6687 0.3282   -0.122281
 C 0.1596 0.8313 0.6718   -0.122281
 C 0.3404 0.1687 0.1718   -0.122281
 C 0.1128 0.2353 0.876   -0.07775
 C 0.3872 0.7647 0.376   -0.07775
 C 0.8872 0.7353 0.624   -0.07775
 C 0.6128 0.2647 0.124   -0.07775
 C 0.2381 0.2678 0.804   -0.173565
 C 0.2619 0.7322 0.304   -0.173565
 C 0.7619 0.7678 0.696   -0.173565
 C 0.7381 0.2322 0.196   -0.173565
 C 0.3261 0.2283 0.7831   0.029748
 C 0.1739 0.7717 0.2831   0.029748
 C 0.6739 0.7283 0.7169   0.029748
 C 0.8261 0.2717 0.2169   0.029748
 C 0.272 0.1532 0.8441   0.159768
 C 0.228 0.8468 0.3441   0.159768
 C 0.728 0.6532 0.6559   0.159768
 C 0.772 0.3468 0.1559   0.159768
 N 0.5937 0.4545 0.7154   -0.354393
 N 0.9063 0.5455 0.2154   -0.354393
 N 0.4063 0.9545 0.7846   -0.354393
 N 0.0937 0.0455 0.2846   -0.354393
 N 0.6479 0.3328 0.7557   0.079173
 N 0.8521 0.6672 0.2557   0.079173
 N 0.3521 0.8328 0.7443   0.079173
 N 0.1479 0.1672 0.2443   0.079173
 N 0.3481 0.1488 0.8078   -0.399532
 N 0.1519 0.8512 0.3078   -0.399532
 N 0.6519 0.6488 0.6922   -0.399532
 N 0.8481 0.3512 0.1922   -0.399532
 N 0.2041 0.2175 0.8442   0.081111
 N 0.2959 0.7825 0.3442   0.081111
 N 0.7959 0.7175 0.6558   0.081111
 N 0.7041 0.2825 0.1558   0.081111
 O 0.4194 0.5911 0.65102   -0.604346
 O 0.0806 0.4089 0.15102   -0.604346
 O 0.5806 0.0911 0.84898   -0.604346
 O 0.9194 0.9089 0.34898   -0.604346
 O 0.5425 0.5181 0.60624   -0.612822
 O 0.9575 0.4819 0.10624   -0.612822
 O 0.4575 0.0181 0.89376   -0.612822
 O 0.0425 0.9819 0.39376   -0.612822
 O 0.4965 0.4751 0.51659   -0.523432
 O 0.0035 0.5249 0.01659   -0.523432
 O 0.5035 0.9751 0.98341   -0.523432
 O 0.9965 0.0249 0.48341   -0.523432
 O 0.0241 0.3877 0.26801   -0.615802
 O 0.4759 0.6123 0.76801   -0.615802
 O 0.9759 0.8877 0.23199   -0.615802
 O 0.5241 0.1123 0.73199   -0.615802
 O 0.152 0.4904 0.26333   -0.612185
 O 0.348 0.5096 0.76333   -0.612185
 O 0.848 0.9904 0.23667   -0.612185
 O 0.652 0.0096 0.73667   -0.612185
 O 0.2888 0.5216 0.33336   -0.537993
 O 0.2112 0.4784 0.83336   -0.537993
 O 0.7112 0.0216 0.16664   -0.537993
 O 0.7888 0.9784 0.66664   -0.537993
