{'_ref': 'TBD', '_srcid': 'CAKYAQ_clean', 'submitters': [{'name': 'Dalar Nazarian Jeff Camp and David Sholl', 'email': 'dalar@gatech.edu jcamp6@gatech.edu'}], '_method': 'VASP DFT with PBE;DDEC'}
data_LiH4C5NO
_symmetry_space_group_name_H-M   'P 1'
_cell_length_a   10.99090000
_cell_length_b   10.99090000
_cell_length_c   10.99100000
_cell_angle_alpha   90.00000000
_cell_angle_beta   90.00000000
_cell_angle_gamma   90.00000000
_symmetry_Int_Tables_number   1
_chemical_formula_structural   LiH4C5NO
_chemical_formula_sum   'Li8 H32 C40 N8 O8'
_cell_volume   1327.71151196
_cell_formula_units_Z   8
loop_
 _symmetry_equiv_pos_site_id
 _symmetry_equiv_pos_as_xyz
  1  'x, y, z'
loop_
 _atom_site_label
 _atom_site_fract_x
 _atom_site_fract_y
 _atom_site_fract_z
 _atom_site_charge
 Li 0.9184 0.5892 0.8364   0.854562
 Li 0.0816 0.4108 0.8364   0.854562
 Li 0.5892 0.0816 0.1636   0.854562
 Li 0.4108 0.9184 0.1636   0.854562
 Li 0.0816 0.5892 0.6636   0.854564
 Li 0.9184 0.4108 0.6636   0.854563
 Li 0.4108 0.0816 0.3364   0.854564
 Li 0.5892 0.9184 0.3364   0.854563
 H 0.2066 0.5432 0.0403   0.149044
 H 0.1323 0.8187 0.8266   0.148662
 H 0.3209 0.6704 0.1497   0.044055
 H 0.2495 0.9355 0.945   0.038852
 H 0.7934 0.4568 0.0403   0.149044
 H 0.8677 0.1813 0.8266   0.148662
 H 0.6791 0.3296 0.1497   0.044055
 H 0.7505 0.0645 0.945   0.038852
 H 0.5432 0.7934 0.9597   0.149044
 H 0.8187 0.8677 0.1734   0.148662
 H 0.6704 0.6791 0.8503   0.044055
 H 0.9355 0.7505 0.055   0.038852
 H 0.4568 0.2066 0.9597   0.149044
 H 0.1813 0.1323 0.1734   0.148662
 H 0.3296 0.3209 0.8503   0.044055
 H 0.0645 0.2495 0.055   0.038852
 H 0.7934 0.5432 0.4597   0.149043
 H 0.8677 0.8187 0.6734   0.14866
 H 0.6791 0.6704 0.3503   0.044055
 H 0.7505 0.9355 0.555   0.038851
 H 0.2066 0.4568 0.4597   0.149043
 H 0.1323 0.1813 0.6734   0.148659
 H 0.3209 0.3296 0.3503   0.044055
 H 0.2495 0.0645 0.555   0.038851
 H 0.4568 0.7934 0.5403   0.149043
 H 0.1813 0.8677 0.3266   0.14866
 H 0.3296 0.6791 0.6497   0.044055
 H 0.0645 0.7505 0.445   0.038852
 H 0.5432 0.2066 0.5403   0.149043
 H 0.8187 0.1323 0.3266   0.148659
 H 0.6704 0.3209 0.6497   0.044055
 H 0.9355 0.2495 0.445   0.038851
 C 0.2155 0.6234 0.015   -0.388491
 C 0.1729 0.7833 0.8918   -0.408366
 C 0.2822 0.7025 0.0817   0.253346
 C 0.2423 0.8538 0.9659   0.272331
 C 0.1621 0.662 0.9116   0.55796
 C 0.7845 0.3766 0.015   -0.388491
 C 0.8271 0.2167 0.8918   -0.408366
 C 0.7178 0.2975 0.0817   0.253346
 C 0.7577 0.1462 0.9659   0.272331
 C 0.8379 0.338 0.9116   0.55796
 C 0.6234 0.7845 0.985   -0.38849
 C 0.7833 0.8271 0.1082   -0.408367
 C 0.7025 0.7178 0.9183   0.253346
 C 0.8538 0.7577 0.0341   0.272331
 C 0.662 0.8379 0.0884   0.55796
 C 0.3766 0.2155 0.985   -0.38849
 C 0.2167 0.1729 0.1082   -0.408366
 C 0.2975 0.2822 0.9183   0.253346
 C 0.1462 0.2423 0.0341   0.272331
 C 0.338 0.1621 0.0884   0.55796
 C 0.7845 0.6234 0.485   -0.388491
 C 0.8271 0.7833 0.6082   -0.408365
 C 0.7178 0.7025 0.4183   0.253346
 C 0.7577 0.8538 0.5341   0.272331
 C 0.8379 0.662 0.5884   0.55796
 C 0.2155 0.3766 0.485   -0.388491
 C 0.1729 0.2167 0.6082   -0.408365
 C 0.2822 0.2975 0.4183   0.253346
 C 0.2423 0.1462 0.5341   0.272331
 C 0.1621 0.338 0.5884   0.55796
 C 0.3766 0.7845 0.515   -0.388491
 C 0.2167 0.8271 0.3918   -0.408366
 C 0.2975 0.7178 0.5817   0.253346
 C 0.1462 0.7577 0.4659   0.272331
 C 0.338 0.8379 0.4116   0.55796
 C 0.6234 0.2155 0.515   -0.388491
 C 0.7833 0.1729 0.3918   -0.408365
 C 0.7025 0.2822 0.5817   0.253346
 C 0.8538 0.2423 0.4659   0.272331
 C 0.662 0.1621 0.4116   0.55796
 N 0.2988 0.8192 0.0616   -0.590753
 N 0.7012 0.1808 0.0616   -0.590753
 N 0.8192 0.7012 0.9384   -0.590753
 N 0.1808 0.2988 0.9384   -0.590753
 N 0.7012 0.8192 0.4384   -0.590753
 N 0.2988 0.1808 0.4384   -0.590753
 N 0.1808 0.7012 0.5616   -0.590753
 N 0.8192 0.2988 0.5616   -0.590753
 O 0.0963 0.5894 0.8414   -0.931202
 O 0.9037 0.4106 0.8414   -0.931201
 O 0.5894 0.9037 0.1586   -0.931201
 O 0.4106 0.0963 0.1586   -0.931202
 O 0.9037 0.5894 0.6586   -0.931202
 O 0.0963 0.4106 0.6586   -0.931202
 O 0.4106 0.9037 0.3414   -0.931202
 O 0.5894 0.0963 0.3414   -0.931202
