{'_ref': 'TBD', '_srcid': 'CAKYAQ_clean', 'submitters': [{'name': 'Dalar Nazarian Jeff Camp and David Sholl', 'email': 'dalar@gatech.edu jcamp6@gatech.edu'}], '_method': 'VASP DFT with PBE;DDEC'}
data_ZnH8C11(N3O)2
_symmetry_space_group_name_H-M   'P 1'
_cell_length_a   9.05410000
_cell_length_b   10.44430000
_cell_length_c   18.20060000
_cell_angle_alpha   90.00000000
_cell_angle_beta   90.00000000
_cell_angle_gamma   90.00000000
_symmetry_Int_Tables_number   1
_chemical_formula_structural   ZnH8C11(N3O)2
_chemical_formula_sum   'Zn4 H32 C44 N24 O8'
_cell_volume   1721.11674491
_cell_formula_units_Z   4
loop_
 _symmetry_equiv_pos_site_id
 _symmetry_equiv_pos_as_xyz
  1  'x, y, z'
loop_
 _atom_site_label
 _atom_site_fract_x
 _atom_site_fract_y
 _atom_site_fract_z
 _atom_site_charge
 Zn 0.13211 0.01884 0.59969   0.826894
 Zn 0.63211 0.98116 0.40031   0.826894
 Zn 0.13211 0.48116 0.09969   0.826894
 Zn 0.63211 0.51884 0.90031   0.826894
 H 0.3278 0.0384 0.4702   0.058418
 H 0.7274 0.6355 0.6079   0.039065
 H 0.3266 0.6968 0.7336   0.348734
 H 0.2398 0.7974 0.6948   0.323798
 H 0.9666 0.6845 0.7109   0.128897
 H 0.8523 0.5385 0.7864   0.069464
 H 0.6039 0.8036 0.8712   0.090586
 H 0.7073 0.9571 0.7959   0.124906
 H 0.8278 0.9616 0.5298   0.058418
 H 0.2274 0.3645 0.3921   0.039065
 H 0.8266 0.3032 0.2664   0.348734
 H 0.7398 0.2026 0.3052   0.323798
 H 0.4666 0.3155 0.2891   0.128897
 H 0.3523 0.4615 0.2136   0.069464
 H 0.1039 0.1964 0.1288   0.090586
 H 0.2073 0.0429 0.2041   0.124906
 H 0.3278 0.4616 0.9702   0.058418
 H 0.7274 0.8645 0.1079   0.039066
 H 0.3266 0.8032 0.2336   0.348734
 H 0.2398 0.7026 0.1948   0.323799
 H 0.9666 0.8155 0.2109   0.128898
 H 0.8523 0.9615 0.2864   0.069465
 H 0.6039 0.6964 0.3712   0.090587
 H 0.7073 0.5429 0.2959   0.124907
 H 0.8278 0.5384 0.0298   0.058418
 H 0.2274 0.1355 0.8921   0.039066
 H 0.8266 0.1968 0.7664   0.348734
 H 0.7398 0.2974 0.8052   0.323799
 H 0.4666 0.1845 0.7891   0.128898
 H 0.3523 0.0385 0.7136   0.069465
 H 0.1039 0.3036 0.6288   0.090587
 H 0.2073 0.4571 0.7041   0.124907
 C 0.3733 0.9759 0.4988   0.320581
 C 0.6469 0.6894 0.601   0.41646
 C 0.4215 0.7571 0.6461   0.488475
 C 0.4143 0.8413 0.58431   -0.101889
 C 0.531 0.8382 0.53635   0.414565
 C 0.9204 0.9343 0.6956   0.638544
 C 0.8928 0.7108 0.7431   -0.138217
 C 0.8495 0.8374 0.7459   -0.007131
 C 0.8242 0.624 0.7889   0.165773
 C 0.6777 0.7798 0.8385   0.161816
 C 0.7396 0.8727 0.7937   -0.127436
 C 0.8733 0.0241 0.5012   0.320581
 C 0.1469 0.3106 0.399   0.41646
 C 0.9215 0.2429 0.3539   0.488475
 C 0.9143 0.1587 0.41569   -0.101889
 C 0.031 0.1618 0.46365   0.414565
 C 0.4204 0.0657 0.3044   0.638544
 C 0.3928 0.2892 0.2569   -0.138217
 C 0.3495 0.1626 0.2541   -0.007131
 C 0.3242 0.376 0.2111   0.165773
 C 0.1777 0.2202 0.1615   0.161816
 C 0.2396 0.1273 0.2063   -0.127436
 C 0.3733 0.5241 0.9988   0.320581
 C 0.6469 0.8106 0.101   0.41646
 C 0.4215 0.7429 0.1461   0.488475
 C 0.4143 0.6587 0.08431   -0.101889
 C 0.531 0.6618 0.03635   0.414565
 C 0.9204 0.5657 0.1956   0.638544
 C 0.8928 0.7892 0.2431   -0.138217
 C 0.8495 0.6626 0.2459   -0.007131
 C 0.8242 0.876 0.2889   0.165773
 C 0.6777 0.7202 0.3385   0.161816
 C 0.7396 0.6273 0.2937   -0.127436
 C 0.8733 0.4759 0.0012   0.320582
 C 0.1469 0.1894 0.899   0.41646
 C 0.9215 0.2571 0.8539   0.488475
 C 0.9143 0.3413 0.91569   -0.101889
 C 0.031 0.3382 0.96365   0.414565
 C 0.4204 0.4343 0.8044   0.638544
 C 0.3928 0.2108 0.7569   -0.138217
 C 0.3495 0.3374 0.7541   -0.007131
 C 0.3242 0.124 0.7111   0.165773
 C 0.1777 0.2798 0.6615   0.161816
 C 0.2396 0.3727 0.7063   -0.127436
 N 0.505 0.926 0.48101   -0.501352
 N 0.6532 0.7634 0.54224   -0.565559
 N 0.3117 0.9301 0.5601   -0.418319
 N 0.5411 0.6814 0.65165   -0.586641
 N 0.3169 0.7495 0.6976   -0.663732
 N 0.7202 0.6571 0.83634   -0.330268
 N 0.005 0.074 0.51899   -0.501352
 N 0.1532 0.2366 0.45776   -0.565559
 N 0.8117 0.0699 0.4399   -0.418319
 N 0.0411 0.3186 0.34835   -0.586641
 N 0.8169 0.2505 0.3024   -0.663732
 N 0.2202 0.3429 0.16366   -0.330268
 N 0.505 0.574 0.98101   -0.501352
 N 0.6532 0.7366 0.04224   -0.565559
 N 0.3117 0.5699 0.0601   -0.418319
 N 0.5411 0.8186 0.15165   -0.586641
 N 0.3169 0.7505 0.1976   -0.663733
 N 0.7202 0.8429 0.33634   -0.330268
 N 0.005 0.426 0.01899   -0.501352
 N 0.1532 0.2634 0.95776   -0.565559
 N 0.8117 0.4301 0.9399   -0.418319
 N 0.0411 0.1814 0.84835   -0.586641
 N 0.8169 0.2495 0.8024   -0.663733
 N 0.2202 0.1571 0.66366   -0.330268
 O 0.0379 0.8937 0.66284   -0.608271
 O 0.8667 0.0402 0.68735   -0.568162
 O 0.5379 0.1063 0.33716   -0.608271
 O 0.3667 0.9598 0.31265   -0.568162
 O 0.0379 0.6063 0.16284   -0.608271
 O 0.8667 0.4598 0.18735   -0.568162
 O 0.5379 0.3937 0.83716   -0.608271
 O 0.3667 0.5402 0.81265   -0.568162
