{'_ref': 'TBD', '_srcid': 'CAKYAQ_clean', 'submitters': [{'name': 'Dalar Nazarian Jeff Camp and David Sholl', 'email': 'dalar@gatech.edu jcamp6@gatech.edu'}], '_method': 'VASP DFT with PBE;DDEC'}
data_GdZnH5C13(NO4)2
_symmetry_space_group_name_H-M   'P 1'
_cell_length_a   9.58310000
_cell_length_b   10.10449951
_cell_length_c   20.17350000
_cell_angle_alpha   103.26199924
_cell_angle_beta   90.00000000
_cell_angle_gamma   90.00000000
_symmetry_Int_Tables_number   1
_chemical_formula_structural   GdZnH5C13(NO4)2
_chemical_formula_sum   'Gd4 Zn4 H20 C52 N8 O32'
_cell_volume   1901.35294142
_cell_formula_units_Z   4
loop_
 _symmetry_equiv_pos_site_id
 _symmetry_equiv_pos_as_xyz
  1  'x, y, z'
loop_
 _atom_site_label
 _atom_site_fract_x
 _atom_site_fract_y
 _atom_site_fract_z
 _atom_site_charge
 Gd 0.42944 0.76877 0.79855   2.219329
 Gd 0.92944 0.73123 0.70145   2.21933
 Gd 0.57056 0.23123 0.20145   2.219329
 Gd 0.07056 0.26877 0.29855   2.21933
 Zn 0.8615 0.30367 0.66379   1.031928
 Zn 0.3615 0.19633 0.83621   1.031928
 Zn 0.1385 0.69633 0.33621   1.031928
 Zn 0.6385 0.80367 0.16379   1.031928
 H 0.0077 0.9443 0.1535   0.058838
 H 0.9016 0.8235 0.0565   0.095915
 H 0.0187 0.7792 0.9543   0.099479
 H 0.3517 0.9836 0.0468   0.113839
 H 0.6273 0.1018 0.7202   0.08817
 H 0.5077 0.5557 0.3465   0.058838
 H 0.4016 0.6765 0.4435   0.095915
 H 0.5187 0.7208 0.5457   0.099479
 H 0.8517 0.5164 0.4532   0.113839
 H 0.1273 0.3982 0.7798   0.08817
 H 0.9923 0.0557 0.8465   0.058838
 H 0.0984 0.1765 0.9435   0.095915
 H 0.9813 0.2208 0.0457   0.099479
 H 0.6483 0.0164 0.9532   0.113839
 H 0.3727 0.8982 0.2798   0.08817
 H 0.4923 0.4443 0.6535   0.058838
 H 0.5984 0.3235 0.5565   0.095915
 H 0.4813 0.2792 0.4543   0.099479
 H 0.1483 0.4836 0.5468   0.113839
 H 0.8727 0.6018 0.2202   0.08817
 C 0.1915 0.9752 0.1106   -0.2202
 C 0.0559 0.9271 0.1124   0.01163
 C 0.9923 0.8549 0.0545   -0.129812
 C 0.0622 0.8285 0.9934   0.004923
 C 0.1979 0.8757 0.99   -0.151334
 C 0.2617 0.9503 0.0489   0.024709
 C 0.2742 0.8444 0.9236   0.678008
 C 0.2593 0.0543 0.1746   0.812335
 C 0.7018 0.5363 0.7392   0.730916
 C 0.6387 0.4117 0.7528   -0.012571
 C 0.5365 0.3865 0.7954   0.025797
 C 0.4484 0.4739 0.8483   0.69041
 C 0.6148 0.1947 0.7371   0.341803
 C 0.6915 0.5248 0.3894   -0.2202
 C 0.5559 0.5729 0.3876   0.01163
 C 0.4923 0.6451 0.4455   -0.129812
 C 0.5622 0.6715 0.5066   0.004923
 C 0.6979 0.6243 0.51   -0.151334
 C 0.7617 0.5497 0.4511   0.024709
 C 0.7742 0.6556 0.5764   0.678008
 C 0.7593 0.4457 0.3254   0.812335
 C 0.2018 0.9637 0.7608   0.730916
 C 0.1387 0.0883 0.7472   -0.01257
 C 0.0365 0.1135 0.7046   0.025797
 C 0.9484 0.0261 0.6517   0.69041
 C 0.1148 0.3053 0.7629   0.341803
 C 0.8085 0.0248 0.8894   -0.2202
 C 0.9441 0.0729 0.8876   0.01163
 C 0.0077 0.1451 0.9455   -0.129812
 C 0.9378 0.1715 0.0066   0.004923
 C 0.8021 0.1243 0.01   -0.151334
 C 0.7383 0.0497 0.9511   0.024709
 C 0.7258 0.1556 0.0764   0.678007
 C 0.7407 0.9457 0.8254   0.812335
 C 0.2982 0.4637 0.2608   0.730916
 C 0.3613 0.5883 0.2472   -0.01257
 C 0.4635 0.6135 0.2046   0.025797
 C 0.5516 0.5261 0.1517   0.69041
 C 0.3852 0.8053 0.2629   0.341802
 C 0.3085 0.4752 0.6106   -0.2202
 C 0.4441 0.4271 0.6124   0.01163
 C 0.5077 0.3549 0.5545   -0.129812
 C 0.4378 0.3285 0.4934   0.004923
 C 0.3021 0.3757 0.49   -0.151334
 C 0.2383 0.4503 0.5489   0.024709
 C 0.2258 0.3444 0.4236   0.678007
 C 0.2407 0.5543 0.6746   0.812335
 C 0.7982 0.0363 0.2392   0.730916
 C 0.8613 0.9117 0.2528   -0.01257
 C 0.9635 0.8865 0.2954   0.025797
 C 0.0516 0.9739 0.3483   0.69041
 C 0.8852 0.6947 0.2371   0.341802
 N 0.6869 0.2899 0.7158   -0.45521
 N 0.5218 0.2481 0.7858   -0.475368
 N 0.1869 0.2101 0.7842   -0.45521
 N 0.0218 0.2519 0.7142   -0.475368
 N 0.3131 0.7101 0.2842   -0.45521
 N 0.4782 0.7519 0.2142   -0.475368
 N 0.8131 0.7899 0.2158   -0.45521
 N 0.9782 0.7481 0.2858   -0.475368
 O 0.2195 0.77188 0.87148   -0.688355
 O 0.3971 0.89046 0.92056   -0.67115
 O 0.3869 0.07955 0.17145   -0.742942
 O 0.1861 0.08801 0.22751   -0.785741
 O 0.6499 0.6502 0.7593   -0.710887
 O 0.814 0.51643 0.70393   -0.734008
 O 0.4667 0.60126 0.86206   -0.677038
 O 0.3618 0.41489 0.87799   -0.573412
 O 0.7195 0.72812 0.62852   -0.688355
 O 0.8971 0.60954 0.57944   -0.67115
 O 0.8869 0.42045 0.32855   -0.742942
 O 0.6861 0.41199 0.27249   -0.785741
 O 0.1499 0.8498 0.7407   -0.710887
 O 0.314 0.98357 0.79607   -0.734008
 O 0.9667 0.89874 0.63794   -0.677038
 O 0.8618 0.08511 0.62201   -0.573412
 O 0.7805 0.22812 0.12852   -0.688355
 O 0.6029 0.10954 0.07944   -0.67115
 O 0.6131 0.92045 0.82855   -0.742942
 O 0.8139 0.91199 0.77249   -0.785741
 O 0.3501 0.3498 0.2407   -0.710887
 O 0.186 0.48357 0.29607   -0.734008
 O 0.5333 0.39874 0.13794   -0.677038
 O 0.6382 0.58511 0.12201   -0.573412
 O 0.2805 0.27188 0.37148   -0.688355
 O 0.1029 0.39046 0.42056   -0.67115
 O 0.1131 0.57955 0.67145   -0.742942
 O 0.3139 0.58801 0.72751   -0.785741
 O 0.8501 0.1502 0.2593   -0.710887
 O 0.686 0.01643 0.20393   -0.734008
 O 0.0333 0.10126 0.36206   -0.677038
 O 0.1382 0.91489 0.37799   -0.573412
