{'_ref': 'TBD', '_srcid': 'CAKYAQ_clean', 'submitters': [{'name': 'Dalar Nazarian Jeff Camp and David Sholl', 'email': 'dalar@gatech.edu jcamp6@gatech.edu'}], '_method': 'VASP DFT with PBE;DDEC'}
data_CuH11C11(NO2)2
_symmetry_space_group_name_H-M   'P 1'
_cell_length_a   8.63330005
_cell_length_b   13.15879970
_cell_length_c   15.34820000
_cell_angle_alpha   115.38299821
_cell_angle_beta   94.71210129
_cell_angle_gamma   89.99999993
_symmetry_Int_Tables_number   1
_chemical_formula_structural   CuH11C11(NO2)2
_chemical_formula_sum   'Cu4 H44 C44 N8 O16'
_cell_volume   1568.76517305
_cell_formula_units_Z   4
loop_
 _symmetry_equiv_pos_site_id
 _symmetry_equiv_pos_as_xyz
  1  'x, y, z'
loop_
 _atom_site_label
 _atom_site_fract_x
 _atom_site_fract_y
 _atom_site_fract_z
 _atom_site_charge
 Cu 0.46145 0.58512 0.57874   0.799787
 Cu 0.03855 0.00638 0.42126   0.800226
 Cu 0.53855 0.41488 0.42126   0.799785
 Cu 0.96145 0.99362 0.57874   0.800224
 H 0.3262 0.6354 0.773   0.084469
 H 0.1807 0.7625 0.8848   0.121873
 H 0.226 0.9657 0.7554   0.123992
 H 0.3653 0.8311 0.6436   0.086984
 H 0.0914 0.0367 0.9022   0.065748
 H 0.9304 0.5571 0.6986   0.11968
 H 0.0055 0.5742 0.617   0.133213
 H 0.1044 0.4115 0.6258   0.069667
 H 0.0088 0.3764 0.5262   0.068354
 H 0.7924 0.3346 0.5926   0.127349
 H 0.8995 0.3581 0.686   0.115129
 H 0.1738 0.8624 0.227   0.083666
 H 0.3193 0.8777 0.1152   0.122106
 H 0.274 0.2103 0.2446   0.124107
 H 0.1347 0.1875 0.3564   0.087247
 H 0.4086 0.1345 0.0978   0.06649
 H 0.5696 0.8585 0.3014   0.11872
 H 0.4945 0.9572 0.383   0.132133
 H 0.3956 0.7857 0.3742   0.069477
 H 0.4912 0.8502 0.4738   0.068496
 H 0.7076 0.742 0.4074   0.127403
 H 0.6005 0.6721 0.314   0.115352
 H 0.6738 0.3646 0.227   0.084469
 H 0.8193 0.2375 0.1152   0.121872
 H 0.774 0.0343 0.2446   0.123991
 H 0.6347 0.1689 0.3564   0.086984
 H 0.9086 0.9633 0.0978   0.065747
 H 0.0696 0.4429 0.3014   0.11968
 H 0.9945 0.4258 0.383   0.133214
 H 0.8956 0.5885 0.3742   0.069666
 H 0.9912 0.6236 0.4738   0.068354
 H 0.2076 0.6654 0.4074   0.127349
 H 0.1005 0.6419 0.314   0.115129
 H 0.8262 0.1376 0.773   0.083665
 H 0.6807 0.1223 0.8848   0.122105
 H 0.726 0.7897 0.7554   0.124107
 H 0.8653 0.8125 0.6436   0.087248
 H 0.5914 0.8655 0.9022   0.066488
 H 0.4304 0.1415 0.6986   0.11872
 H 0.5055 0.0428 0.617   0.132134
 H 0.6044 0.2143 0.6258   0.069477
 H 0.5088 0.1498 0.5262   0.068496
 H 0.2924 0.258 0.5926   0.127403
 H 0.3995 0.3279 0.686   0.115352
 C 0.3045 0.7026 0.769   0.155839
 C 0.2185 0.7789 0.837   -0.167161
 C 0.1881 0.8819 0.8336   0.048462
 C 0.2444 0.8987 0.7604   -0.16529
 C 0.3285 0.8176 0.693   0.167354
 C 0.1014 0.9677 0.9048   0.182643
 C 0.7757 0.5251 0.5808   0.689385
 C 0.9361 0.5262 0.6298   -0.325278
 C 0.0018 0.4074 0.5948   -0.020951
 C 0.8972 0.3308 0.617   -0.321725
 C 0.9432 0.2068 0.574   0.697272
 C 0.1955 0.9336 0.231   0.156365
 C 0.2815 0.9419 0.163   -0.16655
 C 0.3119 0.0483 0.1664   0.048403
 C 0.2556 0.1383 0.2396   -0.165037
 C 0.1715 0.1246 0.307   0.166751
 C 0.3986 0.0629 0.0952   0.181473
 C 0.7243 0.9443 0.4192   0.687846
 C 0.5639 0.8964 0.3702   -0.322449
 C 0.4982 0.8126 0.4052   -0.021081
 C 0.6028 0.7138 0.383   -0.322693
 C 0.5568 0.6328 0.426   0.697302
 C 0.6955 0.2974 0.231   0.155839
 C 0.7815 0.2211 0.163   -0.167161
 C 0.8119 0.1181 0.1664   0.048462
 C 0.7556 0.1013 0.2396   -0.165289
 C 0.6715 0.1824 0.307   0.167354
 C 0.8986 0.0323 0.0952   0.182644
 C 0.2243 0.4749 0.4192   0.689384
 C 0.0639 0.4738 0.3702   -0.325278
 C 0.9982 0.5926 0.4052   -0.020951
 C 0.1028 0.6692 0.383   -0.321724
 C 0.0568 0.7932 0.426   0.697272
 C 0.8045 0.0664 0.769   0.156365
 C 0.7185 0.0581 0.837   -0.166549
 C 0.6881 0.9517 0.8336   0.048404
 C 0.7444 0.8617 0.7604   -0.165036
 C 0.8285 0.8754 0.693   0.166751
 C 0.6014 0.9371 0.9048   0.181473
 C 0.2757 0.0557 0.5808   0.687846
 C 0.4361 0.1036 0.6298   -0.322449
 C 0.5018 0.1874 0.5948   -0.02108
 C 0.3972 0.2862 0.617   -0.322693
 C 0.4432 0.3672 0.574   0.697302
 N 0.3582 0.7194 0.6978   -0.32946
 N 0.0391 0.9529 0.97   -0.260528
 N 0.1418 0.0216 0.3022   -0.329581
 N 0.4609 0.9829 0.03   -0.260499
 N 0.6418 0.2806 0.3022   -0.329459
 N 0.9609 0.0471 0.03   -0.260522
 N 0.8582 0.9784 0.6978   -0.329581
 N 0.5391 0.0171 0.97   -0.260493
 O 0.6787 0.59472 0.63064   -0.575317
 O 0.9263 0.15481 0.62462   -0.576821
 O 0.7448 0.45328 0.49556   -0.558508
 O 0.9866 0.16672 0.49184   -0.556604
 O 0.8213 0.96408 0.36936   -0.574394
 O 0.5737 0.53019 0.37538   -0.576594
 O 0.7552 0.95772 0.50444   -0.558265
 O 0.5134 0.67488 0.50816   -0.555984
 O 0.3213 0.40528 0.36936   -0.575317
 O 0.0737 0.84519 0.37538   -0.576821
 O 0.2552 0.54672 0.50444   -0.558508
 O 0.0134 0.83328 0.50816   -0.556604
 O 0.1787 0.03592 0.63064   -0.574394
 O 0.4263 0.46981 0.62462   -0.576594
 O 0.2448 0.04228 0.49556   -0.558266
 O 0.4866 0.32512 0.49184   -0.555983
