{'_ref': 'TBD', '_srcid': 'CAKYAQ_clean', 'submitters': [{'name': 'Dalar Nazarian Jeff Camp and David Sholl', 'email': 'dalar@gatech.edu jcamp6@gatech.edu'}], '_method': 'VASP DFT with PBE;DDEC'}
data_CuH11C11(NO2)2
_symmetry_space_group_name_H-M   'P 1'
_cell_length_a   8.64620028
_cell_length_b   13.15979951
_cell_length_c   15.32168931
_cell_angle_alpha   115.43212835
_cell_angle_beta   94.90693440
_cell_angle_gamma   89.99999934
_symmetry_Int_Tables_number   1
_chemical_formula_structural   CuH11C11(NO2)2
_chemical_formula_sum   'Cu4 H44 C44 N8 O16'
_cell_volume   1567.31983537
_cell_formula_units_Z   4
loop_
 _symmetry_equiv_pos_site_id
 _symmetry_equiv_pos_as_xyz
  1  'x, y, z'
loop_
 _atom_site_label
 _atom_site_fract_x
 _atom_site_fract_y
 _atom_site_fract_z
 _atom_site_charge
 Cu 0.96189 0.08508 0.57898   0.791606
 Cu 0.53811 0.5061 0.42102   0.791804
 Cu 0.03811 0.91492 0.42102   0.791605
 Cu 0.46189 0.4939 0.57898   0.791803
 H 0.8234 0.1356 0.772   0.079433
 H 0.6829 0.2628 0.8848   0.123224
 H 0.7285 0.4639 0.7544   0.125782
 H 0.8682 0.3309 0.6454   0.080793
 H 0.5961 0.5393 0.9026   0.078645
 H 0.7069 0.168 0.409   0.131035
 H 0.5992 0.1437 0.3144   0.116419
 H 0.4884 0.1218 0.4748   0.068408
 H 0.3942 0.0847 0.373   0.068555
 H 0.495 0.9255 0.3848   0.132689
 H 0.5683 0.9418 0.3014   0.116138
 H 0.6766 0.3636 0.228   0.079501
 H 0.8171 0.378 0.1152   0.123533
 H 0.7715 0.7095 0.2456   0.125262
 H 0.6318 0.6855 0.3546   0.081007
 H 0.9039 0.6367 0.0974   0.078374
 H 0.7931 0.759 0.591   0.131123
 H 0.9008 0.8293 0.6856   0.116561
 H 0.0116 0.647 0.5252   0.068031
 H 0.1058 0.7117 0.627   0.068313
 H 0.005 0.5407 0.6152   0.132683
 H 0.9317 0.6404 0.6986   0.116627
 H 0.1766 0.8644 0.228   0.079433
 H 0.3171 0.7372 0.1152   0.123223
 H 0.2715 0.5361 0.2456   0.125781
 H 0.1318 0.6691 0.3546   0.080793
 H 0.4039 0.4607 0.0974   0.078644
 H 0.2931 0.832 0.591   0.131035
 H 0.4008 0.8563 0.6856   0.116419
 H 0.5116 0.8782 0.5252   0.068408
 H 0.6058 0.9153 0.627   0.068555
 H 0.505 0.0745 0.6152   0.132688
 H 0.4317 0.0582 0.6986   0.116138
 H 0.3234 0.6364 0.772   0.079501
 H 0.1829 0.622 0.8848   0.123531
 H 0.2285 0.2905 0.7544   0.125262
 H 0.3682 0.3145 0.6454   0.081006
 H 0.0961 0.3633 0.9026   0.078373
 H 0.2069 0.241 0.409   0.131122
 H 0.0992 0.1707 0.3144   0.116561
 H 0.9884 0.353 0.4748   0.06803
 H 0.8942 0.2883 0.373   0.068313
 H 0.995 0.4593 0.3848   0.132683
 H 0.0683 0.3596 0.3014   0.116627
 C 0.8036 0.2034 0.7686   0.160541
 C 0.7193 0.2789 0.8366   -0.169718
 C 0.689 0.3792 0.8328   0.054179
 C 0.7466 0.3969 0.7594   -0.174074
 C 0.8301 0.317 0.6944   0.177803
 C 0.603 0.4697 0.9044   0.165495
 C 0.5578 0.2932 0.4258   0.702413
 C 0.6009 0.1713 0.3842   -0.331255
 C 0.4975 0.0908 0.4054   -0.018515
 C 0.5642 0.9738 0.3712   -0.324955
 C 0.726 0.9748 0.4194   0.690541
 C 0.6964 0.4348 0.2314   0.159447
 C 0.7807 0.4423 0.1634   -0.169204
 C 0.811 0.5464 0.1672   0.054213
 C 0.7534 0.6375 0.2406   -0.173732
 C 0.6699 0.6226 0.3056   0.178022
 C 0.897 0.5653 0.0956   0.164755
 C 0.9422 0.8674 0.5742   0.70193
 C 0.8991 0.7871 0.6158   -0.331366
 C 0.0025 0.6854 0.5946   -0.017115
 C 0.9358 0.6026 0.6288   -0.326678
 C 0.774 0.5554 0.5806   0.69144
 C 0.1964 0.7966 0.2314   0.160541
 C 0.2807 0.7211 0.1634   -0.169718
 C 0.311 0.6208 0.1672   0.054179
 C 0.2534 0.6031 0.2406   -0.174073
 C 0.1699 0.683 0.3056   0.177804
 C 0.397 0.5303 0.0956   0.165495
 C 0.4422 0.7068 0.5742   0.702413
 C 0.3991 0.8287 0.6158   -0.331255
 C 0.5025 0.9092 0.5946   -0.018515
 C 0.4358 0.0262 0.6288   -0.324955
 C 0.274 0.0252 0.5806   0.690541
 C 0.3036 0.5652 0.7686   0.159447
 C 0.2193 0.5577 0.8366   -0.169203
 C 0.189 0.4536 0.8328   0.054213
 C 0.2466 0.3625 0.7594   -0.173731
 C 0.3301 0.3774 0.6944   0.178023
 C 0.103 0.4347 0.9044   0.164756
 C 0.0578 0.1326 0.4258   0.70193
 C 0.1009 0.2129 0.3842   -0.331366
 C 0.9975 0.3146 0.4054   -0.017114
 C 0.0642 0.3974 0.3712   -0.326677
 C 0.226 0.4446 0.4194   0.69144
 N 0.8591 0.2202 0.698   -0.330348
 N 0.5379 0.4521 0.9696   -0.257046
 N 0.6409 0.5222 0.302   -0.329772
 N 0.9621 0.4825 0.0304   -0.256555
 N 0.1409 0.7798 0.302   -0.330348
 N 0.4621 0.5479 0.0304   -0.257039
 N 0.3591 0.4778 0.698   -0.329772
 N 0.0379 0.5175 0.9696   -0.256547
 O 0.5151 0.3352 0.5104   -0.567994
 O 0.7553 0.04618 0.50436   -0.555777
 O 0.5736 0.3446 0.375   -0.568681
 O 0.8195 0.90577 0.36834   -0.56572
 O 0.9849 0.8248 0.4896   -0.568087
 O 0.7447 0.54182 0.49564   -0.556243
 O 0.9264 0.9696 0.625   -0.567737
 O 0.6805 0.53743 0.63166   -0.565759
 O 0.4849 0.6648 0.4896   -0.567994
 O 0.2447 0.95382 0.49564   -0.555777
 O 0.4264 0.6554 0.625   -0.568681
 O 0.1805 0.09423 0.63166   -0.56572
 O 0.0151 0.1752 0.5104   -0.568087
 O 0.2553 0.45818 0.50436   -0.556243
 O 0.0736 0.0304 0.375   -0.567738
 O 0.3195 0.46257 0.36834   -0.565759
