{'_ref': 'TBD', '_srcid': 'CAKYAQ_clean', 'submitters': [{'name': 'Dalar Nazarian Jeff Camp and David Sholl', 'email': 'dalar@gatech.edu jcamp6@gatech.edu'}], '_method': 'VASP DFT with PBE;DDEC'}
data_InH8(C2O)8
_symmetry_space_group_name_H-M   'P 1'
_cell_length_a   12.17800000
_cell_length_b   14.68200002
_cell_length_c   14.68200000
_cell_angle_alpha   119.99999996
_cell_angle_beta   90.00000000
_cell_angle_gamma   90.00000000
_symmetry_Int_Tables_number   1
_chemical_formula_structural   InH8(C2O)8
_chemical_formula_sum   'In3 H24 C48 O24'
_cell_volume   2273.40620818
_cell_formula_units_Z   3
loop_
 _symmetry_equiv_pos_site_id
 _symmetry_equiv_pos_as_xyz
  1  'x, y, z'
loop_
 _atom_site_label
 _atom_site_fract_x
 _atom_site_fract_y
 _atom_site_fract_z
 _atom_site_charge
 In 0.16667 0.5 0.0   1.449277
 In 0.5 0.5 0.5   1.44927
 In 0.83333 0.0 0.5   1.449279
 H 0.9094 0.6551 0.8745   0.12741
 H 0.9064 0.3386 0.7187   0.107251
 H 0.24273 0.2194 0.3449   0.127359
 H 0.23973 0.3801 0.6614   0.107244
 H 0.57607 0.1255 0.7806   0.127421
 H 0.57307 0.2813 0.6199   0.107259
 H 0.9094 0.3449 0.1255   0.127411
 H 0.9064 0.6614 0.2813   0.107251
 H 0.24273 0.7806 0.6551   0.127359
 H 0.23973 0.6199 0.3386   0.107244
 H 0.57607 0.8745 0.2194   0.127422
 H 0.57307 0.7187 0.3801   0.107259
 H 0.42393 0.7806 0.1255   0.127421
 H 0.42693 0.6199 0.2813   0.107258
 H 0.0906 0.8745 0.6551   0.12741
 H 0.0936 0.7187 0.3386   0.10725
 H 0.75727 0.3449 0.2194   0.127358
 H 0.76027 0.6614 0.3801   0.107244
 H 0.42393 0.2194 0.8745   0.127421
 H 0.42693 0.3801 0.7187   0.107258
 H 0.0906 0.1255 0.3449   0.12741
 H 0.0936 0.2813 0.6614   0.10725
 H 0.75727 0.6551 0.7806   0.127358
 H 0.76027 0.3386 0.6199   0.107244
 C 0.8779 0.5921 0.8241   -0.058503
 C 0.9221 0.4941 0.8043   -0.073762
 C 0.8773 0.402 0.7301   -0.049018
 C 0.0171 0.4935 0.8711   0.585599
 C 0.21123 0.232 0.4079   -0.058458
 C 0.25543 0.3102 0.5059   -0.073779
 C 0.21063 0.3281 0.598   -0.049002
 C 0.35043 0.3776 0.5065   0.585681
 C 0.54457 0.1759 0.768   -0.058516
 C 0.58877 0.1957 0.6898   -0.073818
 C 0.54397 0.2699 0.6719   -0.049003
 C 0.68377 0.1289 0.6224   0.585528
 C 0.8779 0.4079 0.1759   -0.058503
 C 0.9221 0.5059 0.1957   -0.073763
 C 0.8773 0.598 0.2699   -0.049018
 C 0.0171 0.5065 0.1289   0.585599
 C 0.21123 0.768 0.5921   -0.058458
 C 0.25543 0.6898 0.4941   -0.073779
 C 0.21063 0.6719 0.402   -0.049002
 C 0.35043 0.6224 0.4935   0.585681
 C 0.54457 0.8241 0.232   -0.058517
 C 0.58877 0.8043 0.3102   -0.073818
 C 0.54397 0.7301 0.3281   -0.049003
 C 0.68377 0.8711 0.3776   0.585527
 C 0.45543 0.768 0.1759   -0.058514
 C 0.41123 0.6898 0.1957   -0.073819
 C 0.45603 0.6719 0.2699   -0.048998
 C 0.31623 0.6224 0.1289   0.585528
 C 0.1221 0.8241 0.5921   -0.058501
 C 0.0779 0.8043 0.4941   -0.073764
 C 0.1227 0.7301 0.402   -0.049015
 C 0.9829 0.8711 0.4935   0.585599
 C 0.78877 0.4079 0.232   -0.058456
 C 0.74457 0.5059 0.3102   -0.073781
 C 0.78937 0.598 0.3281   -0.048998
 C 0.64957 0.5065 0.3776   0.585681
 C 0.45543 0.232 0.8241   -0.058515
 C 0.41123 0.3102 0.8043   -0.073819
 C 0.45603 0.3281 0.7301   -0.048998
 C 0.31623 0.3776 0.8711   0.585528
 C 0.1221 0.1759 0.4079   -0.058502
 C 0.0779 0.1957 0.5059   -0.073764
 C 0.1227 0.2699 0.598   -0.049015
 C 0.9829 0.1289 0.5065   0.585599
 C 0.78877 0.5921 0.768   -0.058457
 C 0.74457 0.4941 0.6898   -0.073781
 C 0.78937 0.402 0.6719   -0.048999
 C 0.64957 0.4935 0.6224   0.585681
 O 0.0672 0.5806 0.9296   -0.50248
 O 0.0416 0.4128 0.8712   -0.498786
 O 0.40053 0.349 0.4194   -0.50251
 O 0.37493 0.4584 0.5872   -0.498862
 O 0.73387 0.0704 0.651   -0.502479
 O 0.70827 0.1288 0.5416   -0.498736
 O 0.0672 0.4194 0.0704   -0.502479
 O 0.0416 0.5872 0.1288   -0.498786
 O 0.40053 0.651 0.5806   -0.50251
 O 0.37493 0.5416 0.4128   -0.498862
 O 0.73387 0.9296 0.349   -0.502479
 O 0.70827 0.8712 0.4584   -0.498736
 O 0.26613 0.651 0.0704   -0.502479
 O 0.29173 0.5416 0.1288   -0.498736
 O 0.9328 0.9296 0.5806   -0.50248
 O 0.9584 0.8712 0.4128   -0.498787
 O 0.59947 0.4194 0.349   -0.50251
 O 0.62507 0.5872 0.4584   -0.498862
 O 0.26613 0.349 0.9296   -0.502479
 O 0.29173 0.4584 0.8712   -0.498736
 O 0.9328 0.0704 0.4194   -0.50248
 O 0.9584 0.1288 0.5872   -0.498787
 O 0.59947 0.5806 0.651   -0.50251
 O 0.62507 0.4128 0.5416   -0.498862
