{'_ref': 'TBD', '_srcid': 'CAKYAQ_clean', 'submitters': [{'name': 'Dalar Nazarian Jeff Camp and David Sholl', 'email': 'dalar@gatech.edu jcamp6@gatech.edu'}], '_method': 'VASP DFT with PBE;DDEC'}
data_SrH6PtC14(NO)4
_symmetry_space_group_name_H-M   'P 1'
_cell_length_a   7.07200028
_cell_length_b   10.38499992
_cell_length_c   12.84200000
_cell_angle_alpha   100.69499847
_cell_angle_beta   91.18099885
_cell_angle_gamma   94.61400267
_symmetry_Int_Tables_number   1
_chemical_formula_structural   SrH6PtC14(NO)4
_chemical_formula_sum   'Sr2 H12 Pt2 C28 N8 O8'
_cell_volume   923.156206562
_cell_formula_units_Z   2
loop_
 _symmetry_equiv_pos_site_id
 _symmetry_equiv_pos_as_xyz
  1  'x, y, z'
loop_
 _atom_site_label
 _atom_site_fract_x
 _atom_site_fract_y
 _atom_site_fract_z
 _atom_site_charge
 Sr 0.2419 0.4669 0.39521   1.625837
 Sr 0.7581 0.5331 0.60479   1.62584
 H 0.8197 0.2858 0.0267   0.109058
 H 0.8042 0.4244 0.1888   0.134206
 H 0.6517 0.1127 0.3219   0.145367
 H 0.5615 0.8932 0.2817   0.135306
 H 0.5897 0.5648 0.0669   0.115832
 H 0.6971 0.6885 0.9451   0.104525
 H 0.1803 0.7142 0.9733   0.109056
 H 0.1958 0.5756 0.8112   0.134206
 H 0.3483 0.8873 0.6781   0.145368
 H 0.4385 0.1068 0.7183   0.135308
 H 0.4103 0.4352 0.9331   0.115832
 H 0.3029 0.3115 0.0549   0.104524
 Pt 0.78321 0.98519 0.93954   -0.000201
 Pt 0.21679 0.01481 0.06046   -0.000201
 C 0.786 0.25 0.0876   0.082474
 C 0.778 0.3327 0.1844   -0.135151
 C 0.727 0.2791 0.2719   0.008432
 C 0.685 0.1472 0.2609   -0.117732
 C 0.693 0.0623 0.1622   0.139495
 C 0.663 0.9228 0.1402   0.104218
 C 0.59 0.8507 0.2126   -0.081164
 C 0.556 0.7145 0.1846   0.005722
 C 0.603 0.6567 0.0851   -0.113276
 C 0.671 0.7306 0.0142   0.089638
 C 0.733 0.3692 0.3823   0.76902
 C 0.459 0.633 0.2631   0.638013
 C 0.858 0.1146 0.8504   0.105766
 C 0.795 0.8436 0.8155   0.184574
 C 0.214 0.75 0.9124   0.082475
 C 0.222 0.6673 0.8156   -0.135151
 C 0.273 0.7209 0.7281   0.008432
 C 0.315 0.8528 0.7391   -0.11773
 C 0.307 0.9377 0.8378   0.139495
 C 0.337 0.0772 0.8598   0.104217
 C 0.41 0.1493 0.7874   -0.081165
 C 0.444 0.2855 0.8154   0.005722
 C 0.397 0.3433 0.9149   -0.113276
 C 0.329 0.2694 0.9858   0.089639
 C 0.267 0.6308 0.6177   0.76902
 C 0.541 0.367 0.7369   0.638013
 C 0.142 0.8854 0.1496   0.105766
 C 0.205 0.1564 0.1845   0.184575
 N 0.748 0.1123 0.0749   -0.122486
 N 0.6966 0.8616 0.039   -0.093199
 N 0.906 0.1863 0.8001   -0.456989
 N 0.8 0.7604 0.7441   -0.561079
 N 0.252 0.8877 0.9251   -0.122486
 N 0.3034 0.1384 0.961   -0.093199
 N 0.094 0.8137 0.1999   -0.456989
 N 0.2 0.2396 0.2559   -0.561078
 O 0.5829 0.4074 0.4144   -0.721597
 O 0.8898 0.3907 0.4269   -0.756693
 O 0.4496 0.6856 0.3566   -0.650038
 O 0.3926 0.5198 0.2189   -0.687882
 O 0.4171 0.5926 0.5856   -0.721597
 O 0.1102 0.6093 0.5731   -0.756693
 O 0.5504 0.3144 0.6434   -0.650038
 O 0.6074 0.4802 0.7811   -0.687882
