{'_ref': 'TBD', '_srcid': 'CAKYAQ_clean', 'submitters': [{'name': 'Dalar Nazarian Jeff Camp and David Sholl', 'email': 'dalar@gatech.edu jcamp6@gatech.edu'}], '_method': 'VASP DFT with PBE;DDEC'}
data_CdH10C10(NO2)2
_symmetry_space_group_name_H-M   'P 1'
_cell_length_a   8.39500000
_cell_length_b   9.56200000
_cell_length_c   16.47500000
_cell_angle_alpha   90.00000000
_cell_angle_beta   90.00000000
_cell_angle_gamma   90.00000000
_symmetry_Int_Tables_number   1
_chemical_formula_structural   CdH10C10(NO2)2
_chemical_formula_sum   'Cd4 H40 C40 N8 O16'
_cell_volume   1322.49751025
_cell_formula_units_Z   4
loop_
 _symmetry_equiv_pos_site_id
 _symmetry_equiv_pos_as_xyz
  1  'x, y, z'
loop_
 _atom_site_label
 _atom_site_fract_x
 _atom_site_fract_y
 _atom_site_fract_z
 _atom_site_charge
 Cd 0.61451 0.10452 0.93859   0.981389
 Cd 0.38549 0.89548 0.43859   0.981389
 Cd 0.11451 0.39548 0.93859   0.981389
 Cd 0.88549 0.60452 0.43859   0.981389
 H 0.648 0.2706 0.532   0.086504
 H 0.5799 0.3763 0.4652   0.142107
 H 0.5224 0.4898 0.5939   0.105337
 H 0.6465 0.6093 0.6189   0.137685
 H 0.9318 0.3618 0.5833   0.091052
 H 0.9039 0.5078 0.628   0.099156
 H 0.621 0.4028 0.8569   0.090157
 H 0.7299 0.521 0.747   0.147533
 H 0.7904 0.1476 0.6358   0.136225
 H 0.6885 0.04 0.7509   0.090858
 H 0.352 0.7294 0.032   0.086504
 H 0.4201 0.6237 0.9652   0.142107
 H 0.4776 0.5102 0.0939   0.105337
 H 0.3535 0.3907 0.1189   0.137685
 H 0.0682 0.6382 0.0833   0.091052
 H 0.0961 0.4922 0.128   0.099156
 H 0.379 0.5972 0.3569   0.090157
 H 0.2701 0.479 0.247   0.147533
 H 0.2096 0.8524 0.1358   0.136225
 H 0.3115 0.96 0.2509   0.090858
 H 0.148 0.2294 0.532   0.086504
 H 0.0799 0.1237 0.4652   0.142107
 H 0.0224 0.0102 0.5939   0.105338
 H 0.1465 0.8907 0.6189   0.137683
 H 0.4318 0.1382 0.5833   0.091053
 H 0.4039 0.9922 0.628   0.099155
 H 0.121 0.0972 0.8569   0.090157
 H 0.2299 0.979 0.747   0.147533
 H 0.2904 0.3524 0.6358   0.136227
 H 0.1885 0.46 0.7509   0.090857
 H 0.852 0.7706 0.032   0.086504
 H 0.9201 0.8763 0.9652   0.142107
 H 0.9776 0.9898 0.0939   0.105338
 H 0.8535 0.1093 0.1189   0.137683
 H 0.5682 0.8618 0.0833   0.091053
 H 0.5961 0.0078 0.128   0.099155
 H 0.879 0.9028 0.3569   0.090157
 H 0.7701 0.021 0.247   0.147533
 H 0.7096 0.6476 0.1358   0.136227
 H 0.8115 0.54 0.2509   0.090857
 C 0.6776 0.347 0.4943   -0.240027
 C 0.7976 0.29166 0.433   0.687245
 C 0.6074 0.552 0.57303   -0.226087
 C 0.5376 0.6481 0.50848   0.689063
 C 0.8493 0.4232 0.60732   -0.101687
 C 0.6583 0.3503 0.8118   0.193297
 C 0.7223 0.4219 0.74614   -0.214535
 C 0.7749 0.347 0.67918   0.127358
 C 0.7589 0.2026 0.68111   -0.232007
 C 0.6963 0.1391 0.74994   0.177647
 C 0.3224 0.653 0.9943   -0.240027
 C 0.2024 0.70834 0.933   0.687245
 C 0.3926 0.448 0.07303   -0.226087
 C 0.4624 0.3519 0.00848   0.689063
 C 0.1507 0.5768 0.10732   -0.101687
 C 0.3417 0.6497 0.3118   0.193297
 C 0.2777 0.5781 0.24614   -0.214535
 C 0.2251 0.653 0.17918   0.127358
 C 0.2411 0.7974 0.18111   -0.232007
 C 0.3037 0.8609 0.24994   0.177647
 C 0.1776 0.153 0.4943   -0.240027
 C 0.2976 0.20834 0.433   0.687245
 C 0.1074 0.948 0.57303   -0.226087
 C 0.0376 0.8519 0.50848   0.689063
 C 0.3493 0.0768 0.60732   -0.101688
 C 0.1583 0.1497 0.8118   0.193297
 C 0.2223 0.0781 0.74614   -0.214535
 C 0.2749 0.153 0.67918   0.127358
 C 0.2589 0.2974 0.68111   -0.232008
 C 0.1963 0.3609 0.74994   0.177648
 C 0.8224 0.847 0.9943   -0.240027
 C 0.7024 0.79166 0.933   0.687245
 C 0.8926 0.052 0.07303   -0.226087
 C 0.9624 0.1481 0.00848   0.689063
 C 0.6507 0.9232 0.10732   -0.101688
 C 0.8417 0.8503 0.3118   0.193297
 C 0.7777 0.9219 0.24614   -0.214535
 C 0.7251 0.847 0.17918   0.127358
 C 0.7411 0.7026 0.18111   -0.232008
 C 0.8037 0.6391 0.24994   0.177648
 N 0.7386 0.46633 0.54182   -0.14205
 N 0.6468 0.2105 0.81462   -0.35985
 N 0.2614 0.53367 0.04182   -0.14205
 N 0.3532 0.7895 0.31462   -0.35985
 N 0.2386 0.03367 0.54182   -0.14205
 N 0.1468 0.2895 0.81462   -0.359851
 N 0.7614 0.96633 0.04182   -0.14205
 N 0.8532 0.7105 0.31462   -0.359851
 O 0.885 0.37962 0.39641   -0.639482
 O 0.8 0.16397 0.41876   -0.606647
 O 0.61182 0.67069 0.44502   -0.605889
 O 0.40506 0.70524 0.5248   -0.614351
 O 0.115 0.62038 0.89641   -0.639482
 O 0.2 0.83603 0.91876   -0.606647
 O 0.38818 0.32931 0.94502   -0.605889
 O 0.59494 0.29476 0.0248   -0.614351
 O 0.385 0.12038 0.39641   -0.639482
 O 0.3 0.33603 0.41876   -0.606646
 O 0.11182 0.82931 0.44502   -0.605889
 O 0.90506 0.79476 0.5248   -0.61435
 O 0.615 0.87962 0.89641   -0.639482
 O 0.7 0.66397 0.91876   -0.606646
 O 0.88818 0.17069 0.94502   -0.605889
 O 0.09494 0.20524 0.0248   -0.61435
