{'_ref': 'TBD', '_srcid': 'CAKYAQ_clean', 'submitters': [{'name': 'Dalar Nazarian Jeff Camp and David Sholl', 'email': 'dalar@gatech.edu jcamp6@gatech.edu'}], '_method': 'VASP DFT with PBE;DDEC'}
data_CdH10C10(NO2)2
_symmetry_space_group_name_H-M   'P 1'
_cell_length_a   13.41500059
_cell_length_b   13.41499983
_cell_length_c   19.34471178
_cell_angle_alpha   110.28734848
_cell_angle_beta   110.28734869
_cell_angle_gamma   89.99999854
_symmetry_Int_Tables_number   1
_chemical_formula_structural   CdH10C10(NO2)2
_chemical_formula_sum   'Cd8 H80 C80 N16 O32'
_cell_volume   3034.06082588
_cell_formula_units_Z   8
loop_
 _symmetry_equiv_pos_site_id
 _symmetry_equiv_pos_as_xyz
  1  'x, y, z'
loop_
 _atom_site_label
 _atom_site_fract_x
 _atom_site_fract_y
 _atom_site_fract_z
 _atom_site_charge
 Cd 0.77844 0.95497 0.51036   0.957057
 Cd 0.73192 0.55539 0.51036   0.957151
 Cd 0.04503 0.26808 0.48964   0.957256
 Cd 0.44461 0.22156 0.48964   0.957357
 Cd 0.01808 0.29503 0.98964   0.957259
 Cd 0.97156 0.69461 0.98964   0.957359
 Cd 0.30539 0.98192 0.01036   0.957152
 Cd 0.70497 0.02844 0.01036   0.957057
 H 0.6992 0.3089 0.6012   0.141993
 H 0.7189 0.2755 0.6762   0.113481
 H 0.5485 0.3029 0.7258   0.107527
 H 0.5645 0.1878 0.6716   0.124703
 H 0.5094 0.4435 0.6554   0.122205
 H 0.592 0.4365 0.6116   0.086659
 H 0.7178 0.601 0.9188   0.098484
 H 0.5797 0.5065 0.8016   0.162095
 H 0.7841 0.4715 0.69   0.117105
 H 0.9227 0.5556 0.813   0.074845
 H 0.902 0.2923 0.6012   0.141315
 H 0.9573 0.4007 0.6762   0.112964
 H 0.1773 0.4229 0.7258   0.107663
 H 0.1071 0.4838 0.6716   0.124838
 H 0.146 0.2119 0.6554   0.122541
 H 0.0196 0.1751 0.6116   0.086087
 H 0.201 0.3178 0.9188   0.098644
 H 0.2219 0.2951 0.8016   0.16217
 H 0.9059 0.2185 0.69   0.117738
 H 0.8903 0.2574 0.813   0.074238
 H 0.6911 0.098 0.3988   0.142147
 H 0.7245 0.0427 0.3238   0.113235
 H 0.6971 0.8227 0.2742   0.107296
 H 0.8122 0.8929 0.3284   0.12433
 H 0.5565 0.854 0.3446   0.122393
 H 0.5635 0.9804 0.3884   0.086365
 H 0.399 0.799 0.0812   0.098483
 H 0.4935 0.7781 0.1984   0.161684
 H 0.5285 0.0941 0.31   0.116501
 H 0.4444 0.1097 0.187   0.074345
 H 0.7077 0.3008 0.3988   0.141594
 H 0.5993 0.2811 0.3238   0.113351
 H 0.5771 0.4515 0.2742   0.107651
 H 0.5162 0.4355 0.3284   0.124965
 H 0.7881 0.4906 0.3446   0.122608
 H 0.8249 0.408 0.3884   0.086465
 H 0.6822 0.2822 0.0812   0.098936
 H 0.7049 0.4203 0.1984   0.162043
 H 0.7815 0.2159 0.31   0.116773
 H 0.7426 0.0773 0.187   0.07428
 H 0.848 0.9411 0.8988   0.142147
 H 0.7927 0.9745 0.8238   0.113235
 H 0.5727 0.9471 0.7742   0.107297
 H 0.6429 0.0622 0.8284   0.124331
 H 0.604 0.8065 0.8446   0.122393
 H 0.7304 0.8135 0.8884   0.086365
 H 0.549 0.649 0.5812   0.098484
 H 0.5281 0.7435 0.6984   0.161684
 H 0.8441 0.7785 0.81   0.116501
 H 0.8597 0.6944 0.687   0.074345
 H 0.0508 0.9577 0.8988   0.141594
 H 0.0311 0.8493 0.8238   0.113352
 H 0.2015 0.8271 0.7742   0.107651
 H 0.1855 0.7662 0.8284   0.124966
 H 0.2406 0.0381 0.8446   0.122607
 H 0.158 0.0749 0.8884   0.086465
 H 0.0322 0.9322 0.5812   0.098937
 H 0.1703 0.9549 0.6984   0.162043
 H 0.9659 0.0315 0.81   0.116773
 H 0.8273 0.9926 0.687   0.07428
 H 0.0423 0.152 0.1012   0.141315
 H 0.1507 0.2073 0.1762   0.112964
 H 0.1729 0.4273 0.2258   0.107664
 H 0.2338 0.3571 0.1716   0.124839
 H 0.9619 0.396 0.1554   0.122541
 H 0.9251 0.2696 0.1116   0.086086
 H 0.0678 0.451 0.4188   0.098643
 H 0.0451 0.4719 0.3016   0.16217
 H 0.9685 0.1559 0.19   0.117738
 H 0.0074 0.1403 0.313   0.074238
 H 0.0589 0.9492 0.1012   0.141992
 H 0.0255 0.9689 0.1762   0.113481
 H 0.0529 0.7985 0.2258   0.107528
 H 0.9378 0.8145 0.1716   0.124704
 H 0.1935 0.7594 0.1554   0.122205
 H 0.1865 0.842 0.1116   0.086659
 H 0.351 0.9678 0.4188   0.098483
 H 0.2565 0.8297 0.3016   0.162095
 H 0.2215 0.0341 0.19   0.117105
 H 0.3056 0.1727 0.313   0.074845
 C 0.6682 0.2641 0.622   -0.289897
 C 0.65557 0.14817 0.57014   0.710578
 C 0.5277 0.2515 0.6706   -0.225924
 C 0.40087 0.21587 0.63354   0.672147
 C 0.57715 0.41685 0.6523   -0.1143
 C 0.73341 0.57101 0.87202   0.176071
 C 0.65005 0.51575 0.8017   -0.206072
 C 0.6672 0.4741 0.732   0.148845
 C 0.76845 0.49365 0.7369   -0.229826
 C 0.85146 0.54676 0.81112   0.152321
 C 0.9538 0.3579 0.622   -0.287371
 C 0.91457 0.42197 0.57014   0.70803
 C 0.1429 0.4191 0.6706   -0.226143
 C 0.23267 0.41767 0.63354   0.672383
 C 0.07515 0.23545 0.6523   -0.114399
 C 0.13861 0.30101 0.87202   0.175176
 C 0.15165 0.28595 0.8017   -0.20612
 C 0.0648 0.2579 0.732   0.14895
 C 0.96845 0.24325 0.7369   -0.230805
 C 0.95966 0.26436 0.81112   0.153562
 C 0.7359 0.0462 0.378   -0.289227
 C 0.85183 0.08543 0.42986   0.710093
 C 0.7485 0.8571 0.3294   -0.225327
 C 0.78413 0.76733 0.36646   0.672475
 C 0.58315 0.92485 0.3477   -0.115222
 C 0.42899 0.86139 0.12798   0.175396
 C 0.48425 0.84835 0.1983   -0.205282
 C 0.5259 0.9352 0.268   0.148513
 C 0.50635 0.03155 0.2631   -0.228436
 C 0.45324 0.04034 0.18888   0.152606
 C 0.6421 0.3318 0.378   -0.288926
 C 0.57803 0.34443 0.42986   0.71044
 C 0.5809 0.4723 0.3294   -0.226469
 C 0.58233 0.59913 0.36646   0.672708
 C 0.76455 0.42285 0.3477   -0.115567
 C 0.69899 0.26659 0.12798   0.17461
 C 0.71405 0.34995 0.1983   -0.205758
 C 0.7421 0.3328 0.268   0.148267
 C 0.75675 0.23155 0.2631   -0.228683
 C 0.73564 0.14854 0.18888   0.152715
 C 0.7962 0.9859 0.878   -0.289227
 C 0.83543 0.10183 0.92986   0.710093
 C 0.6071 0.9985 0.8294   -0.225327
 C 0.51733 0.03413 0.86646   0.672475
 C 0.67485 0.83315 0.8477   -0.115221
 C 0.61139 0.67899 0.62798   0.175396
 C 0.59835 0.73425 0.6983   -0.205281
 C 0.6852 0.7759 0.768   0.148514
 C 0.78155 0.75635 0.7631   -0.22844
 C 0.79034 0.70324 0.68888   0.152606
 C 0.0818 0.8921 0.878   -0.288926
 C 0.09443 0.82803 0.92986   0.710439
 C 0.2223 0.8309 0.8294   -0.226469
 C 0.34913 0.83233 0.86646   0.672708
 C 0.17285 0.01455 0.8477   -0.115566
 C 0.01659 0.94899 0.62798   0.17461
 C 0.09995 0.96405 0.6983   -0.205758
 C 0.0828 0.9921 0.768   0.148268
 C 0.98155 0.00675 0.7631   -0.228683
 C 0.89854 0.98564 0.68888   0.152715
 C 0.1079 0.2038 0.122   -0.287371
 C 0.17197 0.16457 0.07014   0.708031
 C 0.1691 0.3929 0.1706   -0.226146
 C 0.16767 0.48267 0.13354   0.672383
 C 0.98545 0.32515 0.1523   -0.114399
 C 0.05101 0.38861 0.37202   0.175173
 C 0.03595 0.40165 0.3017   -0.20612
 C 0.0079 0.3148 0.232   0.148951
 C 0.99325 0.21845 0.2369   -0.230807
 C 0.01436 0.20966 0.31112   0.153566
 C 0.0141 0.9182 0.122   -0.289897
 C 0.89817 0.90557 0.07014   0.710579
 C 0.0015 0.7777 0.1706   -0.225925
 C 0.96587 0.65087 0.13354   0.672149
 C 0.16685 0.82715 0.1523   -0.1143
 C 0.32101 0.98341 0.37202   0.176071
 C 0.26575 0.90005 0.3017   -0.206072
 C 0.2241 0.9172 0.232   0.148846
 C 0.24365 0.01845 0.2369   -0.229827
 C 0.29676 0.10146 0.31112   0.152321
 N 0.56137 0.29987 0.62594   -0.104988
 N 0.83434 0.58464 0.87788   -0.337558
 N 0.06457 0.32607 0.62594   -0.105289
 N 0.04354 0.29324 0.87788   -0.337062
 N 0.70013 0.93543 0.37406   -0.10423
 N 0.41536 0.95646 0.12212   -0.337224
 N 0.67393 0.43863 0.37406   -0.103936
 N 0.70676 0.16566 0.12212   -0.336618
 N 0.68543 0.95013 0.87406   -0.10423
 N 0.70646 0.66536 0.62212   -0.337224
 N 0.18863 0.92393 0.87406   -0.103937
 N 0.91566 0.95676 0.62212   -0.336618
 N 0.07607 0.31457 0.12594   -0.105289
 N 0.04324 0.29354 0.37788   -0.337061
 N 0.04987 0.81137 0.12594   -0.104988
 N 0.33464 0.08434 0.37788   -0.337557
 O 0.74049 0.10819 0.58478   -0.620113
 O 0.57459 0.10869 0.51298   -0.587425
 O 0.35617 0.18497 0.56114   -0.629551
 O 0.35584 0.20414 0.67868   -0.620722
 O 0.84429 0.47659 0.58478   -0.619058
 O 0.93839 0.40429 0.51298   -0.586444
 O 0.20497 0.37617 0.56114   -0.629166
 O 0.32284 0.47454 0.67868   -0.621437
 O 0.89181 0.15571 0.41522   -0.619952
 O 0.89131 0.06161 0.48702   -0.587467
 O 0.81503 0.79503 0.43886   -0.629317
 O 0.79586 0.67716 0.32132   -0.621327
 O 0.52341 0.25951 0.41522   -0.619918
 O 0.59571 0.42541 0.48702   -0.588066
 O 0.62383 0.64383 0.43886   -0.62981
 O 0.52546 0.64416 0.32132   -0.621015
 O 0.90571 0.14181 0.91522   -0.619953
 O 0.81161 0.14131 0.98702   -0.587467
 O 0.54503 0.06503 0.93886   -0.629317
 O 0.42716 0.04586 0.82132   -0.621327
 O 0.00951 0.77341 0.91522   -0.619919
 O 0.17541 0.84571 0.98702   -0.588066
 O 0.39383 0.87383 0.93886   -0.62981
 O 0.39416 0.77546 0.82132   -0.621015
 O 0.22659 0.09429 0.08478   -0.619058
 O 0.15429 0.18839 0.01298   -0.586444
 O 0.12617 0.45497 0.06114   -0.629166
 O 0.22454 0.57284 0.17868   -0.621437
 O 0.85819 0.99049 0.08478   -0.620113
 O 0.85869 0.82459 0.01298   -0.587426
 O 0.93497 0.60617 0.06114   -0.629553
 O 0.95414 0.60584 0.17868   -0.620722
