{'_ref': 'TBD', '_srcid': 'CAKYAQ_clean', 'submitters': [{'name': 'Dalar Nazarian Jeff Camp and David Sholl', 'email': 'dalar@gatech.edu jcamp6@gatech.edu'}], '_method': 'VASP DFT with PBE;DDEC'}
data_LaYH12(C4O5)3
_symmetry_space_group_name_H-M   'P 1'
_cell_length_a   9.18400000
_cell_length_b   9.18399973
_cell_length_c   17.81300000
_cell_angle_alpha   90.00000000
_cell_angle_beta   90.00000000
_cell_angle_gamma   120.00000096
_symmetry_Int_Tables_number   1
_chemical_formula_structural   LaYH12(C4O5)3
_chemical_formula_sum   'La2 Y2 H24 C24 O30'
_cell_volume   1301.16218426
_cell_formula_units_Z   2
loop_
 _symmetry_equiv_pos_site_id
 _symmetry_equiv_pos_as_xyz
  1  'x, y, z'
loop_
 _atom_site_label
 _atom_site_fract_x
 _atom_site_fract_y
 _atom_site_fract_z
 _atom_site_charge
 La 0.66667 0.33334 0.25   2.280728
 La 0.33333 0.66666 0.75   2.280728
 Y 0.0 0.0 0.0   1.780468
 Y 0.0 0.0 0.5   1.78047
 H 0.4257 0.4006 0.082   0.107404
 H 0.4897 0.3227 0.0237   0.085544
 H 0.9749 0.5743 0.082   0.107405
 H 0.833 0.5103 0.0237   0.085547
 H 0.5994 0.0251 0.082   0.107405
 H 0.6773 0.167 0.0237   0.085545
 H 0.4257 0.4006 0.418   0.107403
 H 0.4897 0.3227 0.4763   0.085544
 H 0.9749 0.5743 0.418   0.107405
 H 0.833 0.5103 0.4763   0.085547
 H 0.5994 0.0251 0.418   0.107405
 H 0.6773 0.167 0.4763   0.085545
 H 0.0251 0.5994 0.918   0.107406
 H 0.167 0.6773 0.9763   0.085546
 H 0.4006 0.4257 0.918   0.107407
 H 0.3227 0.4897 0.9763   0.085549
 H 0.5743 0.9749 0.918   0.107406
 H 0.5103 0.833 0.9763   0.085546
 H 0.0251 0.5994 0.582   0.107405
 H 0.167 0.6773 0.5237   0.085546
 H 0.4006 0.4257 0.582   0.107407
 H 0.3227 0.4897 0.5237   0.085549
 H 0.5743 0.9749 0.582   0.107406
 H 0.5103 0.833 0.5237   0.085546
 C 0.3402 0.1531 0.1046   0.766875
 C 0.3959 0.3045 0.0524   -0.092927
 C 0.8129 0.6598 0.1046   0.766892
 C 0.9086 0.6041 0.0524   -0.092932
 C 0.8469 0.1871 0.1046   0.766882
 C 0.6955 0.0914 0.0524   -0.092929
 C 0.3402 0.1531 0.3954   0.766875
 C 0.3959 0.3045 0.4476   -0.092927
 C 0.8129 0.6598 0.3954   0.766892
 C 0.9086 0.6041 0.4476   -0.092932
 C 0.8469 0.1871 0.3954   0.766882
 C 0.6955 0.0914 0.4476   -0.092929
 C 0.1871 0.8469 0.8954   0.766875
 C 0.0914 0.6955 0.9476   -0.092928
 C 0.1531 0.3402 0.8954   0.766893
 C 0.3045 0.3959 0.9476   -0.092934
 C 0.6598 0.8129 0.8954   0.766882
 C 0.6041 0.9086 0.9476   -0.09293
 C 0.1871 0.8469 0.6046   0.766875
 C 0.0914 0.6955 0.5524   -0.092928
 C 0.1531 0.3402 0.6046   0.766893
 C 0.3045 0.3959 0.5524   -0.092934
 C 0.6598 0.8129 0.6046   0.766882
 C 0.6041 0.9086 0.5524   -0.09293
 O 0.2009 0.0281 0.0915   -0.625068
 O 0.4379 0.171 0.156   -0.77321
 O 0.8272 0.7991 0.0915   -0.625063
 O 0.7331 0.5621 0.156   -0.773248
 O 0.9719 0.1728 0.0915   -0.625068
 O 0.829 0.2669 0.156   -0.773223
 O 0.2009 0.0281 0.4085   -0.625068
 O 0.4379 0.171 0.344   -0.77321
 O 0.8272 0.7991 0.4085   -0.625063
 O 0.7331 0.5621 0.344   -0.773248
 O 0.9719 0.1728 0.4085   -0.625068
 O 0.829 0.2669 0.344   -0.773223
 O 0.1728 0.9719 0.9085   -0.625068
 O 0.2669 0.829 0.844   -0.77321
 O 0.0281 0.2009 0.9085   -0.625063
 O 0.171 0.4379 0.844   -0.773248
 O 0.7991 0.8272 0.9085   -0.625068
 O 0.5621 0.7331 0.844   -0.773222
 O 0.1728 0.9719 0.5915   -0.625068
 O 0.2669 0.829 0.656   -0.77321
 O 0.0281 0.2009 0.5915   -0.625063
 O 0.171 0.4379 0.656   -0.773248
 O 0.7991 0.8272 0.5915   -0.625068
 O 0.5621 0.7331 0.656   -0.773222
 O 0.2663 0.2663 0.0   -0.290955
 O 0.0 0.7337 0.0   -0.290955
 O 0.7337 0.0 0.0   -0.290957
 O 0.2663 0.2663 0.5   -0.290955
 O 0.0 0.7337 0.5   -0.290955
 O 0.7337 0.0 0.5   -0.290957
