{'_ref': 'TBD', '_srcid': 'CAKYAQ_clean', 'submitters': [{'name': 'Dalar Nazarian Jeff Camp and David Sholl', 'email': 'dalar@gatech.edu jcamp6@gatech.edu'}], '_method': 'VASP DFT with PBE;DDEC'}
data_GdH2(CO)7
_symmetry_space_group_name_H-M   'P 1'
_cell_length_a   7.31730013
_cell_length_b   9.70220000
_cell_length_c   14.70830000
_cell_angle_alpha   90.00000000
_cell_angle_beta   99.52060354
_cell_angle_gamma   90.00000000
_symmetry_Int_Tables_number   1
_chemical_formula_structural   GdH2(CO)7
_chemical_formula_sum   'Gd4 H8 C28 O28'
_cell_volume   1029.81710394
_cell_formula_units_Z   4
loop_
 _symmetry_equiv_pos_site_id
 _symmetry_equiv_pos_as_xyz
  1  'x, y, z'
loop_
 _atom_site_label
 _atom_site_fract_x
 _atom_site_fract_y
 _atom_site_fract_z
 _atom_site_charge
 Gd 0.6362 0.44495 0.35744   2.212931
 Gd 0.8638 0.94495 0.14256   2.212931
 Gd 0.3638 0.55505 0.64256   2.212931
 Gd 0.1362 0.05505 0.85744   2.212931
 H 0.7225 0.953 0.6242   0.139795
 H 0.819 0.1651 0.5452   0.149864
 H 0.7775 0.453 0.8758   0.139795
 H 0.681 0.6651 0.9548   0.149864
 H 0.2775 0.047 0.3758   0.139795
 H 0.181 0.8349 0.4548   0.149864
 H 0.2225 0.547 0.1242   0.139795
 H 0.319 0.3349 0.0452   0.149864
 C 0.6057 0.7266 0.4966   0.796151
 C 0.6884 0.865 0.4966   0.021045
 C 0.7292 0.9621 0.5619   -0.13454
 C 0.784 0.0806 0.5178   -0.127771
 C 0.7757 0.0473 0.4281   -0.008208
 C 0.8121 0.1243 0.3472   0.770591
 C 0.9572 0.4649 0.5385   0.566144
 C 0.8943 0.2266 0.0034   0.796151
 C 0.8116 0.365 0.0034   0.021045
 C 0.7708 0.4621 0.9381   -0.13454
 C 0.716 0.5806 0.9822   -0.127771
 C 0.7243 0.5473 0.0719   -0.008208
 C 0.6879 0.6243 0.1528   0.770591
 C 0.5428 0.9649 0.9615   0.566144
 C 0.3943 0.2734 0.5034   0.796151
 C 0.3116 0.135 0.5034   0.021045
 C 0.2708 0.0379 0.4381   -0.13454
 C 0.216 0.9194 0.4822   -0.12777
 C 0.2243 0.9527 0.5719   -0.008207
 C 0.1879 0.8757 0.6528   0.770591
 C 0.0428 0.5351 0.4615   0.566145
 C 0.1057 0.7734 0.9966   0.796151
 C 0.1884 0.635 0.9966   0.021045
 C 0.2292 0.5379 0.0619   -0.13454
 C 0.284 0.4194 0.0178   -0.12777
 C 0.2757 0.4527 0.9281   -0.008207
 C 0.3121 0.3757 0.8472   0.770591
 C 0.4572 0.0351 0.0385   0.566145
 O 0.7928 0.4243 0.5178   -0.646061
 O 0.5877 0.6595 0.4232   -0.739024
 O 0.5615 0.6882 0.5712   -0.785709
 O 0.7168 0.9143 0.4131   -0.090234
 O 0.8358 0.2529 0.3567   -0.733854
 O 0.8216 0.06 0.2749   -0.7711
 O 0.0575 0.4537 0.6159   -0.620021
 O 0.7072 0.9243 0.9822   -0.646061
 O 0.9123 0.1595 0.0768   -0.739024
 O 0.9385 0.1882 0.9288   -0.785709
 O 0.7832 0.4143 0.0869   -0.090234
 O 0.6642 0.7529 0.1433   -0.733854
 O 0.6784 0.56 0.2251   -0.7711
 O 0.4425 0.9537 0.8841   -0.620021
 O 0.2072 0.5757 0.4822   -0.646061
 O 0.4123 0.3405 0.5768   -0.739024
 O 0.4385 0.3118 0.4288   -0.785709
 O 0.2832 0.0857 0.5869   -0.090234
 O 0.1642 0.7471 0.6433   -0.733854
 O 0.1784 0.94 0.7251   -0.7711
 O 0.9425 0.5463 0.3841   -0.620021
 O 0.2928 0.0757 0.0178   -0.646061
 O 0.0877 0.8405 0.9232   -0.739024
 O 0.0615 0.8118 0.0712   -0.785709
 O 0.2168 0.5857 0.9131   -0.090234
 O 0.3358 0.2471 0.8567   -0.733854
 O 0.3216 0.44 0.7749   -0.7711
 O 0.5575 0.0463 0.1159   -0.620021
