{'_ref': 'TBD', '_srcid': 'CAKYAQ_clean', 'submitters': [{'name': 'Dalar Nazarian Jeff Camp and David Sholl', 'email': 'dalar@gatech.edu jcamp6@gatech.edu'}], '_method': 'VASP DFT with PBE;DDEC'}
data_Zn4H12C24O13
_symmetry_space_group_name_H-M   'P 1'
_cell_length_a   18.30139972
_cell_length_b   18.30140036
_cell_length_c   18.30140000
_cell_angle_alpha   60.00000064
_cell_angle_beta   59.99999949
_cell_angle_gamma   60.00000081
_symmetry_Int_Tables_number   1
_chemical_formula_structural   Zn4H12C24O13
_chemical_formula_sum   'Zn8 H24 C48 O26'
_cell_volume   4334.48941337
_cell_formula_units_Z   2
loop_
 _symmetry_equiv_pos_site_id
 _symmetry_equiv_pos_as_xyz
  1  'x, y, z'
loop_
 _atom_site_label
 _atom_site_fract_x
 _atom_site_fract_y
 _atom_site_fract_z
 _atom_site_charge
 Zn 0.2064 0.3808 0.2064   1.126256
 Zn 0.3808 0.2064 0.2064   1.126256
 Zn 0.2064 0.2064 0.2064   1.126255
 Zn 0.2064 0.2064 0.3808   1.126256
 Zn 0.6192 0.7936 0.7936   1.126256
 Zn 0.7936 0.6192 0.7936   1.126256
 Zn 0.7936 0.7936 0.7936   1.126255
 Zn 0.7936 0.7936 0.6192   1.126256
 H 0.0485 0.5657 0.0485   0.11619
 H 0.5657 0.0485 0.3373   0.11619
 H 0.0485 0.3373 0.0485   0.11619
 H 0.3373 0.0485 0.5657   0.11619
 H 0.0485 0.0485 0.3373   0.116189
 H 0.5657 0.3373 0.0485   0.116189
 H 0.0485 0.0485 0.5657   0.116189
 H 0.3373 0.5657 0.0485   0.116189
 H 0.0485 0.3373 0.5657   0.116189
 H 0.5657 0.0485 0.0485   0.116189
 H 0.0485 0.5657 0.3373   0.116189
 H 0.3373 0.0485 0.0485   0.116189
 H 0.4343 0.9515 0.9515   0.116186
 H 0.9515 0.4343 0.6627   0.116186
 H 0.6627 0.9515 0.9515   0.116186
 H 0.9515 0.6627 0.4343   0.116186
 H 0.9515 0.9515 0.6627   0.116186
 H 0.6627 0.4343 0.9515   0.116186
 H 0.9515 0.9515 0.4343   0.116186
 H 0.4343 0.6627 0.9515   0.116186
 H 0.6627 0.9515 0.4343   0.116185
 H 0.9515 0.4343 0.9515   0.116185
 H 0.4343 0.9515 0.6627   0.116185
 H 0.9515 0.6627 0.9515   0.116185
 C 0.0264 0.5392 0.0264   -0.068314
 C 0.5392 0.0264 0.408   -0.068314
 C 0.0264 0.408 0.0264   -0.068314
 C 0.408 0.0264 0.5392   -0.068314
 C 0.0264 0.0264 0.408   -0.068314
 C 0.5392 0.408 0.0264   -0.068314
 C 0.0264 0.0264 0.5392   -0.068314
 C 0.408 0.5392 0.0264   -0.068314
 C 0.0264 0.408 0.5392   -0.068314
 C 0.5392 0.0264 0.0264   -0.068314
 C 0.0264 0.5392 0.408   -0.068314
 C 0.408 0.0264 0.0264   -0.068314
 C 0.4608 0.9736 0.9736   -0.068299
 C 0.9736 0.4608 0.592   -0.068299
 C 0.592 0.9736 0.9736   -0.068299
 C 0.9736 0.592 0.4608   -0.068299
 C 0.9736 0.9736 0.592   -0.068299
 C 0.592 0.4608 0.9736   -0.068299
 C 0.9736 0.9736 0.4608   -0.068299
 C 0.4608 0.592 0.9736   -0.068299
 C 0.592 0.9736 0.4608   -0.068299
 C 0.9736 0.4608 0.9736   -0.068299
 C 0.4608 0.9736 0.592   -0.068299
 C 0.9736 0.592 0.9736   -0.068299
 C 0.1105 0.3895 0.1105   0.712343
 C 0.0543 0.4457 0.0543   -0.103784
 C 0.3895 0.1105 0.3895   0.712343
 C 0.4457 0.0543 0.4457   -0.103783
 C 0.1105 0.1105 0.3895   0.712343
 C 0.0543 0.0543 0.4457   -0.103784
 C 0.3895 0.3895 0.1105   0.712343
 C 0.4457 0.4457 0.0543   -0.103783
 C 0.1105 0.3895 0.3895   0.712343
 C 0.0543 0.4457 0.4457   -0.103783
 C 0.3895 0.1105 0.1105   0.712343
 C 0.4457 0.0543 0.0543   -0.103784
 C 0.6105 0.8895 0.8895   0.712344
 C 0.5543 0.9457 0.9457   -0.10379
 C 0.8895 0.6105 0.6105   0.712343
 C 0.9457 0.5543 0.5543   -0.103789
 C 0.8895 0.8895 0.6105   0.712344
 C 0.9457 0.9457 0.5543   -0.10379
 C 0.6105 0.6105 0.8895   0.712344
 C 0.5543 0.5543 0.9457   -0.103789
 C 0.6105 0.8895 0.6105   0.712344
 C 0.5543 0.9457 0.5543   -0.103789
 C 0.8895 0.6105 0.8895   0.712344
 C 0.9457 0.5543 0.9457   -0.10379
 O 0.25 0.25 0.25   -1.275682
 O 0.75 0.75 0.75   -1.275682
 O 0.1333 0.4283 0.1333   -0.621271
 O 0.4283 0.1333 0.3051   -0.621271
 O 0.1333 0.3051 0.1333   -0.62127
 O 0.3051 0.1333 0.4283   -0.621271
 O 0.1333 0.1333 0.3051   -0.62127
 O 0.4283 0.3051 0.1333   -0.621271
 O 0.1333 0.1333 0.4283   -0.621271
 O 0.3051 0.4283 0.1333   -0.621271
 O 0.1333 0.3051 0.4283   -0.621271
 O 0.4283 0.1333 0.1333   -0.621271
 O 0.1333 0.4283 0.3051   -0.621271
 O 0.3051 0.1333 0.1333   -0.62127
 O 0.5717 0.8667 0.8667   -0.621271
 O 0.8667 0.5717 0.6949   -0.621271
 O 0.6949 0.8667 0.8667   -0.62127
 O 0.8667 0.6949 0.5717   -0.621271
 O 0.8667 0.8667 0.6949   -0.62127
 O 0.6949 0.5717 0.8667   -0.621271
 O 0.8667 0.8667 0.5717   -0.621271
 O 0.5717 0.6949 0.8667   -0.621271
 O 0.6949 0.8667 0.5717   -0.621271
 O 0.8667 0.5717 0.8667   -0.621272
 O 0.5717 0.8667 0.6949   -0.621271
 O 0.8667 0.6949 0.8667   -0.62127
