{'_ref': 'TBD', '_srcid': 'CAKYAQ_clean', 'submitters': [{'name': 'Dalar Nazarian Jeff Camp and David Sholl', 'email': 'dalar@gatech.edu jcamp6@gatech.edu'}], '_method': 'VASP DFT with PBE;DDEC'}
data_NiH12C24(NO2)6
_symmetry_space_group_name_H-M   'P 1'
_cell_length_a   11.33730000
_cell_length_b   11.33730045
_cell_length_c   30.74600000
_cell_angle_alpha   90.00000000
_cell_angle_beta   90.00000000
_cell_angle_gamma   118.54299907
_symmetry_Int_Tables_number   1
_chemical_formula_structural   NiH12C24(NO2)6
_chemical_formula_sum   'Ni4 H48 C96 N24 O48'
_cell_volume   3471.59696674
_cell_formula_units_Z   4
loop_
 _symmetry_equiv_pos_site_id
 _symmetry_equiv_pos_as_xyz
  1  'x, y, z'
loop_
 _atom_site_label
 _atom_site_fract_x
 _atom_site_fract_y
 _atom_site_fract_z
 _atom_site_charge
 Ni 0.68661 0.23365 0.57295   0.659472
 Ni 0.73365 0.18661 0.07295   0.659472
 Ni 0.23365 0.68661 0.42705   0.659472
 Ni 0.18661 0.73365 0.92705   0.659472
 H 0.382 0.12 0.7267   0.118762
 H 0.778 0.2714 0.7071   0.125594
 H 0.7026 0.4538 0.9283   0.125201
 H 0.713 0.1064 0.9328   0.130653
 H 0.5357 0.3687 0.6136   0.095622
 H 0.5319 0.5655 0.6157   0.145363
 H 0.8506 0.7194 0.5367   0.106983
 H 0.8453 0.5147 0.5362   0.091559
 H 0.8666 0.9102 0.5453   0.135448
 H 0.8589 0.1079 0.5451   0.092417
 H 0.513 0.943 0.6035   0.084299
 H 0.5085 0.7397 0.6045   0.13206
 H 0.62 0.882 0.2267   0.118761
 H 0.7714 0.278 0.2071   0.125594
 H 0.9538 0.2026 0.4283   0.125201
 H 0.6064 0.213 0.4328   0.130653
 H 0.8687 0.0357 0.1136   0.095622
 H 0.0655 0.0319 0.1157   0.145363
 H 0.2194 0.3506 0.0367   0.106983
 H 0.0147 0.3453 0.0362   0.091559
 H 0.4102 0.3666 0.0453   0.135448
 H 0.6079 0.3589 0.0451   0.092417
 H 0.443 0.013 0.1035   0.084299
 H 0.2397 0.0085 0.1045   0.132059
 H 0.12 0.382 0.2733   0.118761
 H 0.2714 0.778 0.2929   0.125594
 H 0.4538 0.7026 0.0717   0.1252
 H 0.1064 0.713 0.0672   0.130653
 H 0.3687 0.5357 0.3864   0.095622
 H 0.5655 0.5319 0.3843   0.145363
 H 0.7194 0.8506 0.4633   0.106983
 H 0.5147 0.8453 0.4638   0.091559
 H 0.9102 0.8666 0.4547   0.135449
 H 0.1079 0.8589 0.4549   0.092417
 H 0.943 0.513 0.3965   0.084299
 H 0.7397 0.5085 0.3955   0.132059
 H 0.882 0.62 0.7733   0.118762
 H 0.278 0.7714 0.7929   0.125594
 H 0.2026 0.9538 0.5717   0.1252
 H 0.213 0.6064 0.5672   0.130653
 H 0.0357 0.8687 0.8864   0.095622
 H 0.0319 0.0655 0.8843   0.145363
 H 0.3506 0.2194 0.9633   0.106983
 H 0.3453 0.0147 0.9638   0.091559
 H 0.3666 0.4102 0.9547   0.135449
 H 0.3589 0.6079 0.9549   0.092417
 H 0.013 0.443 0.8965   0.084299
 H 0.0085 0.2397 0.8955   0.13206
 C 0.5534 0.173 0.66122   0.635742
 C 0.5761 0.1921 0.70981   -0.087278
 C 0.4689 0.1549 0.73751   0.003558
 C 0.4937 0.1711 0.78262   -0.031576
 C 0.6226 0.2236 0.80053   0.048262
 C 0.7257 0.2587 0.7702   -0.040307
 C 0.7056 0.2452 0.72597   -0.002062
 C 0.6468 0.243 0.8488   0.025318
 C 0.6607 0.3541 0.87046   -0.01105
 C 0.6961 0.3777 0.91474   -0.028936
 C 0.7211 0.2873 0.93808   -0.087094
 C 0.7029 0.1715 0.91737   -0.048861
 C 0.6697 0.1529 0.8738   -0.032074
 C 0.7672 0.3142 0.98446   0.628964
 C 0.5992 0.44 0.5973   0.174158
 C 0.5961 0.5581 0.5988   -0.160952
 C 0.6882 0.6682 0.5751   0.092871
 C 0.7838 0.6484 0.5521   -0.180391
 C 0.7807 0.5247 0.5521   0.15669
 C 0.6873 0.7997 0.57544   0.098162
 C 0.7931 0.9139 0.5572   -0.183089
 C 0.7871 0.0325 0.5571   0.161688
 C 0.5844 0.936 0.5912   0.175444
 C 0.5817 0.8135 0.5923   -0.167526
 C 0.673 0.0534 0.16122   0.635742
 C 0.6921 0.0761 0.20981   -0.087278
 C 0.6549 0.9689 0.23751   0.003558
 C 0.6711 0.9937 0.28262   -0.031576
 C 0.7236 0.1226 0.30053   0.048264
 C 0.7587 0.2257 0.2702   -0.040308
 C 0.7452 0.2056 0.22597   -0.002062
 C 0.743 0.1468 0.3488   0.025311
 C 0.8541 0.1607 0.37046   -0.011047
 C 0.8777 0.1961 0.41474   -0.028937
 C 0.7873 0.2211 0.43808   -0.087094
 C 0.6715 0.2029 0.41737   -0.048863
 C 0.6529 0.1697 0.3738   -0.03207
 C 0.8142 0.2672 0.48446   0.628964
 C 0.94 0.0992 0.0973   0.174158
 C 0.0581 0.0961 0.0988   -0.160952
 C 0.1682 0.1882 0.0751   0.092871
 C 0.1484 0.2838 0.0521   -0.180391
 C 0.0247 0.2807 0.0521   0.15669
 C 0.2997 0.1873 0.07544   0.098162
 C 0.4139 0.2931 0.0572   -0.183089
 C 0.5325 0.2871 0.0571   0.161688
 C 0.436 0.0844 0.0912   0.175442
 C 0.3135 0.0817 0.0923   -0.167525
 C 0.173 0.5534 0.33878   0.635742
 C 0.1921 0.5761 0.29019   -0.087278
 C 0.1549 0.4689 0.26249   0.003558
 C 0.1711 0.4937 0.21738   -0.031576
 C 0.2236 0.6226 0.19947   0.048264
 C 0.2587 0.7257 0.2298   -0.040308
 C 0.2452 0.7056 0.27403   -0.002062
 C 0.243 0.6468 0.1512   0.025311
 C 0.3541 0.6607 0.12954   -0.011047
 C 0.3777 0.6961 0.08526   -0.028937
 C 0.2873 0.7211 0.06192   -0.087094
 C 0.1715 0.7029 0.08263   -0.048863
 C 0.1529 0.6697 0.1262   -0.03207
 C 0.3142 0.7672 0.01554   0.628964
 C 0.44 0.5992 0.4027   0.174158
 C 0.5581 0.5961 0.4012   -0.160952
 C 0.6682 0.6882 0.4249   0.092872
 C 0.6484 0.7838 0.4479   -0.18039
 C 0.5247 0.7807 0.4479   0.156691
 C 0.7997 0.6873 0.42456   0.098162
 C 0.9139 0.7931 0.4428   -0.183089
 C 0.0325 0.7871 0.4429   0.161688
 C 0.936 0.5844 0.4088   0.175442
 C 0.8135 0.5817 0.4077   -0.167525
 C 0.0534 0.673 0.83878   0.635742
 C 0.0761 0.6921 0.79019   -0.087278
 C 0.9689 0.6549 0.76249   0.003558
 C 0.9937 0.6711 0.71738   -0.031576
 C 0.1226 0.7236 0.69947   0.048262
 C 0.2257 0.7587 0.7298   -0.040307
 C 0.2056 0.7452 0.77403   -0.002062
 C 0.1468 0.743 0.6512   0.025318
 C 0.1607 0.8541 0.62954   -0.01105
 C 0.1961 0.8777 0.58526   -0.028936
 C 0.2211 0.7873 0.56192   -0.087094
 C 0.2029 0.6715 0.58263   -0.048861
 C 0.1697 0.6529 0.6262   -0.032073
 C 0.2672 0.8142 0.51554   0.628964
 C 0.0992 0.94 0.9027   0.174158
 C 0.0961 0.0581 0.9012   -0.160952
 C 0.1882 0.1682 0.9249   0.092872
 C 0.2838 0.1484 0.9479   -0.18039
 C 0.2807 0.0247 0.9479   0.156691
 C 0.1873 0.2997 0.92456   0.098162
 C 0.2931 0.4139 0.9428   -0.183089
 C 0.2871 0.5325 0.9429   0.161688
 C 0.0844 0.436 0.9088   0.175444
 C 0.0817 0.3135 0.9077   -0.167526
 N 0.8669 0.3093 0.7843   0.635331
 N 0.3745 0.1299 0.8103   0.60331
 N 0.6408 0.4596 0.8478   0.617741
 N 0.6678 0.031 0.8542   0.589368
 N 0.6882 0.419 0.57394   -0.275596
 N 0.6842 0.0458 0.57324   -0.263245
 N 0.8093 0.3669 0.2843   0.635331
 N 0.6299 0.8745 0.3103   0.60331
 N 0.9596 0.1408 0.3478   0.617741
 N 0.531 0.1678 0.3542   0.589368
 N 0.919 0.1882 0.07394   -0.275596
 N 0.5458 0.1842 0.07324   -0.263243
 N 0.3093 0.8669 0.2157   0.635331
 N 0.1299 0.3745 0.1897   0.60331
 N 0.4596 0.6408 0.1522   0.617741
 N 0.031 0.6678 0.1458   0.589368
 N 0.419 0.6882 0.42606   -0.275596
 N 0.0458 0.6842 0.42676   -0.263243
 N 0.3669 0.8093 0.7157   0.635331
 N 0.8745 0.6299 0.6897   0.60331
 N 0.1408 0.9596 0.6522   0.617741
 N 0.1678 0.531 0.6458   0.589368
 N 0.1882 0.919 0.92606   -0.275596
 N 0.1842 0.5458 0.92676   -0.263245
 O 0.6589 0.2183 0.63812   -0.54338
 O 0.4348 0.117 0.64779   -0.582962
 O 0.8274 0.4336 0.99693   -0.588813
 O 0.741 0.2124 0.00692   -0.543486
 O 0.8929 0.2837 0.819   -0.370178
 O 0.9549 0.3793 0.7598   -0.358776
 O 0.2657 0.0443 0.7969   -0.336889
 O 0.3855 0.1973 0.8428   -0.37222
 O 0.6503 0.4681 0.80896   -0.338647
 O 0.6162 0.5324 0.8705   -0.360704
 O 0.5986 0.9844 0.8222   -0.332123
 O 0.7368 0.9854 0.8703   -0.361823
 O 0.7183 0.1589 0.13812   -0.54338
 O 0.617 0.9348 0.14779   -0.582962
 O 0.9336 0.3274 0.49693   -0.588813
 O 0.7124 0.241 0.50692   -0.543486
 O 0.7837 0.3929 0.319   -0.370178
 O 0.8793 0.4549 0.2598   -0.358776
 O 0.5443 0.7657 0.2969   -0.336889
 O 0.6973 0.8855 0.3428   -0.37222
 O 0.9681 0.1503 0.30896   -0.338647
 O 0.0324 0.1162 0.3705   -0.360704
 O 0.4844 0.0986 0.3222   -0.332123
 O 0.4854 0.2368 0.3703   -0.361823
 O 0.2183 0.6589 0.36188   -0.54338
 O 0.117 0.4348 0.35221   -0.582962
 O 0.4336 0.8274 0.00307   -0.588813
 O 0.2124 0.741 0.99308   -0.543486
 O 0.2837 0.8929 0.181   -0.370178
 O 0.3793 0.9549 0.2402   -0.358777
 O 0.0443 0.2657 0.2031   -0.336889
 O 0.1973 0.3855 0.1572   -0.37222
 O 0.4681 0.6503 0.19104   -0.338648
 O 0.5324 0.6162 0.1295   -0.360704
 O 0.9844 0.5986 0.1778   -0.332123
 O 0.9854 0.7368 0.1297   -0.361823
 O 0.1589 0.7183 0.86188   -0.54338
 O 0.9348 0.617 0.85221   -0.582962
 O 0.3274 0.9336 0.50307   -0.588813
 O 0.241 0.7124 0.49308   -0.543486
 O 0.3929 0.7837 0.681   -0.370178
 O 0.4549 0.8793 0.7402   -0.358777
 O 0.7657 0.5443 0.7031   -0.336889
 O 0.8855 0.6973 0.6572   -0.37222
 O 0.1503 0.9681 0.69104   -0.338648
 O 0.1162 0.0324 0.6295   -0.360704
 O 0.0986 0.4844 0.6778   -0.332123
 O 0.2368 0.4854 0.6297   -0.361823
