{'_ref': 'TBD', '_srcid': 'CAKYAQ_clean', 'submitters': [{'name': 'Dalar Nazarian Jeff Camp and David Sholl', 'email': 'dalar@gatech.edu jcamp6@gatech.edu'}], '_method': 'VASP DFT with PBE;DDEC'}
data_Co2H18C24N4O9
_symmetry_space_group_name_H-M   'P 1'
_cell_length_a   11.43980000
_cell_length_b   13.29550000
_cell_length_c   26.24830000
_cell_angle_alpha   90.00000000
_cell_angle_beta   90.00000000
_cell_angle_gamma   90.00000000
_symmetry_Int_Tables_number   1
_chemical_formula_structural   Co2H18C24N4O9
_chemical_formula_sum   'Co8 H72 C96 N16 O36'
_cell_volume   3992.31028226
_cell_formula_units_Z   4
loop_
 _symmetry_equiv_pos_site_id
 _symmetry_equiv_pos_as_xyz
  1  'x, y, z'
loop_
 _atom_site_label
 _atom_site_fract_x
 _atom_site_fract_y
 _atom_site_fract_z
 _atom_site_charge
 Co 0.57416 0.44224 0.13705   0.973147
 Co 0.31797 0.56246 0.08   0.982251
 Co 0.92584 0.55776 0.63705   0.973147
 Co 0.18203 0.43754 0.58   0.982251
 Co 0.42584 0.94224 0.36295   0.973147
 Co 0.68203 0.06246 0.42   0.982251
 Co 0.07416 0.05776 0.86295   0.973147
 Co 0.81797 0.93754 0.92   0.982251
 H 0.3442 0.4089 0.1441   0.426476
 H 0.3837 0.3715 0.0901   0.420712
 H 0.7652 0.605 0.1498   0.078037
 H 0.9655 0.6209 0.1463   0.125785
 H 0.9901 0.3247 0.1685   0.132368
 H 0.7886 0.3159 0.166   0.078829
 H 0.8682 0.0836 0.0104   0.080597
 H 0.7825 0.2061 0.0593   0.123018
 H 0.475 0.1314 0.9986   0.1287
 H 0.5675 0.0068 0.9538   0.066197
 H 0.3652 0.818 0.1827   0.133344
 H 0.3668 0.9275 0.2498   0.078123
 H 0.531 0.7349 0.3346   0.078144
 H 0.5423 0.6218 0.2695   0.129716
 H 0.7566 0.6826 0.0603   0.118597
 H 0.8414 0.8118 0.0165   0.065767
 H 0.6261 0.7753 0.9037   0.078836
 H 0.5262 0.6549 0.9474   0.127935
 H 0.1558 0.5911 0.6441   0.426476
 H 0.1163 0.6285 0.5901   0.420712
 H 0.7348 0.395 0.6498   0.078037
 H 0.5345 0.3791 0.6463   0.125785
 H 0.5099 0.6753 0.6685   0.132368
 H 0.7114 0.6841 0.666   0.078829
 H 0.6318 0.9164 0.5104   0.080597
 H 0.7175 0.7939 0.5593   0.123018
 H 0.025 0.8686 0.4986   0.1287
 H 0.9325 0.9932 0.4538   0.066197
 H 0.1348 0.182 0.6827   0.133344
 H 0.1332 0.0725 0.7498   0.078123
 H 0.969 0.2651 0.8346   0.078144
 H 0.9577 0.3782 0.7695   0.129716
 H 0.7434 0.3174 0.5603   0.118597
 H 0.6586 0.1882 0.5165   0.065767
 H 0.8739 0.2247 0.4037   0.078836
 H 0.9738 0.3451 0.4474   0.127935
 H 0.6558 0.9089 0.3559   0.426476
 H 0.6163 0.8715 0.4099   0.420712
 H 0.2348 0.105 0.3502   0.078037
 H 0.0345 0.1209 0.3537   0.125784
 H 0.0099 0.8247 0.3315   0.132368
 H 0.2114 0.8159 0.334   0.078829
 H 0.1318 0.5836 0.4896   0.080597
 H 0.2175 0.7061 0.4407   0.123018
 H 0.525 0.6314 0.5014   0.1287
 H 0.4325 0.5068 0.5462   0.066197
 H 0.6348 0.318 0.3173   0.133345
 H 0.6332 0.4275 0.2502   0.078123
 H 0.469 0.2349 0.1654   0.078144
 H 0.4577 0.1218 0.2305   0.129716
 H 0.2434 0.1826 0.4397   0.118597
 H 0.1586 0.3118 0.4835   0.065767
 H 0.3739 0.2753 0.5963   0.078835
 H 0.4738 0.1549 0.5526   0.127933
 H 0.8442 0.0911 0.8559   0.426476
 H 0.8837 0.1285 0.9099   0.420712
 H 0.2652 0.895 0.8502   0.078037
 H 0.4655 0.8791 0.8537   0.125784
 H 0.4901 0.1753 0.8315   0.132368
 H 0.2886 0.1841 0.834   0.078829
 H 0.3682 0.4164 0.9896   0.080597
 H 0.2825 0.2939 0.9407   0.123018
 H 0.975 0.3686 0.0014   0.1287
 H 0.0675 0.4932 0.0462   0.066197
 H 0.8652 0.682 0.8173   0.133345
 H 0.8668 0.5725 0.7502   0.078123
 H 0.031 0.7651 0.6654   0.078144
 H 0.0423 0.8782 0.7305   0.129716
 H 0.2566 0.8174 0.9397   0.118597
 H 0.3414 0.6882 0.9835   0.065767
 H 0.1261 0.7247 0.0963   0.078835
 H 0.0262 0.8451 0.0526   0.127933
 C 0.8111 0.5473 0.15184   0.158002
 C 0.9316 0.5578 0.15035   -0.168214
 C 0.0002 0.4734 0.15491   -0.015264
 C 0.9462 0.3824 0.16281   -0.157307
 C 0.8246 0.3781 0.16209   0.149503
 C 0.1334 0.4773 0.14878   0.644542
 C 0.7879 0.0933 0.00786   0.169628
 C 0.7368 0.1674 0.03747   -0.142537
 C 0.618 0.1837 0.03443   -0.026767
 C 0.5553 0.1228 0.00195   -0.151845
 C 0.6119 0.049 0.97443   0.15393
 C 0.5572 0.2647 0.06474   0.656388
 C 0.4607 0.6329 0.1742   0.666888
 C 0.4544 0.7069 0.2178   -0.023519
 C 0.4009 0.7997 0.21312   -0.154871
 C 0.4011 0.8646 0.25392   0.150371
 C 0.4982 0.7522 0.30339   0.16381
 C 0.5048 0.6832 0.26462   -0.153139
 C 0.562 0.5806 0.04197   0.657426
 C 0.6277 0.6563 0.00987   -0.009865
 C 0.7258 0.7027 0.0291   -0.155486
 C 0.7779 0.7788 0.00198   0.156071
 C 0.6508 0.7588 0.9364   0.163362
 C 0.5912 0.6852 0.96216   -0.169997
 C 0.6889 0.4527 0.65184   0.158002
 C 0.5684 0.4422 0.65035   -0.168214
 C 0.4998 0.5266 0.65491   -0.015264
 C 0.5538 0.6176 0.66281   -0.157307
 C 0.6754 0.6219 0.66209   0.149503
 C 0.3666 0.5227 0.64878   0.644542
 C 0.7121 0.9067 0.50786   0.169628
 C 0.7632 0.8326 0.53747   -0.142537
 C 0.882 0.8163 0.53443   -0.026767
 C 0.9447 0.8772 0.50195   -0.151845
 C 0.8881 0.951 0.47443   0.15393
 C 0.9428 0.7353 0.56474   0.656388
 C 0.0393 0.3671 0.6742   0.666888
 C 0.0456 0.2931 0.7178   -0.023519
 C 0.0991 0.2003 0.71312   -0.154871
 C 0.0989 0.1354 0.75392   0.150371
 C 0.0018 0.2478 0.80339   0.16381
 C 0.9952 0.3168 0.76462   -0.153139
 C 0.938 0.4194 0.54197   0.657426
 C 0.8723 0.3437 0.50987   -0.009865
 C 0.7742 0.2973 0.5291   -0.155486
 C 0.7221 0.2212 0.50198   0.156071
 C 0.8492 0.2412 0.4364   0.163362
 C 0.9088 0.3148 0.46216   -0.169997
 C 0.1889 0.0473 0.34816   0.158001
 C 0.0684 0.0578 0.34965   -0.168214
 C 0.9998 0.9734 0.34509   -0.015265
 C 0.0538 0.8824 0.33719   -0.157307
 C 0.1754 0.8781 0.33791   0.149503
 C 0.8666 0.9773 0.35122   0.644542
 C 0.2121 0.5933 0.49214   0.169628
 C 0.2632 0.6674 0.46253   -0.142537
 C 0.382 0.6837 0.46557   -0.026767
 C 0.4447 0.6228 0.49805   -0.151844
 C 0.3881 0.549 0.52557   0.153931
 C 0.4428 0.7647 0.43526   0.656388
 C 0.5393 0.1329 0.3258   0.666888
 C 0.5456 0.2069 0.2822   -0.023519
 C 0.5991 0.2997 0.28688   -0.154871
 C 0.5989 0.3646 0.24608   0.150371
 C 0.5018 0.2522 0.19661   0.16381
 C 0.4952 0.1832 0.23538   -0.153138
 C 0.438 0.0806 0.45803   0.657426
 C 0.3723 0.1563 0.49013   -0.009865
 C 0.2742 0.2027 0.4709   -0.155486
 C 0.2221 0.2788 0.49802   0.156072
 C 0.3492 0.2588 0.5636   0.163363
 C 0.4088 0.1852 0.53784   -0.169997
 C 0.3111 0.9527 0.84816   0.158001
 C 0.4316 0.9422 0.84965   -0.168214
 C 0.5002 0.0266 0.84509   -0.015265
 C 0.4462 0.1176 0.83719   -0.157307
 C 0.3246 0.1219 0.83791   0.149503
 C 0.6334 0.0227 0.85122   0.644542
 C 0.2879 0.4067 0.99214   0.169628
 C 0.2368 0.3326 0.96253   -0.142537
 C 0.118 0.3163 0.96557   -0.026767
 C 0.0553 0.3772 0.99805   -0.151844
 C 0.1119 0.451 0.02557   0.153931
 C 0.0572 0.2353 0.93526   0.656388
 C 0.9607 0.8671 0.8258   0.666888
 C 0.9544 0.7931 0.7822   -0.023519
 C 0.9009 0.7003 0.78688   -0.154871
 C 0.9011 0.6354 0.74608   0.150371
 C 0.9982 0.7478 0.69661   0.16381
 C 0.0048 0.8168 0.73538   -0.153138
 C 0.062 0.9194 0.95803   0.657426
 C 0.1277 0.8437 0.99013   -0.009865
 C 0.2258 0.7973 0.9709   -0.155486
 C 0.2779 0.7212 0.99802   0.156072
 C 0.1508 0.7412 0.0636   0.163363
 C 0.0912 0.8148 0.03784   -0.169997
 N 0.7579 0.4588 0.15609   -0.336556
 N 0.7276 0.0354 0.97599   -0.366441
 N 0.7419 0.808 0.95557   -0.337779
 N 0.448 0.84221 0.29945   -0.362887
 N 0.7421 0.5412 0.65609   -0.336556
 N 0.7724 0.9646 0.47599   -0.366441
 N 0.7581 0.192 0.45557   -0.337779
 N 0.052 0.15779 0.79945   -0.362887
 N 0.2421 0.9588 0.34391   -0.336556
 N 0.2724 0.5354 0.52401   -0.366441
 N 0.2581 0.308 0.54443   -0.33778
 N 0.552 0.34221 0.20055   -0.362887
 N 0.2579 0.0412 0.84391   -0.336556
 N 0.2276 0.4646 0.02401   -0.366441
 N 0.2419 0.692 0.04443   -0.33778
 N 0.948 0.65779 0.70055   -0.362887
 O 0.39027 0.42634 0.11431   -0.817638
 O 0.52783 0.56002 0.18141   -0.588597
 O 0.39872 0.65115 0.13597   -0.59414
 O 0.61573 0.53964 0.077   -0.568536
 O 0.45588 0.56801 0.03007   -0.595758
 O 0.17176 0.55341 0.12642   -0.606605
 O 0.1909 0.4042 0.16372   -0.603435
 O 0.45 0.2718 0.05967   -0.599991
 O 0.6206 0.31858 0.09261   -0.609324
 O 0.10973 0.57366 0.61431   -0.817638
 O 0.97217 0.43998 0.68141   -0.588597
 O 0.10128 0.34885 0.63597   -0.59414
 O 0.88427 0.46036 0.577   -0.568536
 O 0.04412 0.43199 0.53007   -0.595758
 O 0.32824 0.44659 0.62642   -0.606605
 O 0.3091 0.5958 0.66372   -0.603435
 O 0.05 0.7282 0.55967   -0.599991
 O 0.8794 0.68142 0.59261   -0.609324
 O 0.60973 0.92634 0.38569   -0.817638
 O 0.47217 0.06002 0.31859   -0.588597
 O 0.60128 0.15115 0.36403   -0.59414
 O 0.38427 0.03964 0.423   -0.568536
 O 0.54412 0.06801 0.46993   -0.595758
 O 0.82824 0.05341 0.37358   -0.606605
 O 0.8091 0.9042 0.33628   -0.603435
 O 0.55 0.7718 0.44033   -0.599991
 O 0.3794 0.81858 0.40739   -0.609324
 O 0.89027 0.07366 0.88569   -0.817638
 O 0.02783 0.93998 0.81859   -0.588597
 O 0.89872 0.84885 0.86403   -0.59414
 O 0.11573 0.96036 0.923   -0.568536
 O 0.95588 0.93199 0.96993   -0.595758
 O 0.67176 0.94659 0.87358   -0.606605
 O 0.6909 0.0958 0.83628   -0.603435
 O 0.95 0.2282 0.94033   -0.599991
 O 0.1206 0.18142 0.90739   -0.609324
