{'_ref': 'TBD', '_srcid': 'CAKYAQ_clean', 'submitters': [{'name': 'Dalar Nazarian Jeff Camp and David Sholl', 'email': 'dalar@gatech.edu jcamp6@gatech.edu'}], '_method': 'VASP DFT with PBE;DDEC'}
data_Co2H18C24N4O9
_symmetry_space_group_name_H-M   'P 1'
_cell_length_a   11.35030000
_cell_length_b   13.15810000
_cell_length_c   26.21300000
_cell_angle_alpha   90.00000000
_cell_angle_beta   90.00000000
_cell_angle_gamma   90.00000000
_symmetry_Int_Tables_number   1
_chemical_formula_structural   Co2H18C24N4O9
_chemical_formula_sum   'Co8 H72 C96 N16 O36'
_cell_volume   3914.86914864
_cell_formula_units_Z   4
loop_
 _symmetry_equiv_pos_site_id
 _symmetry_equiv_pos_as_xyz
  1  'x, y, z'
loop_
 _atom_site_label
 _atom_site_fract_x
 _atom_site_fract_y
 _atom_site_fract_z
 _atom_site_charge
 Co 0.16096 0.06081 0.92055   0.973917
 Co 0.9068 0.94049 0.86245   0.799081
 Co 0.33904 0.93919 0.42055   0.973917
 Co 0.5932 0.05951 0.36245   0.799081
 Co 0.83904 0.56081 0.57945   0.973917
 Co 0.0932 0.44049 0.63755   0.799081
 Co 0.66096 0.43919 0.07945   0.973917
 Co 0.4068 0.55951 0.13755   0.799081
 H 0.1389 0.9087 0.8556   0.411128
 H 0.0974 0.8689 0.9104   0.407508
 H 0.1399 0.3101 0.8194   0.130491
 H 0.8419 0.266 0.099   0.081124
 H 0.1104 0.9141 0.0081   0.079986
 H 0.2002 0.7874 0.0577   0.126132
 H 0.5128 0.1167 0.8465   0.125971
 H 0.9262 0.1366 0.7345   0.124838
 H 0.7146 0.101 0.8445   0.081216
 H 0.1538 0.4227 0.751   0.083149
 H 0.6932 0.8052 0.8402   0.082206
 H 0.7249 0.1911 0.9377   0.11756
 H 0.4894 0.8122 0.8382   0.132309
 H 0.4157 0.0029 0.9551   0.071834
 H 0.514 0.8862 0.006   0.130666
 H 0.9567 0.2432 0.6662   0.092323
 H 0.9479 0.1476 0.0533   0.124959
 H 0.6378 0.3139 0.9828   0.062434
 H 0.3611 0.0913 0.3556   0.411128
 H 0.4026 0.1311 0.4104   0.407508
 H 0.3601 0.6899 0.3194   0.130491
 H 0.6581 0.734 0.599   0.081124
 H 0.3896 0.0859 0.5081   0.079986
 H 0.2998 0.2126 0.5577   0.126133
 H 0.9872 0.8833 0.3465   0.125971
 H 0.5738 0.8634 0.2345   0.124838
 H 0.7854 0.899 0.3445   0.081216
 H 0.3462 0.5773 0.251   0.083149
 H 0.8068 0.1948 0.3402   0.082206
 H 0.7751 0.8089 0.4377   0.11756
 H 0.0106 0.1878 0.3382   0.132309
 H 0.0843 0.9971 0.4551   0.071834
 H 0.986 0.1138 0.506   0.130666
 H 0.5433 0.7568 0.1662   0.092323
 H 0.5521 0.8524 0.5533   0.124959
 H 0.8622 0.6861 0.4828   0.062434
 H 0.8611 0.4087 0.6444   0.411129
 H 0.9026 0.3689 0.5896   0.407508
 H 0.8601 0.8101 0.6806   0.130487
 H 0.1581 0.766 0.401   0.08112
 H 0.8896 0.4141 0.4919   0.079985
 H 0.7998 0.2874 0.4423   0.126135
 H 0.4872 0.6167 0.6535   0.125965
 H 0.0738 0.6366 0.7655   0.124829
 H 0.2854 0.601 0.6555   0.081216
 H 0.8462 0.9227 0.749   0.083141
 H 0.3068 0.3052 0.6598   0.082206
 H 0.2751 0.6911 0.5623   0.117558
 H 0.5106 0.3122 0.6618   0.132296
 H 0.5843 0.5029 0.5449   0.071834
 H 0.486 0.3862 0.494   0.130669
 H 0.0433 0.7432 0.8338   0.092322
 H 0.0521 0.6476 0.4467   0.124947
 H 0.3622 0.8139 0.5172   0.062432
 H 0.6389 0.5913 0.1444   0.411129
 H 0.5974 0.6311 0.0896   0.407508
 H 0.6399 0.1899 0.1806   0.130487
 H 0.3419 0.234 0.901   0.08112
 H 0.6104 0.5859 0.9919   0.079985
 H 0.7002 0.7126 0.9423   0.126135
 H 0.0128 0.3833 0.1535   0.125965
 H 0.4262 0.3634 0.2655   0.124829
 H 0.2146 0.399 0.1555   0.081216
 H 0.6538 0.0773 0.249   0.083141
 H 0.1932 0.6948 0.1598   0.082206
 H 0.2249 0.3089 0.0623   0.117558
 H 0.9894 0.6878 0.1618   0.132296
 H 0.9157 0.4971 0.0449   0.071834
 H 0.014 0.6138 0.994   0.130669
 H 0.4567 0.2568 0.3338   0.092322
 H 0.4479 0.3524 0.9467   0.124947
 H 0.1378 0.1861 0.0172   0.062432
 C 0.3446 0.9706 0.8493   0.652193
 C 0.0315 0.2095 0.7836   -0.022877
 C 0.1001 0.2958 0.7884   -0.151737
 C 0.4781 0.9656 0.8437   -0.00999
 C 0.3677 0.8231 0.0367   -0.025127
 C 0.848 0.1533 0.9909   -0.001133
 C 0.8211 0.253 0.0645   0.162983
 C 0.1936 0.9065 0.0065   0.170267
 C 0.0197 0.1349 0.8267   0.661514
 C 0.2468 0.8313 0.0372   -0.149037
 C 0.9138 0.0769 0.9584   0.649383
 C 0.5478 0.0511 0.845   -0.167823
 C 0.9768 0.1935 0.7383   -0.135805
 C 0.4287 0.7394 0.0667   0.646159
 C 0.6679 0.0411 0.8443   0.140533
 C 0.1099 0.3618 0.7468   0.138527
 C 0.6559 0.8698 0.8413   0.142657
 C 0.7532 0.2068 0.9709   -0.159556
 C 0.5339 0.8732 0.8407   -0.168392
 C 0.3711 0.9587 0.9763   0.13941
 C 0.4304 0.8887 0.0064   -0.153499
 C 0.9934 0.2582 0.6979   0.129913
 C 0.8817 0.1797 0.0381   -0.170235
 C 0.7025 0.279 0.9977   0.163627
 C 0.1554 0.0294 0.3493   0.652192
 C 0.4685 0.7905 0.2836   -0.022877
 C 0.3999 0.7042 0.2884   -0.151737
 C 0.0219 0.0344 0.3437   -0.00999
 C 0.1323 0.1769 0.5367   -0.025129
 C 0.652 0.8467 0.4909   -0.001133
 C 0.6789 0.747 0.5645   0.162983
 C 0.3064 0.0935 0.5065   0.170267
 C 0.4803 0.8651 0.3267   0.661514
 C 0.2532 0.1687 0.5372   -0.149039
 C 0.5862 0.9231 0.4584   0.649383
 C 0.9522 0.9489 0.345   -0.167823
 C 0.5232 0.8065 0.2383   -0.135808
 C 0.0713 0.2606 0.5667   0.646159
 C 0.8321 0.9589 0.3443   0.140533
 C 0.3901 0.6382 0.2468   0.138527
 C 0.8441 0.1302 0.3413   0.142657
 C 0.7468 0.7932 0.4709   -0.159556
 C 0.9661 0.1268 0.3407   -0.168392
 C 0.1289 0.0413 0.4763   0.13941
 C 0.0696 0.1113 0.5064   -0.153499
 C 0.5066 0.7418 0.1979   0.129913
 C 0.6183 0.8203 0.5381   -0.170235
 C 0.7975 0.721 0.4977   0.163627
 C 0.6554 0.4706 0.6507   0.652193
 C 0.9685 0.7095 0.7164   -0.022879
 C 0.8999 0.7958 0.7116   -0.151739
 C 0.5219 0.4656 0.6563   -0.009993
 C 0.6323 0.3231 0.4633   -0.025127
 C 0.152 0.6533 0.5091   -0.001133
 C 0.1789 0.753 0.4355   0.162983
 C 0.8064 0.4065 0.4935   0.170267
 C 0.9803 0.6349 0.6733   0.661514
 C 0.7532 0.3313 0.4628   -0.149038
 C 0.0862 0.5769 0.5416   0.649385
 C 0.4522 0.5511 0.655   -0.167821
 C 0.0232 0.6935 0.7617   -0.135804
 C 0.5713 0.2394 0.4333   0.646161
 C 0.3321 0.5411 0.6557   0.140533
 C 0.8901 0.8618 0.7532   0.138528
 C 0.3441 0.3698 0.6587   0.142655
 C 0.2468 0.7068 0.5291   -0.159556
 C 0.4661 0.3732 0.6593   -0.168387
 C 0.6289 0.4587 0.5237   0.139412
 C 0.5696 0.3887 0.4936   -0.153501
 C 0.0066 0.7582 0.8021   0.129913
 C 0.1183 0.6797 0.4619   -0.17023
 C 0.2975 0.779 0.5023   0.16363
 C 0.8446 0.5294 0.1507   0.652191
 C 0.5315 0.2905 0.2164   -0.022878
 C 0.6001 0.2042 0.2116   -0.151739
 C 0.9781 0.5344 0.1563   -0.009992
 C 0.8677 0.6769 0.9633   -0.025129
 C 0.348 0.3467 0.0091   -0.001133
 C 0.3211 0.247 0.9355   0.162983
 C 0.6936 0.5935 0.9935   0.170267
 C 0.5197 0.3651 0.1733   0.661514
 C 0.7468 0.6687 0.9628   -0.149041
 C 0.4138 0.4231 0.0416   0.649385
 C 0.0478 0.4489 0.155   -0.167821
 C 0.4768 0.3065 0.2617   -0.135807
 C 0.9287 0.7606 0.9333   0.646161
 C 0.1679 0.4589 0.1557   0.140533
 C 0.6099 0.1382 0.2532   0.138528
 C 0.1559 0.6302 0.1587   0.142655
 C 0.2532 0.2932 0.0291   -0.159556
 C 0.0339 0.6268 0.1593   -0.168388
 C 0.8711 0.5413 0.0237   0.139412
 C 0.9304 0.6113 0.9936   -0.153501
 C 0.4934 0.2418 0.3021   0.129913
 C 0.3817 0.3203 0.9619   -0.17023
 C 0.2025 0.221 0.0023   0.16363
 N 0.0615 0.344 0.70203   -0.300544
 N 0.7227 0.9512 0.84342   -0.290203
 N 0.7352 0.3062 0.0437   -0.333714
 N 0.2529 0.9663 0.97601   -0.356006
 N 0.4385 0.656 0.20203   -0.300544
 N 0.7773 0.0488 0.34342   -0.290203
 N 0.7648 0.6938 0.5437   -0.333714
 N 0.2471 0.0337 0.47601   -0.356006
 N 0.9385 0.844 0.79797   -0.300545
 N 0.2773 0.4512 0.65658   -0.290202
 N 0.2648 0.8062 0.4563   -0.333715
 N 0.7471 0.4663 0.52399   -0.356006
 N 0.5615 0.156 0.29797   -0.300545
 N 0.2227 0.5488 0.15658   -0.290202
 N 0.2352 0.1938 0.9563   -0.333715
 N 0.7529 0.5337 0.02399   -0.356006
 O 0.0212 0.0638 0.97059   -0.60125
 O 0.8613 0.0372 0.92264   -0.530212
 O 0.0791 0.1507 0.86577   -0.594325
 O 0.9499 0.0621 0.81878   -0.560755
 O 0.0907 0.9259 0.88589   -0.773617
 O 0.3071 0.0483 0.87234   -0.621077
 O 0.3649 0.686 0.09427   -0.561216
 O 0.2838 0.9007 0.8327   -0.595046
 O 0.5382 0.7342 0.062   -0.602796
 O 0.4788 0.9362 0.47059   -0.60125
 O 0.6387 0.9628 0.42264   -0.530212
 O 0.4209 0.8493 0.36577   -0.594325
 O 0.5501 0.9379 0.31878   -0.560755
 O 0.4093 0.0741 0.38589   -0.773617
 O 0.1929 0.9517 0.37234   -0.621077
 O 0.1351 0.314 0.59427   -0.561216
 O 0.2162 0.0993 0.3327   -0.595046
 O 0.9618 0.2658 0.562   -0.602796
 O 0.9788 0.5638 0.52941   -0.60125
 O 0.1387 0.5372 0.57736   -0.530211
 O 0.9209 0.6507 0.63423   -0.594325
 O 0.0501 0.5621 0.68122   -0.560755
 O 0.9093 0.4259 0.61411   -0.773617
 O 0.6929 0.5483 0.62766   -0.621077
 O 0.6351 0.186 0.40573   -0.561215
 O 0.7162 0.4007 0.6673   -0.595046
 O 0.4618 0.2342 0.438   -0.602796
 O 0.5212 0.4362 0.02941   -0.60125
 O 0.3613 0.4628 0.07736   -0.530211
 O 0.5791 0.3493 0.13423   -0.594325
 O 0.4499 0.4379 0.18122   -0.560755
 O 0.5907 0.5741 0.11411   -0.773617
 O 0.8071 0.4517 0.12766   -0.621077
 O 0.8649 0.814 0.90573   -0.561215
 O 0.7838 0.5993 0.1673   -0.595046
 O 0.0382 0.7658 0.938   -0.602796
