{'_ref': 'TBD', '_srcid': 'CAKYAQ_clean', 'submitters': [{'name': 'Dalar Nazarian Jeff Camp and David Sholl', 'email': 'dalar@gatech.edu jcamp6@gatech.edu'}], '_method': 'VASP DFT with PBE;DDEC'}
data_CoH8C12O5
_symmetry_space_group_name_H-M   'P 1'
_cell_length_a   8.00200006
_cell_length_b   9.09099998
_cell_length_c   12.93500000
_cell_angle_alpha   107.80499759
_cell_angle_beta   100.04199991
_cell_angle_gamma   104.10600002
_symmetry_Int_Tables_number   1
_chemical_formula_structural   CoH8C12O5
_chemical_formula_sum   'Co2 H16 C24 O10'
_cell_volume   836.728608606
_cell_formula_units_Z   2
loop_
 _symmetry_equiv_pos_site_id
 _symmetry_equiv_pos_as_xyz
  1  'x, y, z'
loop_
 _atom_site_label
 _atom_site_fract_x
 _atom_site_fract_y
 _atom_site_fract_z
 _atom_site_charge
 Co 0.24973 0.50272 0.49989   0.972103
 Co 0.74974 0.5025 0.49979   1.002894
 H 0.5741 0.6816 0.586   0.432627
 H 0.5381 0.6638 0.4758   0.431856
 H 0.9303 0.3289 0.4121   0.435571
 H 0.9649 0.3426 0.5213   0.438185
 H 0.6309 0.9948 0.9145   0.087921
 H 0.5975 0.1359 0.0905   0.11615
 H 0.1013 0.7828 0.7976   0.104566
 H 0.4012 0.2299 0.2043   0.106649
 H 0.8699 0.0222 0.0784   0.088361
 H 0.8996 0.8668 0.9183   0.106846
 H 0.9504 0.2663 0.8414   0.105527
 H 0.9235 0.2973 0.0171   0.101192
 H 0.6781 0.5808 0.8219   0.103714
 H 0.8046 0.4172 0.1766   0.099484
 H 0.5484 0.737 0.1633   0.106861
 H 0.5743 0.7101 0.9852   0.100507
 C 0.3979 0.7712 0.72931   0.682034
 C 0.3688 0.87056 0.83982   -0.131641
 C 0.5174 0.9803 0.92606   -0.042873
 C 0.4979 0.0696 0.03045   -0.117334
 C 0.326 0.05626 0.0417   0.034547
 C 0.1751 0.9458 0.95289   0.040123
 C 0.2004 0.8562 0.85556   -0.061048
 C 0.3019 0.156 0.14674   -0.052707
 C 0.1351 0.1412 0.16072   -0.1452
 C 0.9843 0.0301 0.0697   -0.047293
 C 0.002 0.9387 0.97425   -0.106777
 C 0.1055 0.232 0.26728   0.707788
 C 0.8378 0.4061 0.69767   0.68944
 C 0.8211 0.4236 0.81164   -0.146462
 C 0.8916 0.3372 0.87396   -0.031683
 C 0.8755 0.3554 0.97884   -0.109505
 C 0.7887 0.4592 0.03047   0.04697
 C 0.7157 0.5457 0.97099   0.026573
 C 0.7297 0.5258 0.8614   -0.056479
 C 0.7632 0.4781 0.1381   -0.072156
 C 0.681 0.5815 0.18651   -0.121396
 C 0.608 0.6681 0.12911   -0.039379
 C 0.6233 0.6523 0.02333   -0.107759
 C 0.6635 0.599 0.3056   0.689007
 O 0.26002 0.67553 0.65219   -0.629713
 O 0.55558 0.79871 0.72401   -0.568756
 O 0.24006 0.33154 0.34642   -0.651671
 O 0.9508 0.2144 0.27592   -0.580291
 O 0.7922 0.50655 0.65741   -0.62083
 O 0.901 0.30025 0.64647   -0.586042
 O 0.7135 0.50497 0.34257   -0.601058
 O 0.6027 0.70765 0.35301   -0.598299
 O 0.53562 0.61042 0.51953   -0.816166
 O 0.96811 0.39825 0.47911   -0.81498
