{'_ref': 'TBD', '_srcid': 'CAKYAQ_clean', 'submitters': [{'name': 'Dalar Nazarian Jeff Camp and David Sholl', 'email': 'dalar@gatech.edu jcamp6@gatech.edu'}], '_method': 'VASP DFT with PBE;DDEC'}
data_Sm4H14C28N4O17
_symmetry_space_group_name_H-M   'P 1'
_cell_length_a   16.47300010
_cell_length_b   17.06799962
_cell_length_c   17.38400000
_cell_angle_alpha   77.35000093
_cell_angle_beta   62.90999904
_cell_angle_gamma   62.40000055
_symmetry_Int_Tables_number   1
_chemical_formula_structural   Sm4H14C28N4O17
_chemical_formula_sum   'Sm8 H28 C56 N8 O34'
_cell_volume   3856.1040603
_cell_formula_units_Z   2
loop_
 _symmetry_equiv_pos_site_id
 _symmetry_equiv_pos_as_xyz
  1  'x, y, z'
loop_
 _atom_site_label
 _atom_site_fract_x
 _atom_site_fract_y
 _atom_site_fract_z
 _atom_site_charge
 Sm 0.95948 0.80676 0.04268   2.04454
 Sm 0.01736 0.02417 0.67806   2.0276
 Sm 0.68391 0.31549 0.55462   2.07835
 Sm 0.22368 0.4816 0.80207   1.942242
 Sm 0.04052 0.19324 0.95732   2.044539
 Sm 0.98264 0.97583 0.32194   2.027598
 Sm 0.31609 0.68451 0.44538   2.07835
 Sm 0.77632 0.5184 0.19793   1.942243
 H 0.234 0.3704 0.9042   0.380085
 H 0.3032 0.4059 0.8647   0.239691
 H 0.0411 0.347 0.7036   0.121201
 H 0.2379 0.7211 0.1675   0.121173
 H 0.6439 0.0408 0.4921   0.112825
 H 0.358 0.5859 0.0947   0.104745
 H 0.3222 0.5379 0.000300000000003   0.122114
 H 0.3854 0.2064 0.6686   0.120495
 H 0.4781 0.0737 0.5927   0.098308
 H 0.1561 0.5032 0.5179   0.117158
 H 0.5772 0.0919 0.9464   0.109971
 H 0.6103 0.1614 0.8068   0.127042
 H 0.7201 0.9799 0.9725   0.102298
 H 0.0615 0.415 0.5701   0.097201
 H 0.766 0.6296 0.0958   0.380085
 H 0.6968 0.5941 0.1353   0.239691
 H 0.9589 0.653 0.2964   0.121201
 H 0.7621 0.2789 0.8325   0.121173
 H 0.3561 0.9592 0.5079   0.112824
 H 0.642 0.4141 0.9053   0.104744
 H 0.6778 0.4621 0.9997   0.122113
 H 0.6146 0.7936 0.3314   0.120495
 H 0.5219 0.9263 0.4073   0.098308
 H 0.8439 0.4968 0.4821   0.117158
 H 0.4228 0.9081 0.0536   0.10997
 H 0.3897 0.8386 0.1932   0.127042
 H 0.2799 0.0201 0.0275   0.102297
 H 0.9385 0.585 0.4299   0.097201
 C 0.7872 0.1469 0.6796   0.703057
 C 0.6442 0.0774 0.9031   -0.129203
 C 0.6639 0.1197 0.8207   -0.103153
 C 0.7289 0.0123 0.9188   -0.114583
 C 0.7602 0.0994 0.764   0.105714
 C 0.824 0.9965 0.8552   0.0964
 C 0.7541 0.1352 0.4569   0.729745
 C 0.1569 0.6177 0.9653   0.715813
 C 0.1149 0.3979 0.732   0.111563
 C 0.1766 0.4873 0.6271   0.102855
 C 0.2423 0.5367 0.6   0.747191
 C 0.1074 0.3543 0.819   0.695017
 C 0.1848 0.642 0.0244   0.104142
 C 0.1405 0.7424 0.1192   0.119738
 C 0.0888 0.4232 0.6033   -0.094525
 C 0.0568 0.8282 0.1652   0.708671
 C 0.2258 0.6991 0.13   -0.114985
 C 0.0762 0.3843 0.6818   -0.110019
 C 0.6059 0.0923 0.5265   -0.11695
 C 0.5021 0.2426 0.6205   0.109093
 C 0.2975 0.6195 0.0865   -0.104739
 C 0.2757 0.5911 0.0314   -0.113172
 C 0.4539 0.1889 0.6314   -0.12529
 C 0.5078 0.1126 0.585   -0.081843
 C 0.1434 0.4767 0.5728   -0.124217
 C 0.4521 0.326 0.6699   0.705164
 C 0.6486 0.1499 0.517   0.088819
 C 0.9157 0.9314 0.8658   0.737264
 C 0.2128 0.8531 0.3204   0.703056
 C 0.3558 0.9226 0.0969   -0.129202
 C 0.3361 0.8803 0.1793   -0.103153
 C 0.2711 0.9877 0.0812   -0.114582
 C 0.2398 0.9006 0.236   0.105714
 C 0.176 0.0035 0.1448   0.0964
 C 0.2459 0.8648 0.5431   0.729745
 C 0.8431 0.3823 0.0347   0.715814
 C 0.8851 0.6021 0.268   0.111563
 C 0.8234 0.5127 0.3729   0.102855
 C 0.7577 0.4633 0.4   0.747191
 C 0.8926 0.6457 0.181   0.695017
 C 0.8152 0.358 0.9756   0.104142
 C 0.8595 0.2576 0.8808   0.119738
 C 0.9112 0.5768 0.3967   -0.094525
 C 0.9432 0.1718 0.8348   0.708672
 C 0.7742 0.3009 0.87   -0.114984
 C 0.9238 0.6157 0.3182   -0.110018
 C 0.3941 0.9077 0.4735   -0.11695
 C 0.4979 0.7574 0.3795   0.109093
 C 0.7025 0.3805 0.9135   -0.104738
 C 0.7243 0.4089 0.9686   -0.113172
 C 0.5461 0.8111 0.3686   -0.12529
 C 0.4922 0.8874 0.415   -0.081843
 C 0.8566 0.5233 0.4272   -0.124217
 C 0.5479 0.674 0.3301   0.705164
 C 0.3514 0.8501 0.483   0.088819
 C 0.0843 0.0686 0.1342   0.737264
 N 0.8427 0.0378 0.778   -0.599981
 N 0.5966 0.2224 0.5655   -0.553351
 N 0.1206 0.7172 0.0654   -0.551336
 N 0.1608 0.4507 0.706   -0.590481
 N 0.1573 0.9622 0.222   -0.599981
 N 0.4034 0.7776 0.4345   -0.553351
 N 0.8794 0.2828 0.9346   -0.551336
 N 0.8392 0.5493 0.294   -0.590481
 O 0.3616 0.352 0.7213   -0.67947
 O 0.7186 0.203 0.6567   -0.761521
 O 0.8809 0.1285 0.6351   -0.811059
 O 0.9084 0.8817 0.9298   -0.827601
 O 0.0743 0.6727 0.9619   -0.784745
 O 0.5081 0.3642 0.6557   -0.805107
 O 0.0719 0.299 0.8449   -0.747106
 O 0.1449 0.3755 0.8561   -0.768435
 O 0.069 0.8585 0.2158   -0.715067
 O 0.8075 0.0685 0.4087   -0.825357
 O 0.2127 0.5494 0.9228   -0.752625
 O 0.000799999999998 0.9296 0.8088   -0.755535
 O 0.2793 0.5322 0.6497   -0.737753
 O 0.2538 0.5782 0.5293   -0.835165
 O 0.2797 0.3778 0.9086   -0.644159
 O 0.9808 0.8628 0.147   -0.800767
 O 0.7829 0.1912 0.4579   -0.767984
 O 0.6384 0.648 0.2787   -0.67947
 O 0.2814 0.797 0.3433   -0.761521
 O 0.1191 0.8715 0.3649   -0.811059
 O 0.0916 0.1183 0.0702   -0.827601
 O 0.9257 0.3273 0.0381   -0.784745
 O 0.4919 0.6358 0.3443   -0.805107
 O 0.9281 0.701 0.1551   -0.747106
 O 0.8551 0.6245 0.1439   -0.768436
 O 0.931 0.1415 0.7842   -0.715067
 O 0.1925 0.9315 0.5913   -0.825357
 O 0.7873 0.4506 0.0772   -0.752625
 O 0.9992 0.0704 0.1912   -0.755535
 O 0.7207 0.4678 0.3503   -0.737753
 O 0.7462 0.4218 0.4707   -0.835165
 O 0.7203 0.6222 0.0914   -0.644159
 O 0.0192 0.1372 0.853   -0.800767
 O 0.2171 0.8088 0.5421   -0.767984
