{'_ref': 'TBD', '_srcid': 'CAKYAQ_clean', 'submitters': [{'name': 'Dalar Nazarian Jeff Camp and David Sholl', 'email': 'dalar@gatech.edu jcamp6@gatech.edu'}], '_method': 'VASP DFT with PBE;DDEC'}
data_ZnH6(C3N2)2
_symmetry_space_group_name_H-M   'P 1'
_cell_length_a   15.37900000
_cell_length_b   15.44900000
_cell_length_c   18.40700000
_cell_angle_alpha   90.00000000
_cell_angle_beta   90.00000000
_cell_angle_gamma   90.00000000
_symmetry_Int_Tables_number   1
_chemical_formula_structural   ZnH6(C3N2)2
_chemical_formula_sum   'Zn16 H96 C96 N64'
_cell_volume   4373.3222776
_cell_formula_units_Z   16
loop_
 _symmetry_equiv_pos_site_id
 _symmetry_equiv_pos_as_xyz
  1  'x, y, z'
loop_
 _atom_site_label
 _atom_site_fract_x
 _atom_site_fract_y
 _atom_site_fract_z
 _atom_site_charge
 Zn 0.79948 0.86037 0.59386   0.725246
 Zn 0.49121 0.66418 0.68466   0.731641
 Zn 0.70052 0.13963 0.09386   0.725246
 Zn 0.00879 0.33582 0.18466   0.731641
 Zn 0.20052 0.36037 0.90614   0.725246
 Zn 0.50879 0.16418 0.81534   0.731641
 Zn 0.29948 0.63963 0.40614   0.725246
 Zn 0.99121 0.83582 0.31534   0.731641
 Zn 0.20052 0.13963 0.40614   0.725246
 Zn 0.50879 0.33582 0.31534   0.731641
 Zn 0.29948 0.86037 0.90614   0.725246
 Zn 0.99121 0.66418 0.81534   0.731641
 Zn 0.79948 0.63963 0.09386   0.725246
 Zn 0.49121 0.83582 0.18466   0.731641
 Zn 0.70052 0.36037 0.59386   0.725246
 Zn 0.00879 0.16418 0.68466   0.731641
 H 0.6788 0.7194 0.6532   0.052853
 H 0.6036 0.9412 0.5757   0.09789
 H 0.4745 0.8609 0.6141   0.093706
 H 0.9368 0.8116 0.4777   0.049032
 H 0.733 0.9518 0.4454   0.093616
 H 0.8117 0.9391 0.332   0.087931
 H 0.9367 0.0097 0.5952   0.057544
 H 0.7636 0.964 0.7428   0.094432
 H 0.8576 0.0788 0.7867   0.089217
 H 0.9018 0.8113 0.7302   0.051951
 H 0.9415 0.5781 0.6599   0.080736
 H 0.8633 0.6574 0.5658   0.097386
 H 0.8212 0.2806 0.1532   0.052853
 H 0.8964 0.0588 0.0757   0.09789
 H 0.0255 0.1391 0.1141   0.093706
 H 0.5632 0.1884 0.9777   0.049032
 H 0.767 0.0482 0.9454   0.093616
 H 0.6883 0.0609 0.832   0.087931
 H 0.5633 0.9903 0.0952   0.057544
 H 0.7364 0.036 0.2428   0.094432
 H 0.6424 0.9212 0.2867   0.089217
 H 0.5982 0.1887 0.2302   0.051951
 H 0.5585 0.4219 0.1599   0.080736
 H 0.6367 0.3426 0.0658   0.097386
 H 0.3212 0.2194 0.8468   0.052853
 H 0.3964 0.4412 0.9243   0.09789
 H 0.5255 0.3609 0.8859   0.093706
 H 0.0632 0.3116 0.0223   0.049032
 H 0.267 0.4518 0.0546   0.093616
 H 0.1883 0.4391 0.168   0.087931
 H 0.0633 0.5097 0.9048   0.057544
 H 0.2364 0.464 0.7572   0.094432
 H 0.1424 0.5788 0.7133   0.089217
 H 0.0982 0.3113 0.7698   0.051951
 H 0.0585 0.0781 0.8401   0.080737
 H 0.1367 0.1574 0.9342   0.097387
 H 0.1788 0.7806 0.3468   0.052853
 H 0.1036 0.5588 0.4243   0.09789
 H 0.9745 0.6391 0.3859   0.093706
 H 0.4368 0.6884 0.5223   0.049032
 H 0.233 0.5482 0.5546   0.093616
 H 0.3117 0.5609 0.668   0.087931
 H 0.4367 0.4903 0.4048   0.057544
 H 0.2636 0.536 0.2572   0.094432
 H 0.3576 0.4212 0.2133   0.089218
 H 0.4018 0.6887 0.2698   0.051951
 H 0.4415 0.9219 0.3401   0.080737
 H 0.3633 0.8426 0.4342   0.097387
 H 0.3212 0.2806 0.3468   0.052853
 H 0.3964 0.0588 0.4243   0.097891
 H 0.5255 0.1391 0.3859   0.093706
 H 0.0632 0.1884 0.5223   0.049032
 H 0.267 0.0482 0.5546   0.093616
 H 0.1883 0.0609 0.668   0.087931
 H 0.0633 0.9903 0.4048   0.057544
 H 0.2364 0.036 0.2572   0.094432
 H 0.1424 0.9212 0.2133   0.089217
 H 0.0982 0.1887 0.2698   0.051951
 H 0.0585 0.4219 0.3401   0.080737
 H 0.1367 0.3426 0.4342   0.097387
 H 0.1788 0.7194 0.8468   0.052853
 H 0.1036 0.9412 0.9243   0.097891
 H 0.9745 0.8609 0.8859   0.093706
 H 0.4368 0.8116 0.0223   0.049032
 H 0.233 0.9518 0.0546   0.093616
 H 0.3117 0.9391 0.168   0.087931
 H 0.4367 0.0097 0.9048   0.057544
 H 0.2636 0.964 0.7572   0.094432
 H 0.3576 0.0788 0.7133   0.089217
 H 0.4018 0.8113 0.7698   0.051951
 H 0.4415 0.5781 0.8401   0.080737
 H 0.3633 0.6574 0.9342   0.097387
 H 0.6788 0.7806 0.1532   0.052853
 H 0.6036 0.5588 0.0757   0.097891
 H 0.4745 0.6391 0.1141   0.093706
 H 0.9368 0.6884 0.9777   0.049032
 H 0.733 0.5482 0.9454   0.093616
 H 0.8117 0.5609 0.832   0.087931
 H 0.9367 0.4903 0.0952   0.057544
 H 0.7636 0.536 0.2428   0.094432
 H 0.8576 0.4212 0.2867   0.089217
 H 0.9018 0.6887 0.2302   0.051951
 H 0.9415 0.9219 0.1599   0.080737
 H 0.8633 0.8426 0.0658   0.097387
 H 0.8212 0.2194 0.6532   0.052853
 H 0.8964 0.4412 0.5757   0.097891
 H 0.0255 0.3609 0.6141   0.093706
 H 0.5632 0.3116 0.4777   0.049032
 H 0.767 0.4518 0.4454   0.093616
 H 0.6883 0.4391 0.332   0.087931
 H 0.5633 0.5097 0.5952   0.057544
 H 0.7364 0.464 0.7428   0.094432
 H 0.6424 0.5788 0.7867   0.089218
 H 0.5982 0.3113 0.7302   0.051951
 H 0.5585 0.0781 0.6599   0.080737
 H 0.6367 0.1574 0.5658   0.097387
 C 0.6435 0.7654 0.6394   0.230414
 C 0.6034 0.8865 0.5969   -0.029898
 C 0.5316 0.8418 0.618   -0.032564
 C 0.8951 0.8459 0.4552   0.238463
 C 0.7845 0.9213 0.4386   -0.040889
 C 0.8284 0.9146 0.376   -0.021013
 C 0.9048 0.0127 0.638   0.224455
 C 0.8105 0.9873 0.7177   -0.037559
 C 0.8627 0.051 0.7421   -0.019341
 C 0.9021 0.7625 0.7006   0.229321
 C 0.9241 0.6356 0.6629   -0.020262
 C 0.8805 0.6794 0.6106   -0.035915
 C 0.8565 0.2346 0.1394   0.230414
 C 0.8966 0.1135 0.0969   -0.029898
 C 0.9684 0.1582 0.118   -0.032564
 C 0.6049 0.1541 0.9552   0.238463
 C 0.7155 0.0787 0.9386   -0.040889
 C 0.6716 0.0854 0.876   -0.021013
 C 0.5952 0.9873 0.138   0.224455
 C 0.6895 0.0127 0.2177   -0.037559
 C 0.6373 0.949 0.2421   -0.019341
 C 0.5979 0.2375 0.2006   0.229321
 C 0.5759 0.3644 0.1629   -0.020262
 C 0.6195 0.3206 0.1106   -0.035915
 C 0.3565 0.2654 0.8606   0.230414
 C 0.3966 0.3865 0.9031   -0.029898
 C 0.4684 0.3418 0.882   -0.032564
 C 0.1049 0.3459 0.0448   0.238463
 C 0.2155 0.4213 0.0614   -0.040889
 C 0.1716 0.4146 0.124   -0.021013
 C 0.0952 0.5127 0.862   0.224455
 C 0.1895 0.4873 0.7823   -0.037559
 C 0.1373 0.551 0.7579   -0.019341
 C 0.0979 0.2625 0.7994   0.229321
 C 0.0759 0.1356 0.8371   -0.020262
 C 0.1195 0.1794 0.8894   -0.035915
 C 0.1435 0.7346 0.3606   0.230414
 C 0.1034 0.6135 0.4031   -0.029898
 C 0.0316 0.6582 0.382   -0.032564
 C 0.3951 0.6541 0.5448   0.238463
 C 0.2845 0.5787 0.5614   -0.040889
 C 0.3284 0.5854 0.624   -0.021013
 C 0.4048 0.4873 0.362   0.224455
 C 0.3105 0.5127 0.2823   -0.037559
 C 0.3627 0.449 0.2579   -0.019341
 C 0.4021 0.7375 0.2994   0.229321
 C 0.4241 0.8644 0.3371   -0.020262
 C 0.3805 0.8206 0.3894   -0.035915
 C 0.3565 0.2346 0.3606   0.230413
 C 0.3966 0.1135 0.4031   -0.029898
 C 0.4684 0.1582 0.382   -0.032563
 C 0.1049 0.1541 0.5448   0.238463
 C 0.2155 0.0787 0.5614   -0.040889
 C 0.1716 0.0854 0.624   -0.021013
 C 0.0952 0.9873 0.362   0.224455
 C 0.1895 0.0127 0.2823   -0.037559
 C 0.1373 0.949 0.2579   -0.01934
 C 0.0979 0.2375 0.2994   0.229321
 C 0.0759 0.3644 0.3371   -0.020263
 C 0.1195 0.3206 0.3894   -0.035915
 C 0.1435 0.7654 0.8606   0.230413
 C 0.1034 0.8865 0.9031   -0.029898
 C 0.0316 0.8418 0.882   -0.032563
 C 0.3951 0.8459 0.0448   0.238463
 C 0.2845 0.9213 0.0614   -0.040889
 C 0.3284 0.9146 0.124   -0.021013
 C 0.4048 0.0127 0.862   0.224455
 C 0.3105 0.9873 0.7823   -0.037559
 C 0.3627 0.051 0.7579   -0.019341
 C 0.4021 0.7625 0.7994   0.229321
 C 0.4241 0.6356 0.8371   -0.020263
 C 0.3805 0.6794 0.8894   -0.035915
 C 0.6435 0.7346 0.1394   0.230413
 C 0.6034 0.6135 0.0969   -0.029898
 C 0.5316 0.6582 0.118   -0.032564
 C 0.8951 0.6541 0.9552   0.238463
 C 0.7845 0.5787 0.9386   -0.040889
 C 0.8284 0.5854 0.876   -0.021013
 C 0.9048 0.4873 0.138   0.224455
 C 0.8105 0.5127 0.2177   -0.037559
 C 0.8627 0.449 0.2421   -0.019341
 C 0.9021 0.7375 0.2006   0.229321
 C 0.9241 0.8644 0.1629   -0.020262
 C 0.8805 0.8206 0.1106   -0.035915
 C 0.8565 0.2654 0.6394   0.230413
 C 0.8966 0.3865 0.5969   -0.029898
 C 0.9684 0.3418 0.618   -0.032564
 C 0.6049 0.3459 0.4552   0.238463
 C 0.7155 0.4213 0.4386   -0.040889
 C 0.6716 0.4146 0.376   -0.021013
 C 0.5952 0.5127 0.638   0.224455
 C 0.6895 0.4873 0.7177   -0.037559
 C 0.6373 0.551 0.7421   -0.019341
 C 0.5979 0.2625 0.7006   0.229321
 C 0.5759 0.1356 0.6629   -0.020262
 C 0.6195 0.1794 0.6106   -0.035915
 N 0.5576 0.7642 0.6458   -0.391672
 N 0.6741 0.8381 0.6118   -0.381666
 N 0.9 0.867 0.38671   -0.385921
 N 0.8277 0.8762 0.49026   -0.385439
 N 0.9235 0.0678 0.69141   -0.388758
 N 0.8374 0.9629 0.65115   -0.386392
 N 0.9383 0.6885 0.72014   -0.381897
 N 0.8664 0.761 0.63502   -0.386653
 N 0.9424 0.2358 0.1458   -0.391672
 N 0.8259 0.1619 0.1118   -0.381666
 N 0.6 0.133 0.88671   -0.385921
 N 0.6723 0.1238 0.99026   -0.385439
 N 0.5765 0.9322 0.19141   -0.388758
 N 0.6626 0.0371 0.15115   -0.386392
 N 0.5617 0.3115 0.22014   -0.381897
 N 0.6336 0.239 0.13502   -0.386653
 N 0.4424 0.2642 0.8542   -0.391672
 N 0.3259 0.3381 0.8882   -0.381666
 N 0.1 0.367 0.11329   -0.385921
 N 0.1723 0.3762 0.00974   -0.385439
 N 0.0765 0.5678 0.80859   -0.388758
 N 0.1626 0.4629 0.84885   -0.386392
 N 0.0617 0.1885 0.77986   -0.381897
 N 0.1336 0.261 0.86498   -0.386653
 N 0.0576 0.7358 0.3542   -0.391672
 N 0.1741 0.6619 0.3882   -0.381666
 N 0.4 0.633 0.61329   -0.385921
 N 0.3277 0.6238 0.50974   -0.385439
 N 0.4235 0.4322 0.30859   -0.388758
 N 0.3374 0.5371 0.34885   -0.386392
 N 0.4383 0.8115 0.27986   -0.381897
 N 0.3664 0.739 0.36498   -0.386653
 N 0.4424 0.2358 0.3542   -0.391672
 N 0.3259 0.1619 0.3882   -0.381666
 N 0.1 0.133 0.61329   -0.385921
 N 0.1723 0.1238 0.50974   -0.385439
 N 0.0765 0.9322 0.30859   -0.388758
 N 0.1626 0.0371 0.34885   -0.386392
 N 0.0617 0.3115 0.27986   -0.381897
 N 0.1336 0.239 0.36498   -0.386653
 N 0.0576 0.7642 0.8542   -0.391672
 N 0.1741 0.8381 0.8882   -0.381666
 N 0.4 0.867 0.11329   -0.385921
 N 0.3277 0.8762 0.00974   -0.385439
 N 0.4235 0.0678 0.80859   -0.388758
 N 0.3374 0.9629 0.84885   -0.386392
 N 0.4383 0.6885 0.77986   -0.381897
 N 0.3664 0.761 0.86498   -0.386653
 N 0.5576 0.7358 0.1458   -0.391672
 N 0.6741 0.6619 0.1118   -0.381666
 N 0.9 0.633 0.88671   -0.385921
 N 0.8277 0.6238 0.99026   -0.385439
 N 0.9235 0.4322 0.19141   -0.388758
 N 0.8374 0.5371 0.15115   -0.386392
 N 0.9383 0.8115 0.22014   -0.381896
 N 0.8664 0.739 0.13502   -0.386653
 N 0.9424 0.2642 0.6458   -0.391672
 N 0.8259 0.3381 0.6118   -0.381666
 N 0.6 0.367 0.38671   -0.385921
 N 0.6723 0.3762 0.49026   -0.385439
 N 0.5765 0.5678 0.69141   -0.388758
 N 0.6626 0.4629 0.65115   -0.386392
 N 0.5617 0.1885 0.72014   -0.381896
 N 0.6336 0.261 0.63502   -0.386653
