{'_ref': 'TBD', '_srcid': 'CAKYAQ_clean', 'submitters': [{'name': 'Dalar Nazarian Jeff Camp and David Sholl', 'email': 'dalar@gatech.edu jcamp6@gatech.edu'}], '_method': 'VASP DFT with PBE;DDEC'}
data_ZnH6(C3N2)2
_symmetry_space_group_name_H-M   'P 1'
_cell_length_a   15.10690000
_cell_length_b   15.34860000
_cell_length_c   18.34300000
_cell_angle_alpha   90.00000000
_cell_angle_beta   90.00000000
_cell_angle_gamma   90.00000000
_symmetry_Int_Tables_number   1
_chemical_formula_structural   ZnH6(C3N2)2
_chemical_formula_sum   'Zn16 H96 C96 N64'
_cell_volume   4253.18710563
_cell_formula_units_Z   16
loop_
 _symmetry_equiv_pos_site_id
 _symmetry_equiv_pos_as_xyz
  1  'x, y, z'
loop_
 _atom_site_label
 _atom_site_fract_x
 _atom_site_fract_y
 _atom_site_fract_z
 _atom_site_charge
 Zn 0.86152 0.79435 0.59156   0.72549
 Zn 0.66294 0.48732 0.6867   0.725895
 Zn 0.13848 0.70565 0.09156   0.72549
 Zn 0.33706 0.01268 0.1867   0.725895
 Zn 0.36152 0.20565 0.90844   0.72549
 Zn 0.16294 0.51268 0.8133   0.725895
 Zn 0.63848 0.29435 0.40844   0.72549
 Zn 0.83706 0.98732 0.3133   0.725895
 Zn 0.13848 0.20565 0.40844   0.72549
 Zn 0.33706 0.51268 0.3133   0.725895
 Zn 0.86152 0.29435 0.90844   0.72549
 Zn 0.66294 0.98732 0.8133   0.725895
 Zn 0.63848 0.79435 0.09156   0.72549
 Zn 0.83706 0.48732 0.1867   0.725895
 Zn 0.36152 0.70565 0.59156   0.72549
 Zn 0.16294 0.01268 0.6867   0.725895
 H 0.7189 0.6739 0.6531   0.047706
 H 0.9418 0.5993 0.5729   0.092861
 H 0.8606 0.4709 0.6134   0.088715
 H 0.8145 0.9332 0.4756   0.049108
 H 0.9477 0.7248 0.4427   0.085148
 H 0.9357 0.8027 0.3277   0.085456
 H 0.0168 0.9338 0.5955   0.049448
 H 0.9624 0.7616 0.7402   0.091357
 H 0.0719 0.8609 0.79   0.081852
 H 0.811 0.8946 0.729   0.045006
 H 0.5746 0.9367 0.6604   0.075211
 H 0.6572 0.8642 0.5642   0.085507
 H 0.2811 0.8261 0.1531   0.047706
 H 0.0582 0.9007 0.0729   0.092861
 H 0.1394 0.0291 0.1134   0.088715
 H 0.1855 0.5668 0.9756   0.049108
 H 0.0523 0.7752 0.9427   0.085148
 H 0.0643 0.6973 0.8277   0.085456
 H 0.9832 0.5662 0.0955   0.049448
 H 0.0376 0.7384 0.2402   0.091357
 H 0.9281 0.6391 0.29   0.081853
 H 0.189 0.6054 0.229   0.045006
 H 0.4254 0.5633 0.1604   0.075211
 H 0.3428 0.6358 0.0642   0.085507
 H 0.2189 0.3261 0.8469   0.047706
 H 0.4418 0.4007 0.9271   0.092861
 H 0.3606 0.5291 0.8866   0.088715
 H 0.3145 0.0668 0.0244   0.049108
 H 0.4477 0.2752 0.0573   0.085148
 H 0.4357 0.1973 0.1723   0.085456
 H 0.5168 0.0662 0.9045   0.049448
 H 0.4624 0.2384 0.7598   0.091357
 H 0.5719 0.1391 0.71   0.081852
 H 0.311 0.1054 0.771   0.045006
 H 0.0746 0.0633 0.8396   0.075211
 H 0.1572 0.1358 0.9358   0.085507
 H 0.7811 0.1739 0.3469   0.047706
 H 0.5582 0.0993 0.4271   0.092861
 H 0.6394 0.9709 0.3866   0.088715
 H 0.6855 0.4332 0.5244   0.049108
 H 0.5523 0.2248 0.5573   0.085148
 H 0.5643 0.3027 0.6723   0.085456
 H 0.4832 0.4338 0.4045   0.049448
 H 0.5376 0.2616 0.2598   0.091357
 H 0.4281 0.3609 0.21   0.081853
 H 0.689 0.3946 0.271   0.045006
 H 0.9254 0.4367 0.3396   0.075211
 H 0.8428 0.3642 0.4358   0.085507
 H 0.2811 0.3261 0.3469   0.047706
 H 0.0582 0.4007 0.4271   0.092862
 H 0.1394 0.5291 0.3866   0.088716
 H 0.1855 0.0668 0.5244   0.049108
 H 0.0523 0.2752 0.5573   0.085148
 H 0.0643 0.1973 0.6723   0.085456
 H 0.9832 0.0662 0.4045   0.049448
 H 0.0376 0.2384 0.2598   0.091357
 H 0.9281 0.1391 0.21   0.081852
 H 0.189 0.1054 0.271   0.045006
 H 0.4254 0.0633 0.3396   0.075211
 H 0.3428 0.1358 0.4358   0.085507
 H 0.7189 0.1739 0.8469   0.047706
 H 0.9418 0.0993 0.9271   0.092862
 H 0.8606 0.9709 0.8866   0.088716
 H 0.8145 0.4332 0.0244   0.049108
 H 0.9477 0.2248 0.0573   0.085148
 H 0.9357 0.3027 0.1723   0.085456
 H 0.0168 0.4338 0.9045   0.049448
 H 0.9624 0.2616 0.7598   0.091357
 H 0.0719 0.3609 0.71   0.081853
 H 0.811 0.3946 0.771   0.045006
 H 0.5746 0.4367 0.8396   0.075211
 H 0.6572 0.3642 0.9358   0.085507
 H 0.7811 0.6739 0.1531   0.047706
 H 0.5582 0.5993 0.0729   0.092862
 H 0.6394 0.4709 0.1134   0.088716
 H 0.6855 0.9332 0.9756   0.049108
 H 0.5523 0.7248 0.9427   0.085148
 H 0.5643 0.8027 0.8277   0.085456
 H 0.4832 0.9338 0.0955   0.049448
 H 0.5376 0.7616 0.2402   0.091357
 H 0.4281 0.8609 0.29   0.081852
 H 0.689 0.8946 0.229   0.045006
 H 0.9254 0.9367 0.1604   0.075211
 H 0.8428 0.8642 0.0642   0.085507
 H 0.2189 0.8261 0.6531   0.047706
 H 0.4418 0.9007 0.5729   0.092862
 H 0.3606 0.0291 0.6134   0.088716
 H 0.3145 0.5668 0.4756   0.049108
 H 0.4477 0.7752 0.4427   0.085148
 H 0.4357 0.6973 0.3277   0.085456
 H 0.5168 0.5662 0.5955   0.049448
 H 0.4624 0.7384 0.7402   0.091357
 H 0.5719 0.6391 0.79   0.081853
 H 0.311 0.6054 0.729   0.045006
 H 0.0746 0.5633 0.6604   0.075211
 H 0.1572 0.6358 0.5642   0.085507
 C 0.7659 0.6386 0.6389   0.216987
 C 0.8865 0.5996 0.5952   -0.027645
 C 0.8414 0.5282 0.6174   -0.031212
 C 0.848 0.8904 0.4526   0.212563
 C 0.9188 0.7777 0.4361   -0.024031
 C 0.9126 0.821 0.3722   -0.031213
 C 0.0157 0.9034 0.6394   0.215101
 C 0.9854 0.8102 0.7166   -0.03959
 C 0.0473 0.8647 0.7436   -0.013851
 C 0.7615 0.8967 0.6989   0.214017
 C 0.6339 0.9209 0.6626   -0.019557
 C 0.6792 0.8783 0.6101   -0.031135
 C 0.2341 0.8614 0.1389   0.216987
 C 0.1135 0.9004 0.0952   -0.027645
 C 0.1586 0.9718 0.1174   -0.031212
 C 0.152 0.6096 0.9526   0.212563
 C 0.0812 0.7223 0.9361   -0.024031
 C 0.0874 0.679 0.8722   -0.031213
 C 0.9843 0.5966 0.1394   0.215101
 C 0.0146 0.6898 0.2166   -0.03959
 C 0.9527 0.6353 0.2436   -0.013851
 C 0.2385 0.6033 0.1989   0.214017
 C 0.3661 0.5791 0.1626   -0.019557
 C 0.3208 0.6217 0.1101   -0.031135
 C 0.2659 0.3614 0.8611   0.216987
 C 0.3865 0.4004 0.9048   -0.027645
 C 0.3414 0.4718 0.8826   -0.031212
 C 0.348 0.1096 0.0474   0.212563
 C 0.4188 0.2223 0.0639   -0.024031
 C 0.4126 0.179 0.1278   -0.031213
 C 0.5157 0.0966 0.8606   0.215101
 C 0.4854 0.1898 0.7834   -0.03959
 C 0.5473 0.1353 0.7564   -0.013851
 C 0.2615 0.1033 0.8011   0.214017
 C 0.1339 0.0791 0.8374   -0.019557
 C 0.1792 0.1217 0.8899   -0.031135
 C 0.7341 0.1386 0.3611   0.216987
 C 0.6135 0.0996 0.4048   -0.027645
 C 0.6586 0.0282 0.3826   -0.031212
 C 0.652 0.3904 0.5474   0.212563
 C 0.5812 0.2777 0.5639   -0.024031
 C 0.5874 0.321 0.6278   -0.031213
 C 0.4843 0.4034 0.3606   0.215101
 C 0.5146 0.3102 0.2834   -0.03959
 C 0.4527 0.3647 0.2564   -0.013851
 C 0.7385 0.3967 0.3011   0.214017
 C 0.8661 0.4209 0.3374   -0.019557
 C 0.8208 0.3783 0.3899   -0.031135
 C 0.2341 0.3614 0.3611   0.216987
 C 0.1135 0.4004 0.4048   -0.027645
 C 0.1586 0.4718 0.3826   -0.031212
 C 0.152 0.1096 0.5474   0.212563
 C 0.0812 0.2223 0.5639   -0.024031
 C 0.0874 0.179 0.6278   -0.031213
 C 0.9843 0.0966 0.3606   0.215101
 C 0.0146 0.1898 0.2834   -0.03959
 C 0.9527 0.1353 0.2564   -0.013851
 C 0.2385 0.1033 0.3011   0.214017
 C 0.3661 0.0791 0.3374   -0.019558
 C 0.3208 0.1217 0.3899   -0.031135
 C 0.7659 0.1386 0.8611   0.216987
 C 0.8865 0.0996 0.9048   -0.027645
 C 0.8414 0.0282 0.8826   -0.031212
 C 0.848 0.3904 0.0474   0.212563
 C 0.9188 0.2777 0.0639   -0.024031
 C 0.9126 0.321 0.1278   -0.031213
 C 0.0157 0.4034 0.8606   0.215101
 C 0.9854 0.3102 0.7834   -0.03959
 C 0.0473 0.3647 0.7564   -0.013851
 C 0.7615 0.3967 0.8011   0.214017
 C 0.6339 0.4209 0.8374   -0.019558
 C 0.6792 0.3783 0.8899   -0.031135
 C 0.7341 0.6386 0.1389   0.216987
 C 0.6135 0.5996 0.0952   -0.027645
 C 0.6586 0.5282 0.1174   -0.031212
 C 0.652 0.8904 0.9526   0.212563
 C 0.5812 0.7777 0.9361   -0.024031
 C 0.5874 0.821 0.8722   -0.031213
 C 0.4843 0.9034 0.1394   0.215101
 C 0.5146 0.8102 0.2166   -0.03959
 C 0.4527 0.8647 0.2436   -0.013851
 C 0.7385 0.8967 0.1989   0.214017
 C 0.8661 0.9209 0.1626   -0.019557
 C 0.8208 0.8783 0.1101   -0.031135
 C 0.2659 0.8614 0.6389   0.216987
 C 0.3865 0.9004 0.5952   -0.027645
 C 0.3414 0.9718 0.6174   -0.031212
 C 0.348 0.6096 0.4526   0.212563
 C 0.4188 0.7223 0.4361   -0.024031
 C 0.4126 0.679 0.3722   -0.031213
 C 0.5157 0.5966 0.6394   0.215101
 C 0.4854 0.6898 0.7166   -0.03959
 C 0.5473 0.6353 0.7436   -0.013851
 C 0.2615 0.6033 0.6989   0.214017
 C 0.1339 0.5791 0.6626   -0.019557
 C 0.1792 0.6217 0.6101   -0.031135
 N 0.7656 0.5539 0.6462   -0.372993
 N 0.8392 0.6694 0.6099   -0.370887
 N 0.869 0.8942 0.3835   -0.369205
 N 0.8775 0.821 0.4873   -0.369952
 N 0.0669 0.9241 0.6947   -0.372408
 N 0.9631 0.837 0.6508   -0.37891
 N 0.6873 0.9356 0.7176   -0.365948
 N 0.7594 0.8605 0.634   -0.368891
 N 0.2344 0.9461 0.1462   -0.372993
 N 0.1608 0.8306 0.1099   -0.370887
 N 0.131 0.6058 0.8835   -0.369205
 N 0.1225 0.679 0.9873   -0.369952
 N 0.9331 0.5759 0.1947   -0.372408
 N 0.0369 0.663 0.1508   -0.37891
 N 0.3127 0.5644 0.2176   -0.365948
 N 0.2406 0.6395 0.134   -0.368891
 N 0.2656 0.4461 0.8538   -0.372993
 N 0.3392 0.3306 0.8901   -0.370887
 N 0.369 0.1058 0.1165   -0.369205
 N 0.3775 0.179 0.0127   -0.369952
 N 0.5669 0.0759 0.8053   -0.372408
 N 0.4631 0.163 0.8492   -0.37891
 N 0.1873 0.0644 0.7824   -0.365948
 N 0.2594 0.1395 0.866   -0.368891
 N 0.7344 0.0539 0.3538   -0.372993
 N 0.6608 0.1694 0.3901   -0.370887
 N 0.631 0.3942 0.6165   -0.369205
 N 0.6225 0.321 0.5127   -0.369952
 N 0.4331 0.4241 0.3053   -0.372408
 N 0.5369 0.337 0.3492   -0.37891
 N 0.8127 0.4356 0.2824   -0.365948
 N 0.7406 0.3605 0.366   -0.368891
 N 0.2344 0.4461 0.3538   -0.372993
 N 0.1608 0.3306 0.3901   -0.370887
 N 0.131 0.1058 0.6165   -0.369205
 N 0.1225 0.179 0.5127   -0.369952
 N 0.9331 0.0759 0.3053   -0.372408
 N 0.0369 0.163 0.3492   -0.37891
 N 0.3127 0.0644 0.2824   -0.365948
 N 0.2406 0.1395 0.366   -0.368891
 N 0.7656 0.0539 0.8538   -0.372993
 N 0.8392 0.1694 0.8901   -0.370887
 N 0.869 0.3942 0.1165   -0.369205
 N 0.8775 0.321 0.0127   -0.369952
 N 0.0669 0.4241 0.8053   -0.372408
 N 0.9631 0.337 0.8492   -0.37891
 N 0.6873 0.4356 0.7824   -0.365948
 N 0.7594 0.3605 0.866   -0.368891
 N 0.7344 0.5539 0.1462   -0.372993
 N 0.6608 0.6694 0.1099   -0.370887
 N 0.631 0.8942 0.8835   -0.369205
 N 0.6225 0.821 0.9873   -0.369952
 N 0.4331 0.9241 0.1947   -0.372408
 N 0.5369 0.837 0.1508   -0.37891
 N 0.8127 0.9356 0.2176   -0.365948
 N 0.7406 0.8605 0.134   -0.368891
 N 0.2656 0.9461 0.6462   -0.372993
 N 0.3392 0.8306 0.6099   -0.370887
 N 0.369 0.6058 0.3835   -0.369205
 N 0.3775 0.679 0.4873   -0.369952
 N 0.5669 0.5759 0.6947   -0.372408
 N 0.4631 0.663 0.6508   -0.37891
 N 0.1873 0.5644 0.7176   -0.365948
 N 0.2594 0.6395 0.634   -0.368891
