{'_ref': 'TBD', '_srcid': 'CAKYAQ_clean', 'submitters': [{'name': 'Dalar Nazarian Jeff Camp and David Sholl', 'email': 'dalar@gatech.edu jcamp6@gatech.edu'}], '_method': 'VASP DFT with PBE;DDEC'}
data_ZnH4(CN)8
_symmetry_space_group_name_H-M   'P 1'
_cell_length_a   11.57129943
_cell_length_b   11.73600025
_cell_length_c   13.61900000
_cell_angle_alpha   92.86899992
_cell_angle_beta   114.44299873
_cell_angle_gamma   107.98799988
_symmetry_Int_Tables_number   1
_chemical_formula_structural   ZnH4(CN)8
_chemical_formula_sum   'Zn3 H12 C24 N24'
_cell_volume   1567.27129202
_cell_formula_units_Z   3
loop_
 _symmetry_equiv_pos_site_id
 _symmetry_equiv_pos_as_xyz
  1  'x, y, z'
loop_
 _atom_site_label
 _atom_site_fract_x
 _atom_site_fract_y
 _atom_site_fract_z
 _atom_site_charge
 Zn 0.10439 0.23392 0.95361   0.936257
 Zn 0.89561 0.76608 0.04639   0.936258
 Zn 0.0 0.5 0.0   0.361582
 H 0.6723 0.9293 0.025   0.077856
 H 0.1195 0.3754 0.575   0.112072
 H 0.3512 0.6023 0.4372   0.111229
 H 0.9077 0.5791 0.5944   0.107712
 H 0.513 0.3683 0.3777   0.112232
 H 0.5198 0.1898 0.9614   0.109844
 H 0.3277 0.0707 0.975   0.077857
 H 0.8805 0.6246 0.425   0.112072
 H 0.6488 0.3977 0.5628   0.111229
 H 0.0923 0.4209 0.4056   0.107712
 H 0.487 0.6317 0.6223   0.112233
 H 0.4802 0.8102 0.0386   0.109844
 C 0.737 0.1508 0.9842   0.366615
 C 0.0272 0.4422 0.7081   0.368468
 C 0.3291 0.4613 0.2679   0.366367
 C 0.0137 0.4713 0.6014   -0.031994
 C 0.4185 0.483 0.3872   -0.035072
 C 0.6032 0.9591 0.0146   -0.084292
 C 0.0708 0.4253 0.545   -0.085763
 C 0.4114 0.561 0.4622   -0.086464
 C 0.9448 0.5464 0.5564   -0.090973
 C 0.6146 0.0725 0.9912   -0.017609
 C 0.5077 0.4219 0.427   -0.086854
 C 0.5129 0.1125 0.9771   -0.087656
 C 0.263 0.8492 0.0158   0.366615
 C 0.9728 0.5578 0.2919   0.368468
 C 0.6709 0.5387 0.7321   0.366368
 C 0.9863 0.5287 0.3986   -0.031996
 C 0.5815 0.517 0.6128   -0.035076
 C 0.3968 0.0409 0.9854   -0.084297
 C 0.9292 0.5747 0.455   -0.085757
 C 0.5886 0.439 0.5378   -0.086453
 C 0.0552 0.4536 0.4436   -0.090967
 C 0.3854 0.9275 0.0088   -0.017607
 C 0.4923 0.5781 0.573   -0.086843
 C 0.4871 0.8875 0.0229   -0.087661
 N 0.3016 0.3637 0.1955   -0.359482
 N 0.8297 0.1127 0.9722   -0.38847
 N 0.0558 0.3532 0.8424   -0.149609
 N 0.0141 0.5105 0.781   -0.297468
 N 0.21 0.3742 0.0998   -0.148763
 N 0.0326 0.4527 0.8645   0.077696
 N 0.9205 0.2129 0.9705   -0.121981
 N 0.8847 0.3073 0.9807   0.066791
 N 0.1851 0.4748 0.1142   0.058919
 N 0.7691 0.2718 0.9893   -0.314287
 N 0.0534 0.344 0.7433   -0.358328
 N 0.2601 0.5323 0.2202   -0.307793
 N 0.6984 0.6363 0.8045   -0.359482
 N 0.1703 0.8873 0.0278   -0.38847
 N 0.9442 0.6468 0.1576   -0.149609
 N 0.9859 0.4895 0.219   -0.297468
 N 0.79 0.6258 0.9002   -0.148763
 N 0.9674 0.5473 0.1355   0.077695
 N 0.0795 0.7871 0.0295   -0.121981
 N 0.1153 0.6927 0.0193   0.066791
 N 0.8149 0.5252 0.8858   0.058918
 N 0.2309 0.7282 0.0107   -0.314289
 N 0.9466 0.656 0.2567   -0.358328
 N 0.7399 0.4677 0.7798   -0.307794
