{'_ref': 'TBD', '_srcid': 'CAKYAQ_clean', 'submitters': [{'name': 'Dalar Nazarian Jeff Camp and David Sholl', 'email': 'dalar@gatech.edu jcamp6@gatech.edu'}], '_method': 'VASP DFT with PBE;DDEC'}
data_MnH4(CN)8
_symmetry_space_group_name_H-M   'P 1'
_cell_length_a   11.69300034
_cell_length_b   11.99399995
_cell_length_c   13.75300000
_cell_angle_alpha   92.97000032
_cell_angle_beta   114.36000043
_cell_angle_gamma   108.35399806
_symmetry_Int_Tables_number   1
_chemical_formula_structural   MnH4(CN)8
_chemical_formula_sum   'Mn3 H12 C24 N24'
_cell_volume   1630.4612719
_cell_formula_units_Z   3
loop_
 _symmetry_equiv_pos_site_id
 _symmetry_equiv_pos_as_xyz
  1  'x, y, z'
loop_
 _atom_site_label
 _atom_site_fract_x
 _atom_site_fract_y
 _atom_site_fract_z
 _atom_site_charge
 Mn 0.8926 0.27154 0.04643   0.979738
 Mn 0.1074 0.72846 0.95357   0.97974
 Mn 0.0 0.0 0.0   0.168267
 H 0.3232 0.5616 0.9625   0.067126
 H 0.4898 0.3182 0.0514   0.114797
 H 0.8864 0.1262 0.4298   0.114423
 H 0.0978 0.9293 0.4079   0.107934
 H 0.641 0.894 0.5632   0.113095
 H 0.4909 0.1316 0.622   0.111918
 H 0.6768 0.4384 0.0375   0.067124
 H 0.5102 0.6818 0.9486   0.114795
 H 0.1136 0.8738 0.5702   0.114429
 H 0.9022 0.0707 0.5921   0.107935
 H 0.359 0.106 0.4368   0.113097
 H 0.5091 0.8684 0.378   0.111919
 C 0.2665 0.3511 0.0185   0.381596
 C 0.3865 0.4294 0.01   -0.022516
 C 0.3952 0.5362 0.9784   -0.075534
 C 0.4932 0.3915 0.0311   -0.090164
 C 0.9743 0.0606 0.2962   0.367103
 C 0.9886 0.0308 0.401   -0.031549
 C 0.9316 0.075 0.4576   -0.091584
 C 0.0577 0.9575 0.4445   -0.086125
 C 0.6713 0.0396 0.7301   0.374858
 C 0.5813 0.017 0.6128   -0.039778
 C 0.5848 0.9372 0.5385   -0.088861
 C 0.4953 0.0786 0.5732   -0.08953
 C 0.7335 0.6489 0.9815   0.381597
 C 0.6135 0.5706 0.99   -0.022525
 C 0.6048 0.4638 0.0216   -0.075511
 C 0.5068 0.6085 0.9689   -0.09014
 C 0.0257 0.9394 0.7038   0.367102
 C 0.0114 0.9692 0.599   -0.031549
 C 0.0684 0.925 0.5424   -0.091587
 C 0.9423 0.0425 0.5555   -0.086128
 C 0.3287 0.9604 0.2699   0.374858
 C 0.4187 0.983 0.3872   -0.039784
 C 0.4152 0.0628 0.4615   -0.088845
 C 0.5047 0.9214 0.4268   -0.089516
 N 0.1752 0.3886 0.029   -0.387538
 N 0.0831 0.2892 0.0307   -0.156418
 N 0.1191 0.1968 0.0212   0.127589
 N 0.2341 0.2339 0.0134   -0.333245
 N 0.9856 0.9934 0.2225   -0.310459
 N 0.9656 0.0507 0.1396   0.11491
 N 0.9455 0.1493 0.163   -0.169489
 N 0.9491 0.1576 0.2612   -0.351309
 N 0.6973 0.1335 0.8017   -0.348142
 N 0.7875 0.1243 0.8962   -0.180792
 N 0.8127 0.0262 0.8809   0.115087
 N 0.7389 0.9698 0.7765   -0.32131
 N 0.8248 0.6114 0.971   -0.387539
 N 0.9169 0.7108 0.9693   -0.156418
 N 0.8809 0.8032 0.9788   0.12759
 N 0.7659 0.7661 0.9866   -0.333244
 N 0.0144 0.0066 0.7775   -0.310458
 N 0.0344 0.9493 0.8604   0.114911
 N 0.0545 0.8507 0.837   -0.169489
 N 0.0509 0.8424 0.7388   -0.351309
 N 0.3027 0.8665 0.1983   -0.348142
 N 0.2125 0.8757 0.1038   -0.180792
 N 0.1873 0.9738 0.1191   0.115088
 N 0.2611 0.0302 0.2235   -0.321308
