{'_ref': 'TBD', '_srcid': 'CAKYAQ_clean', 'submitters': [{'name': 'Dalar Nazarian Jeff Camp and David Sholl', 'email': 'dalar@gatech.edu jcamp6@gatech.edu'}], '_method': 'VASP DFT with PBE;DDEC'}
data_Co3H12(C11O8)2
_symmetry_space_group_name_H-M   'P 1'
_cell_length_a   14.26160000
_cell_length_b   16.15250000
_cell_length_c   16.48670000
_cell_angle_alpha   90.00000000
_cell_angle_beta   90.00000000
_cell_angle_gamma   90.00000000
_symmetry_Int_Tables_number   1
_chemical_formula_structural   Co3H12(C11O8)2
_chemical_formula_sum   'Co12 H48 C88 O64'
_cell_volume   3797.88435643
_cell_formula_units_Z   4
loop_
 _symmetry_equiv_pos_site_id
 _symmetry_equiv_pos_as_xyz
  1  'x, y, z'
loop_
 _atom_site_label
 _atom_site_fract_x
 _atom_site_fract_y
 _atom_site_fract_z
 _atom_site_charge
 Co 0.52198 0.81942 0.39068   1.164186
 Co 0.97802 0.18058 0.89068   1.164186
 Co 0.47802 0.31942 0.10932   1.164186
 Co 0.02198 0.68058 0.60932   1.164186
 Co 0.47802 0.18058 0.60932   1.164186
 Co 0.02198 0.81942 0.10932   1.164186
 Co 0.52198 0.68058 0.89068   1.164186
 Co 0.97802 0.31942 0.39068   1.164186
 Co 0.5 0.0 0.5   1.272568
 Co 0.0 0.0 0.0   1.272568
 Co 0.5 0.5 0.0   1.272568
 Co 0.0 0.5 0.5   1.272568
 H 0.7664 0.9012 0.2638   0.11781
 H 0.9342 0.1002 0.2255   0.101327
 H 0.7521 0.0996 0.4144   0.110612
 H 0.3824 0.7565 0.627   0.170909
 H 0.4761 0.8041 0.6532   0.180861
 H 0.384 0.8556 0.6299   0.152201
 H 0.7336 0.0988 0.7638   0.11781
 H 0.5658 0.8998 0.7255   0.101327
 H 0.7479 0.9004 0.9144   0.110612
 H 0.1176 0.2435 0.127   0.170909
 H 0.0239 0.1959 0.1532   0.180861
 H 0.116 0.1444 0.1299   0.152201
 H 0.2336 0.4012 0.2362   0.11781
 H 0.0658 0.6002 0.2745   0.101327
 H 0.2479 0.5996 0.0856   0.110612
 H 0.6176 0.2565 0.873   0.170909
 H 0.5239 0.3041 0.8468   0.180861
 H 0.616 0.3556 0.8701   0.152201
 H 0.2664 0.5988 0.7362   0.11781
 H 0.4342 0.3998 0.7745   0.101327
 H 0.2521 0.4004 0.5856   0.110612
 H 0.8824 0.7435 0.373   0.170909
 H 0.9761 0.6959 0.3468   0.180861
 H 0.884 0.6444 0.3701   0.152201
 H 0.2336 0.0988 0.7362   0.11781
 H 0.0658 0.8998 0.7745   0.101327
 H 0.2479 0.9004 0.5856   0.110612
 H 0.6176 0.2435 0.373   0.170909
 H 0.5239 0.1959 0.3468   0.180861
 H 0.616 0.1444 0.3701   0.152201
 H 0.2664 0.9012 0.2362   0.11781
 H 0.4342 0.1002 0.2745   0.101327
 H 0.2521 0.0996 0.0856   0.110612
 H 0.8824 0.7565 0.873   0.170909
 H 0.9761 0.8041 0.8468   0.180861
 H 0.884 0.8556 0.8701   0.152201
 H 0.7664 0.5988 0.7638   0.11781
 H 0.9342 0.3998 0.7255   0.101327
 H 0.7521 0.4004 0.9144   0.110612
 H 0.3824 0.7435 0.127   0.170909
 H 0.4761 0.6959 0.1532   0.180861
 H 0.384 0.6444 0.1299   0.152201
 H 0.7336 0.4012 0.2638   0.11781
 H 0.5658 0.6002 0.2255   0.101327
 H 0.7479 0.5996 0.4144   0.110612
 H 0.1176 0.2565 0.627   0.170909
 H 0.0239 0.3041 0.6532   0.180861
 H 0.116 0.3556 0.6299   0.152201
 C 0.74412 0.99677 0.34296   -0.165242
 C 0.78644 0.95525 0.27837   0.024883
 C 0.85827 0.99378 0.23539   -0.151353
 C 0.88812 0.07272 0.25729   0.028006
 C 0.85111 0.11165 0.32518   -0.143986
 C 0.77825 0.07329 0.36811   0.019547
 C 0.65928 0.96032 0.38364   0.706426
 C 0.906 0.95249 0.1646   0.704226
 C 0.89098 0.19257 0.35313   0.632138
 C 0.452 0.80818 0.53087   0.779548
 C 0.42093 0.80589 0.61777   -0.513259
 C 0.75588 0.00323 0.84296   -0.165242
 C 0.71356 0.04475 0.77837   0.024883
 C 0.64173 0.00622 0.73539   -0.151353
 C 0.61188 0.92728 0.75729   0.028006
 C 0.64889 0.88835 0.82518   -0.143986
 C 0.72175 0.92671 0.86811   0.019547
 C 0.84072 0.03968 0.88364   0.706426
 C 0.594 0.04751 0.6646   0.704226
 C 0.60902 0.80743 0.85313   0.632138
 C 0.048 0.19182 0.03087   0.779548
 C 0.07907 0.19411 0.11777   -0.51326
 C 0.25588 0.49677 0.15704   -0.165242
 C 0.21356 0.45525 0.22163   0.024883
 C 0.14173 0.49378 0.26461   -0.151353
 C 0.11188 0.57272 0.24271   0.028006
 C 0.14889 0.61165 0.17482   -0.143986
 C 0.22175 0.57329 0.13189   0.019547
 C 0.34072 0.46032 0.11636   0.706426
 C 0.094 0.45249 0.3354   0.704226
 C 0.10902 0.69257 0.14687   0.632138
 C 0.548 0.30818 0.96913   0.779548
 C 0.57907 0.30589 0.88223   -0.513259
 C 0.24412 0.50323 0.65704   -0.165242
 C 0.28644 0.54475 0.72163   0.024883
 C 0.35827 0.50622 0.76461   -0.151353
 C 0.38812 0.42728 0.74271   0.028006
 C 0.35111 0.38835 0.67482   -0.143986
 C 0.27825 0.42671 0.63189   0.019547
 C 0.15928 0.53968 0.61636   0.706426
 C 0.406 0.54751 0.8354   0.704225
 C 0.39098 0.30743 0.64687   0.632138
 C 0.952 0.69182 0.46913   0.779548
 C 0.92093 0.69411 0.38223   -0.51326
 C 0.25588 0.00323 0.65704   -0.165242
 C 0.21356 0.04475 0.72163   0.024883
 C 0.14173 0.00622 0.76461   -0.151353
 C 0.11188 0.92728 0.74271   0.028006
 C 0.14889 0.88835 0.67482   -0.143986
 C 0.22175 0.92671 0.63189   0.019548
 C 0.34072 0.03968 0.61636   0.706426
 C 0.094 0.04751 0.8354   0.704226
 C 0.10902 0.80743 0.64687   0.632137
 C 0.548 0.19182 0.46913   0.779548
 C 0.57907 0.19411 0.38223   -0.51326
 C 0.24412 0.99677 0.15704   -0.165242
 C 0.28644 0.95525 0.22163   0.024883
 C 0.35827 0.99378 0.26461   -0.151353
 C 0.38812 0.07272 0.24271   0.028006
 C 0.35111 0.11165 0.17482   -0.143986
 C 0.27825 0.07329 0.13189   0.019548
 C 0.15928 0.96032 0.11636   0.706426
 C 0.406 0.95249 0.3354   0.704226
 C 0.39098 0.19257 0.14687   0.632137
 C 0.952 0.80818 0.96913   0.779548
 C 0.92093 0.80589 0.88223   -0.51326
 C 0.74412 0.50323 0.84296   -0.165242
 C 0.78644 0.54475 0.77837   0.024883
 C 0.85827 0.50622 0.73539   -0.151353
 C 0.88812 0.42728 0.75729   0.028006
 C 0.85111 0.38835 0.82518   -0.143986
 C 0.77825 0.42671 0.86811   0.019548
 C 0.65928 0.53968 0.88364   0.706426
 C 0.906 0.54751 0.6646   0.704226
 C 0.89098 0.30743 0.85313   0.632137
 C 0.452 0.69182 0.03087   0.779548
 C 0.42093 0.69411 0.11777   -0.51326
 C 0.75588 0.49677 0.34296   -0.165242
 C 0.71356 0.45525 0.27837   0.024883
 C 0.64173 0.49378 0.23539   -0.151353
 C 0.61188 0.57272 0.25729   0.028006
 C 0.64889 0.61165 0.32518   -0.143986
 C 0.72175 0.57329 0.36811   0.019548
 C 0.84072 0.46032 0.38364   0.706426
 C 0.594 0.45249 0.1646   0.704226
 C 0.60902 0.69257 0.35313   0.632137
 C 0.048 0.30818 0.53087   0.779548
 C 0.07907 0.30589 0.61777   -0.51326
 O 0.63225 0.99531 0.44815   -0.583293
 O 0.62196 0.89866 0.34959   -0.574807
 O 0.90957 0.87432 0.16419   -0.559453
 O 0.9395 0.000489999999999 0.11238   -0.585683
 O 0.95577 0.2248 0.31051   -0.538031
 O 0.86284 0.22539 0.41729   -0.525193
 O 0.50344 0.86838 0.50635   -0.665673
 O 0.43306 0.75129 0.48268   -0.522992
 O 0.86775 0.00469 0.94815   -0.583292
 O 0.87804 0.10134 0.84959   -0.574807
 O 0.59043 0.12568 0.66419   -0.559453
 O 0.5605 0.99951 0.61238   -0.585682
 O 0.54423 0.7752 0.81051   -0.538031
 O 0.63716 0.77461 0.91729   -0.525193
 O 0.99656 0.13162 0.00635   -0.665672
 O 0.06694 0.24871 0.98268   -0.522992
 O 0.36775 0.49531 0.05185   -0.583293
 O 0.37804 0.39866 0.15041   -0.574807
 O 0.09043 0.37432 0.33581   -0.559453
 O 0.0605 0.50049 0.38762   -0.585683
 O 0.04423 0.7248 0.18949   -0.538031
 O 0.13716 0.72539 0.08271   -0.525193
 O 0.49656 0.36838 0.99365   -0.665673
 O 0.56694 0.25129 0.01732   -0.522992
 O 0.13225 0.50469 0.55185   -0.583292
 O 0.12196 0.60134 0.65041   -0.574807
 O 0.40957 0.62568 0.83581   -0.559453
 O 0.4395 0.49951 0.88762   -0.585682
 O 0.45577 0.2752 0.68949   -0.538031
 O 0.36284 0.27461 0.58271   -0.525193
 O 0.00344 0.63162 0.49365   -0.665672
 O 0.93306 0.74871 0.51732   -0.522992
 O 0.36775 0.00469 0.55185   -0.583293
 O 0.37804 0.10134 0.65041   -0.574806
 O 0.09043 0.12568 0.83581   -0.559453
 O 0.0605 0.99951 0.88762   -0.585683
 O 0.04423 0.7752 0.68949   -0.538031
 O 0.13716 0.77461 0.58271   -0.525192
 O 0.49656 0.13162 0.49365   -0.665673
 O 0.56694 0.24871 0.51732   -0.522991
 O 0.13225 0.99531 0.05185   -0.583292
 O 0.12196 0.89866 0.15041   -0.574806
 O 0.40957 0.87432 0.33581   -0.559453
 O 0.4395 0.000489999999999 0.38762   -0.585682
 O 0.45577 0.2248 0.18949   -0.538031
 O 0.36284 0.22539 0.08271   -0.525192
 O 0.00344 0.86838 0.99365   -0.665672
 O 0.93306 0.75129 0.01732   -0.522991
 O 0.63225 0.50469 0.94815   -0.583293
 O 0.62196 0.60134 0.84959   -0.574806
 O 0.90957 0.62568 0.66419   -0.559453
 O 0.9395 0.49951 0.61238   -0.585683
 O 0.95577 0.2752 0.81051   -0.538031
 O 0.86284 0.27461 0.91729   -0.525192
 O 0.50344 0.63162 0.00635   -0.665673
 O 0.43306 0.74871 0.98268   -0.522991
 O 0.86775 0.49531 0.44815   -0.583292
 O 0.87804 0.39866 0.34959   -0.574806
 O 0.59043 0.37432 0.16419   -0.559453
 O 0.5605 0.50049 0.11238   -0.585682
 O 0.54423 0.7248 0.31051   -0.538031
 O 0.63716 0.72539 0.41729   -0.525192
 O 0.99656 0.36838 0.50635   -0.665672
 O 0.06694 0.25129 0.48268   -0.522991
