{'_ref': 'TBD', '_srcid': 'CAKYAQ_clean', 'submitters': [{'name': 'Dalar Nazarian Jeff Camp and David Sholl', 'email': 'dalar@gatech.edu jcamp6@gatech.edu'}], '_method': 'VASP DFT with PBE;DDEC'}
data_Fe3H33C57N3O13
_symmetry_space_group_name_H-M   'P 1'
_cell_length_a   18.83129960
_cell_length_b   18.83129995
_cell_length_c   18.83130000
_cell_angle_alpha   61.45600004
_cell_angle_beta   61.45599947
_cell_angle_gamma   61.45599983
_symmetry_Int_Tables_number   1
_chemical_formula_structural   Fe3H33C57N3O13
_chemical_formula_sum   'Fe6 H66 C114 N6 O26'
_cell_volume   4876.37787448
_cell_formula_units_Z   2
loop_
 _symmetry_equiv_pos_site_id
 _symmetry_equiv_pos_as_xyz
  1  'x, y, z'
loop_
 _atom_site_label
 _atom_site_fract_x
 _atom_site_fract_y
 _atom_site_fract_z
 _atom_site_charge
 Fe 0.34882 0.15118 0.25   0.866073
 Fe 0.25 0.34882 0.15118   0.866073
 Fe 0.15118 0.25 0.34882   0.866073
 Fe 0.65118 0.84882 0.75   0.866073
 Fe 0.75 0.65118 0.84882   0.866073
 Fe 0.84882 0.75 0.65118   0.866073
 H 0.4811 0.0311 0.348   0.073168
 H 0.4964 0.918 0.4749   0.117373
 H 0.5509 0.8859 0.5782   0.105923
 H 0.792 0.8251 0.4153   0.109525
 H 0.7377 0.8589 0.3101   0.114508
 H 0.348 0.4811 0.0311   0.073168
 H 0.4749 0.4964 0.918   0.117373
 H 0.5782 0.5509 0.8859   0.105923
 H 0.4153 0.792 0.8251   0.109524
 H 0.3101 0.7377 0.8589   0.114508
 H 0.0311 0.348 0.4811   0.073168
 H 0.918 0.4749 0.4964   0.117373
 H 0.8859 0.5782 0.5509   0.105923
 H 0.8251 0.4153 0.792   0.109524
 H 0.8589 0.3101 0.7377   0.114508
 H 0.4689 0.0189 0.152   0.073168
 H 0.582 0.0036 0.0251   0.117373
 H 0.6141 0.9491 0.9218   0.105923
 H 0.6749 0.708 0.0847   0.109525
 H 0.6411 0.7623 0.1899   0.114508
 H 0.0189 0.152 0.4689   0.073168
 H 0.0036 0.0251 0.582   0.117373
 H 0.9491 0.9218 0.6141   0.105923
 H 0.708 0.0847 0.6749   0.109524
 H 0.7623 0.1899 0.6411   0.114508
 H 0.152 0.4689 0.0189   0.073168
 H 0.0251 0.582 0.0036   0.117373
 H 0.9218 0.6141 0.9491   0.105923
 H 0.0847 0.6749 0.708   0.109524
 H 0.1899 0.6411 0.7623   0.114508
 H 0.5189 0.9689 0.652   0.073168
 H 0.5036 0.082 0.5251   0.117373
 H 0.4491 0.1141 0.4218   0.105923
 H 0.208 0.1749 0.5847   0.109524
 H 0.2623 0.1411 0.6899   0.114507
 H 0.652 0.5189 0.9689   0.073168
 H 0.5251 0.5036 0.082   0.117373
 H 0.4218 0.4491 0.1141   0.105923
 H 0.5847 0.208 0.1749   0.109524
 H 0.6899 0.2623 0.1411   0.114507
 H 0.9689 0.652 0.5189   0.073168
 H 0.082 0.5251 0.5036   0.117373
 H 0.1141 0.4218 0.4491   0.105923
 H 0.1749 0.5847 0.208   0.109524
 H 0.1411 0.6899 0.2623   0.114507
 H 0.5311 0.9811 0.848   0.073168
 H 0.418 0.9964 0.9749   0.117373
 H 0.3859 0.0509 0.0782   0.105923
 H 0.3251 0.292 0.9153   0.109524
 H 0.3589 0.2377 0.8101   0.114507
 H 0.9811 0.848 0.5311   0.073168
 H 0.9964 0.9749 0.418   0.117373
 H 0.0509 0.0782 0.3859   0.105923
 H 0.292 0.9153 0.3251   0.109524
 H 0.2377 0.8101 0.3589   0.114507
 H 0.848 0.5311 0.9811   0.073168
 H 0.9749 0.418 0.9964   0.117373
 H 0.0782 0.3859 0.0509   0.105923
 H 0.9153 0.3251 0.292   0.109524
 H 0.8101 0.3589 0.2377   0.114507
 H 0.65805 0.84195 0.25   0.111484
 H 0.25 0.65805 0.84195   0.111484
 H 0.84195 0.25 0.65805   0.111484
 H 0.34195 0.15805 0.75   0.111484
 H 0.75 0.34195 0.15805   0.111484
 H 0.15805 0.75 0.34195   0.111484
 C 0.50371 0.00371 0.30691   0.108999
 C 0.57694 0.93154 0.30924   -0.03606
 C 0.71257 0.83835 0.57091   0.649778
 C 0.61039 0.89459 0.38189   0.059459
 C 0.5565 0.9001 0.4621   -0.145143
 C 0.58894 0.88004 0.52394   -0.036688
 C 0.67602 0.85162 0.50752   -0.118818
 C 0.73209 0.84419 0.42699   -0.05041
 C 0.69987 0.86487 0.36437   -0.155331
 C 0.30691 0.50371 0.00371   0.108999
 C 0.30924 0.57694 0.93154   -0.03606
 C 0.57091 0.71257 0.83835   0.649778
 C 0.38189 0.61039 0.89459   0.059459
 C 0.4621 0.5565 0.9001   -0.145143
 C 0.52394 0.58894 0.88004   -0.036688
 C 0.50752 0.67602 0.85162   -0.118818
 C 0.42699 0.73209 0.84419   -0.05041
 C 0.36437 0.69987 0.86487   -0.155331
 C 0.00371 0.30691 0.50371   0.108999
 C 0.93154 0.30924 0.57694   -0.03606
 C 0.83835 0.57091 0.71257   0.649777
 C 0.89459 0.38189 0.61039   0.059459
 C 0.9001 0.4621 0.5565   -0.145143
 C 0.88004 0.52394 0.58894   -0.036688
 C 0.85162 0.50752 0.67602   -0.118818
 C 0.84419 0.42699 0.73209   -0.050409
 C 0.86487 0.36437 0.69987   -0.155331
 C 0.49629 0.99629 0.19309   0.108999
 C 0.56846 0.92306 0.19076   -0.03606
 C 0.66165 0.78743 0.92909   0.649777
 C 0.60541 0.88961 0.11811   0.059459
 C 0.5999 0.9435 0.0379   -0.145143
 C 0.61996 0.91106 0.97606   -0.036688
 C 0.64838 0.82398 0.99248   -0.118818
 C 0.65581 0.76791 0.07301   -0.050409
 C 0.63513 0.80013 0.13563   -0.155331
 C 0.99629 0.19309 0.49629   0.108999
 C 0.92306 0.19076 0.56846   -0.03606
 C 0.78743 0.92909 0.66165   0.649777
 C 0.88961 0.11811 0.60541   0.059459
 C 0.9435 0.0379 0.5999   -0.145143
 C 0.91106 0.97606 0.61996   -0.036688
 C 0.82398 0.99248 0.64838   -0.118818
 C 0.76791 0.07301 0.65581   -0.05041
 C 0.80013 0.13563 0.63513   -0.155331
 C 0.19309 0.49629 0.99629   0.108999
 C 0.19076 0.56846 0.92306   -0.03606
 C 0.92909 0.66165 0.78743   0.649777
 C 0.11811 0.60541 0.88961   0.059459
 C 0.0379 0.5999 0.9435   -0.145143
 C 0.97606 0.61996 0.91106   -0.036688
 C 0.99248 0.64838 0.82398   -0.118818
 C 0.07301 0.65581 0.76791   -0.05041
 C 0.13563 0.63513 0.80013   -0.155331
 C 0.49629 0.99629 0.69309   0.108999
 C 0.42306 0.06846 0.69076   -0.03606
 C 0.28743 0.16165 0.42909   0.649778
 C 0.38961 0.10541 0.61811   0.059459
 C 0.4435 0.0999 0.5379   -0.145143
 C 0.41106 0.11996 0.47606   -0.036688
 C 0.32398 0.14838 0.49248   -0.118818
 C 0.26791 0.15581 0.57301   -0.05041
 C 0.30013 0.13513 0.63563   -0.155331
 C 0.69309 0.49629 0.99629   0.108999
 C 0.69076 0.42306 0.06846   -0.03606
 C 0.42909 0.28743 0.16165   0.649778
 C 0.61811 0.38961 0.10541   0.059459
 C 0.5379 0.4435 0.0999   -0.145143
 C 0.47606 0.41106 0.11996   -0.036688
 C 0.49248 0.32398 0.14838   -0.118818
 C 0.57301 0.26791 0.15581   -0.05041
 C 0.63563 0.30013 0.13513   -0.155331
 C 0.99629 0.69309 0.49629   0.108999
 C 0.06846 0.69076 0.42306   -0.03606
 C 0.16165 0.42909 0.28743   0.649777
 C 0.10541 0.61811 0.38961   0.059459
 C 0.0999 0.5379 0.4435   -0.145143
 C 0.11996 0.47606 0.41106   -0.036688
 C 0.14838 0.49248 0.32398   -0.118818
 C 0.15581 0.57301 0.26791   -0.050409
 C 0.13513 0.63563 0.30013   -0.155331
 C 0.50371 0.00371 0.80691   0.108999
 C 0.43154 0.07694 0.80924   -0.03606
 C 0.33835 0.21257 0.07091   0.649777
 C 0.39459 0.11039 0.88189   0.059459
 C 0.4001 0.0565 0.9621   -0.145143
 C 0.38004 0.08894 0.02394   -0.036688
 C 0.35162 0.17602 0.00752   -0.118818
 C 0.34419 0.23209 0.92699   -0.050409
 C 0.36487 0.19987 0.86437   -0.155331
 C 0.00371 0.80691 0.50371   0.108999
 C 0.07694 0.80924 0.43154   -0.03606
 C 0.21257 0.07091 0.33835   0.649777
 C 0.11039 0.88189 0.39459   0.059459
 C 0.0565 0.9621 0.4001   -0.145143
 C 0.08894 0.02394 0.38004   -0.036688
 C 0.17602 0.00752 0.35162   -0.118818
 C 0.23209 0.92699 0.34419   -0.05041
 C 0.19987 0.86437 0.36487   -0.155331
 C 0.80691 0.50371 0.00371   0.108999
 C 0.80924 0.43154 0.07694   -0.03606
 C 0.07091 0.33835 0.21257   0.649777
 C 0.88189 0.39459 0.11039   0.059459
 C 0.9621 0.4001 0.0565   -0.145143
 C 0.02394 0.38004 0.08894   -0.036688
 C 0.00752 0.35162 0.17602   -0.118818
 C 0.92699 0.34419 0.23209   -0.05041
 C 0.86437 0.36487 0.19987   -0.155331
 C 0.60875 0.89125 0.25   -0.086558
 C 0.25 0.60875 0.89125   -0.086558
 C 0.89125 0.25 0.60875   -0.086558
 C 0.39125 0.10875 0.75   -0.086558
 C 0.75 0.39125 0.10875   -0.086558
 C 0.10875 0.75 0.39125   -0.086558
 N 0.46375 0.03625 0.25   -0.21553
 N 0.25 0.46375 0.03625   -0.21553
 N 0.03625 0.25 0.46375   -0.21553
 N 0.53625 0.96375 0.75   -0.21553
 N 0.75 0.53625 0.96375   -0.21553
 N 0.96375 0.75 0.53625   -0.21553
 O 0.66204 0.87496 0.62677   -0.519759
 O 0.78693 0.78697 0.56848   -0.506218
 O 0.62677 0.66204 0.87496   -0.519759
 O 0.56848 0.78693 0.78697   -0.506218
 O 0.87496 0.62677 0.66204   -0.519759
 O 0.78697 0.56848 0.78693   -0.506218
 O 0.62504 0.83796 0.87323   -0.519759
 O 0.71303 0.71307 0.93152   -0.506218
 O 0.83796 0.87323 0.62504   -0.519759
 O 0.71307 0.93152 0.71303   -0.506218
 O 0.87323 0.62504 0.83796   -0.519759
 O 0.93152 0.71303 0.71307   -0.506218
 O 0.33796 0.12504 0.37323   -0.519759
 O 0.21307 0.21303 0.43152   -0.506218
 O 0.37323 0.33796 0.12504   -0.519759
 O 0.43152 0.21307 0.21303   -0.506218
 O 0.12504 0.37323 0.33796   -0.519759
 O 0.21303 0.43152 0.21307   -0.506218
 O 0.37496 0.16204 0.12677   -0.519759
 O 0.28697 0.28693 0.06848   -0.506218
 O 0.16204 0.12677 0.37496   -0.519759
 O 0.28693 0.06848 0.28697   -0.506218
 O 0.12677 0.37496 0.16204   -0.519759
 O 0.06848 0.28697 0.28693   -0.506218
 O 0.25 0.25 0.25   -0.64824
 O 0.75 0.75 0.75   -0.64824
