{'_ref': 'TBD', '_srcid': 'CAKYAQ_clean', 'submitters': [{'name': 'Dalar Nazarian Jeff Camp and David Sholl', 'email': 'dalar@gatech.edu jcamp6@gatech.edu'}], '_method': 'VASP DFT with PBE;DDEC'}
data_Zn2H14C28N4O9
_symmetry_space_group_name_H-M   'P 1'
_cell_length_a   12.99700000
_cell_length_b   13.83589965
_cell_length_c   21.92420000
_cell_angle_alpha   94.92579866
_cell_angle_beta   90.00000000
_cell_angle_gamma   90.00000000
_symmetry_Int_Tables_number   1
_chemical_formula_structural   Zn2H14C28N4O9
_chemical_formula_sum   'Zn8 H56 C112 N16 O36'
_cell_volume   3927.96259594
_cell_formula_units_Z   4
loop_
 _symmetry_equiv_pos_site_id
 _symmetry_equiv_pos_as_xyz
  1  'x, y, z'
loop_
 _atom_site_label
 _atom_site_fract_x
 _atom_site_fract_y
 _atom_site_fract_z
 _atom_site_charge
 Zn 0.27667 0.42679 0.16127   0.978547
 Zn 0.6064 0.00522 0.22825   1.038347
 Zn 0.77667 0.07321 0.33873   0.978547
 Zn 0.1064 0.49478 0.27175   1.038347
 Zn 0.72333 0.57321 0.83873   0.978547
 Zn 0.3936 0.99478 0.77175   1.038347
 Zn 0.22333 0.92679 0.66127   0.978547
 Zn 0.8936 0.50522 0.72825   1.038347
 H 0.3408 0.7717 0.2505   0.089856
 H 0.3637 0.8943 0.0953   0.125904
 H 0.1614 0.6664 0.1137   0.122572
 H 0.9994 0.6852 0.9452   0.113175
 H 0.0718 0.7674 0.778   0.102447
 H 0.2442 0.8596 0.9217   0.11604
 H 0.1769 0.427 0.0288   0.083869
 H 0.1993 0.5011 0.9428   0.133067
 H 0.3273 0.5814 0.9248   0.112153
 H 0.504 0.6863 0.9837   0.117413
 H 0.5955 0.7157 0.0681   0.136594
 H 0.6258 0.6998 0.1756   0.125682
 H 0.5803 0.6293 0.2622   0.140638
 H 0.4495 0.5096 0.2574   0.093648
 H 0.8408 0.7283 0.2495   0.089857
 H 0.8637 0.6057 0.4047   0.125904
 H 0.6614 0.8336 0.3863   0.122572
 H 0.4994 0.8148 0.5548   0.113175
 H 0.5718 0.7326 0.722   0.102447
 H 0.7442 0.6404 0.5783   0.11604
 H 0.6769 0.073 0.4712   0.083869
 H 0.6993 0.9989 0.5572   0.133067
 H 0.8273 0.9186 0.5752   0.112153
 H 0.004 0.8137 0.5163   0.117413
 H 0.0955 0.7843 0.4319   0.136594
 H 0.1258 0.8002 0.3244   0.125682
 H 0.0803 0.8707 0.2378   0.140638
 H 0.9495 0.9904 0.2426   0.093648
 H 0.6592 0.2283 0.7495   0.089857
 H 0.6363 0.1057 0.9047   0.125904
 H 0.8386 0.3336 0.8863   0.122572
 H 0.000599999999999 0.3148 0.0548   0.113175
 H 0.9282 0.2326 0.222   0.102447
 H 0.7558 0.1404 0.0783   0.11604
 H 0.8231 0.573 0.9712   0.083869
 H 0.8007 0.4989 0.0572   0.133067
 H 0.6727 0.4186 0.0752   0.112153
 H 0.496 0.3137 0.0163   0.117414
 H 0.4045 0.2843 0.9319   0.136595
 H 0.3742 0.3002 0.8244   0.125682
 H 0.4197 0.3707 0.7378   0.140638
 H 0.5505 0.4904 0.7426   0.093648
 H 0.1592 0.2717 0.7505   0.089857
 H 0.1363 0.3943 0.5953   0.125904
 H 0.3386 0.1664 0.6137   0.122572
 H 0.5006 0.1852 0.4452   0.113175
 H 0.4282 0.2674 0.278   0.102447
 H 0.2558 0.3596 0.4217   0.11604
 H 0.3231 0.927 0.5288   0.083869
 H 0.3007 0.0011 0.4428   0.133067
 H 0.1727 0.0814 0.4248   0.112153
 H 0.996 0.1863 0.4837   0.117414
 H 0.9045 0.2157 0.5681   0.136595
 H 0.8742 0.1998 0.6756   0.125682
 H 0.9197 0.1293 0.7622   0.140638
 H 0.0505 0.0096 0.7574   0.093648
 C 0.2155 0.6329 0.2251   0.708119
 C 0.2467 0.7044 0.1876   -0.150158
 C 0.3201 0.7734 0.21   0.008134
 C 0.3635 0.8426 0.1776   -0.133764
 C 0.3324 0.8499 0.1189   -0.086367
 C 0.2506 0.7887 0.0937   0.10004
 C 0.2104 0.7103 0.1302   -0.072017
 C 0.1274 0.7664 0.9429   -0.002474
 C 0.0422 0.7172 0.9195   -0.041225
 C 0.0205 0.7156 0.8579   -0.148105
 C 0.0845 0.7699 0.8198   0.0065
 C 0.1651 0.8264 0.8447   -0.147239
 C 0.1887 0.8241 0.905   -0.049038
 C 0.4477 0.9012 0.2002   0.697368
 C 0.228 0.8825 0.8023   0.710813
 C 0.9383 0.6545 0.831   0.740976
 C 0.2321 0.4696 0.0272   0.238307
 C 0.2483 0.512 0.9735   -0.151625
 C 0.3176 0.56 0.9635   0.007048
 C 0.3885 0.5858 0.0123   -0.034422
 C 0.485 0.6554 0.018   -0.10328
 C 0.5406 0.6723 0.0683   -0.086418
 C 0.5198 0.6286 0.1211   -0.003179
 C 0.5728 0.6547 0.1747   0.003968
 C 0.5463 0.6124 0.2254   -0.151956
 C 0.4639 0.541 0.2225   0.195718
 C 0.432 0.5631 0.122   0.140135
 C 0.3694 0.5425 0.0691   0.118317
 C 0.7155 0.8671 0.2749   0.708118
 C 0.7467 0.7956 0.3124   -0.150158
 C 0.8201 0.7266 0.29   0.008134
 C 0.8635 0.6574 0.3224   -0.133764
 C 0.8324 0.6501 0.3811   -0.086367
 C 0.7506 0.7113 0.4063   0.10004
 C 0.7104 0.7897 0.3698   -0.072017
 C 0.6274 0.7336 0.5571   -0.002474
 C 0.5422 0.7828 0.5805   -0.041224
 C 0.5205 0.7844 0.6421   -0.148106
 C 0.5845 0.7301 0.6802   0.0065
 C 0.6651 0.6736 0.6553   -0.147239
 C 0.6887 0.6759 0.595   -0.049038
 C 0.9477 0.5988 0.2998   0.697368
 C 0.728 0.6175 0.6977   0.710813
 C 0.4383 0.8455 0.669   0.740976
 C 0.7321 0.0304 0.4728   0.238307
 C 0.7483 0.988 0.5265   -0.151625
 C 0.8176 0.94 0.5365   0.007048
 C 0.8885 0.9142 0.4877   -0.034422
 C 0.985 0.8446 0.482   -0.10328
 C 0.0406 0.8277 0.4317   -0.086418
 C 0.0198 0.8714 0.3789   -0.003179
 C 0.0728 0.8453 0.3253   0.003968
 C 0.0463 0.8876 0.2746   -0.151956
 C 0.9639 0.959 0.2775   0.195718
 C 0.932 0.9369 0.378   0.140135
 C 0.8694 0.9575 0.4309   0.118317
 C 0.7845 0.3671 0.7749   0.708119
 C 0.7533 0.2956 0.8124   -0.150158
 C 0.6799 0.2266 0.79   0.008134
 C 0.6365 0.1574 0.8224   -0.133764
 C 0.6676 0.1501 0.8811   -0.086367
 C 0.7494 0.2113 0.9063   0.10004
 C 0.7896 0.2897 0.8698   -0.072017
 C 0.8726 0.2336 0.0571   -0.002475
 C 0.9578 0.2828 0.0805   -0.041224
 C 0.9795 0.2844 0.1421   -0.148106
 C 0.9155 0.2301 0.1802   0.006501
 C 0.8349 0.1736 0.1553   -0.147239
 C 0.8113 0.1759 0.095   -0.049038
 C 0.5523 0.0988 0.7998   0.697369
 C 0.772 0.1175 0.1977   0.710813
 C 0.0617 0.3455 0.169   0.740976
 C 0.7679 0.5304 0.9728   0.238307
 C 0.7517 0.488 0.0265   -0.151625
 C 0.6824 0.44 0.0365   0.007048
 C 0.6115 0.4142 0.9877   -0.034421
 C 0.515 0.3446 0.982   -0.103279
 C 0.4594 0.3277 0.9317   -0.086418
 C 0.4802 0.3714 0.8789   -0.003179
 C 0.4272 0.3453 0.8253   0.003968
 C 0.4537 0.3876 0.7746   -0.151956
 C 0.5361 0.459 0.7775   0.195718
 C 0.568 0.4369 0.878   0.140135
 C 0.6306 0.4575 0.9309   0.118317
 C 0.2845 0.1329 0.7251   0.708118
 C 0.2533 0.2044 0.6876   -0.150158
 C 0.1799 0.2734 0.71   0.008134
 C 0.1365 0.3426 0.6776   -0.133764
 C 0.1676 0.3499 0.6189   -0.086367
 C 0.2494 0.2887 0.5937   0.10004
 C 0.2896 0.2103 0.6302   -0.072017
 C 0.3726 0.2664 0.4429   -0.002475
 C 0.4578 0.2172 0.4195   -0.041224
 C 0.4795 0.2156 0.3579   -0.148106
 C 0.4155 0.2699 0.3198   0.006501
 C 0.3349 0.3264 0.3447   -0.147239
 C 0.3113 0.3241 0.405   -0.049038
 C 0.0523 0.4012 0.7002   0.697369
 C 0.272 0.3825 0.3023   0.710813
 C 0.5617 0.1545 0.331   0.740976
 C 0.2679 0.9696 0.5272   0.238307
 C 0.2517 0.012 0.4735   -0.151625
 C 0.1824 0.06 0.4635   0.007048
 C 0.1115 0.0858 0.5123   -0.034421
 C 0.015 0.1554 0.518   -0.103279
 C 0.9594 0.1723 0.5683   -0.086418
 C 0.9802 0.1286 0.6211   -0.003179
 C 0.9272 0.1547 0.6747   0.003967
 C 0.9537 0.1124 0.7254   -0.151955
 C 0.0361 0.041 0.7225   0.195718
 C 0.068 0.0631 0.622   0.140135
 C 0.1306 0.0425 0.5691   0.118317
 N 0.2876 0.4848 0.0742   -0.348649
 N 0.4093 0.519 0.1733   -0.372166
 N 0.2262 0.8024 0.0296   -0.259464
 N 0.1535 0.7599 0.0086   0.440597
 N 0.7876 0.0152 0.4258   -0.348649
 N 0.9093 0.981 0.3267   -0.372166
 N 0.7262 0.6976 0.4704   -0.259464
 N 0.6535 0.7401 0.4914   0.440597
 N 0.7124 0.5152 0.9258   -0.348649
 N 0.5907 0.481 0.8267   -0.372166
 N 0.7738 0.1976 0.9704   -0.259464
 N 0.8465 0.2401 0.9914   0.440598
 N 0.2124 0.9848 0.5742   -0.348649
 N 0.0907 0.019 0.6733   -0.372166
 N 0.2738 0.3024 0.5296   -0.259464
 N 0.3465 0.2599 0.5086   0.440598
 O 0.1806 0.5535 0.2001   -0.667002
 O 0.2093 0.6455 0.2803   -0.585556
 O 0.4708 0.8962 0.2569   -0.67104
 O 0.4913 0.9524 0.1719   -0.570998
 O 0.3024 0.9301 0.8272   -0.580273
 O 0.2015 0.8817 0.7486   -0.628992
 O 0.862 0.6387 0.8618   -0.61
 O 0.952 0.6222 0.7758   -0.617891
 O 0.0726 0.7109 0.0358   -0.472697
 O 0.6806 0.9465 0.2999   -0.667002
 O 0.7093 0.8545 0.2197   -0.585556
 O 0.9708 0.6038 0.2431   -0.67104
 O 0.9913 0.5476 0.3281   -0.570998
 O 0.8024 0.5699 0.6728   -0.580273
 O 0.7015 0.6183 0.7514   -0.628992
 O 0.362 0.8613 0.6382   -0.61
 O 0.452 0.8778 0.7242   -0.617892
 O 0.5726 0.7891 0.4642   -0.472697
 O 0.8194 0.4465 0.7999   -0.667002
 O 0.7907 0.3545 0.7197   -0.585556
 O 0.5292 0.1038 0.7431   -0.67104
 O 0.5087 0.0476 0.8281   -0.570998
 O 0.6976 0.0699 0.1728   -0.580273
 O 0.7985 0.1183 0.2514   -0.628992
 O 0.138 0.3613 0.1382   -0.61
 O 0.048 0.3778 0.2242   -0.617891
 O 0.9274 0.2891 0.9642   -0.472697
 O 0.3194 0.0535 0.7001   -0.667002
 O 0.2907 0.1455 0.7803   -0.585556
 O 0.0292 0.3962 0.7569   -0.67104
 O 0.0087 0.4524 0.6719   -0.570998
 O 0.1976 0.4301 0.3272   -0.580273
 O 0.2985 0.3817 0.2486   -0.628992
 O 0.638 0.1387 0.3618   -0.61
 O 0.548 0.1222 0.2758   -0.617892
 O 0.4274 0.2109 0.5358   -0.472697
