{'_ref': 'TBD', '_srcid': 'CAKYAQ_clean', 'submitters': [{'name': 'Dalar Nazarian Jeff Camp and David Sholl', 'email': 'dalar@gatech.edu jcamp6@gatech.edu'}], '_method': 'VASP DFT with PBE;DDEC'}
data_Tm4H5(C5O4)6
_symmetry_space_group_name_H-M   'P 1'
_cell_length_a   11.28740000
_cell_length_b   11.89169988
_cell_length_c   17.53520000
_cell_angle_alpha   90.00000000
_cell_angle_beta   90.00000000
_cell_angle_gamma   106.72299960
_symmetry_Int_Tables_number   1
_chemical_formula_structural   Tm4H5(C5O4)6
_chemical_formula_sum   'Tm8 H10 C60 O48'
_cell_volume   2254.14200009
_cell_formula_units_Z   2
loop_
 _symmetry_equiv_pos_site_id
 _symmetry_equiv_pos_as_xyz
  1  'x, y, z'
loop_
 _atom_site_label
 _atom_site_fract_x
 _atom_site_fract_y
 _atom_site_fract_z
 _atom_site_charge
 Tm 0.76145 0.64343 0.00175   2.173132
 Tm 0.20569 0.83216 0.9872   2.01487
 Tm 0.23855 0.35657 0.50175   2.173132
 Tm 0.79431 0.16784 0.4872   2.01487
 Tm 0.23855 0.35657 0.99825   2.173128
 Tm 0.79431 0.16784 0.0128   2.014851
 Tm 0.76145 0.64343 0.49825   2.173128
 Tm 0.20569 0.83216 0.5128   2.014851
 H 0.0543 0.322 0.75   0.117631
 H 0.6143 0.8136 0.75   0.105633
 H 0.9974 0.8025 0.75   0.117251
 H 0.7661 0.5306 0.75   0.119696
 H 0.358 0.4308 0.75   0.121794
 H 0.9457 0.678 0.25   0.117631
 H 0.3857 0.1864 0.25   0.105633
 H 0.0026 0.1975 0.25   0.117251
 H 0.2339 0.4694 0.25   0.119696
 H 0.642 0.5692 0.25   0.121794
 C 0.9545 0.3946 0.8191   -0.072671
 C 0.867 0.4581 0.8196   -0.0849
 C 0.0069 0.3563 0.8912   0.83351
 C 0.9249 0.9006 0.8187   -0.02034
 C 0.8584 0.9833 0.819   -0.136974
 C 0.8246 0.5052 0.89   0.625381
 C 0.4462 0.5648 0.8198   -0.056207
 C 0.571 0.7475 0.8925   0.718809
 C 0.9668 0.8494 0.8886   0.861851
 C 0.5242 0.6802 0.8195   -0.085137
 C 0.8304 0.039 0.8898   0.679389
 C 0.3907 0.4989 0.8896   0.700156
 C 0.0455 0.6054 0.3191   -0.072671
 C 0.133 0.5419 0.3196   -0.0849
 C 0.9931 0.6437 0.3912   0.83351
 C 0.0751 0.0994 0.3187   -0.02034
 C 0.1416 0.0167 0.319   -0.136974
 C 0.1754 0.4948 0.39   0.625381
 C 0.5538 0.4352 0.3198   -0.056207
 C 0.429 0.2525 0.3925   0.718809
 C 0.0332 0.1506 0.3886   0.861851
 C 0.4758 0.3198 0.3195   -0.085137
 C 0.1696 0.961 0.3898   0.679389
 C 0.6093 0.5011 0.3896   0.700156
 C 0.0455 0.6054 0.1809   -0.072671
 C 0.133 0.5419 0.1804   -0.0849
 C 0.9931 0.6437 0.1088   0.833511
 C 0.0751 0.0994 0.1813   -0.02034
 C 0.1416 0.0167 0.181   -0.136974
 C 0.1754 0.4948 0.11   0.625381
 C 0.5538 0.4352 0.1802   -0.056207
 C 0.429 0.2525 0.1075   0.718809
 C 0.0332 0.1506 0.1114   0.861851
 C 0.4758 0.3198 0.1805   -0.085137
 C 0.1696 0.961 0.1102   0.679389
 C 0.6093 0.5011 0.1104   0.700156
 C 0.9545 0.3946 0.6809   -0.072671
 C 0.867 0.4581 0.6804   -0.0849
 C 0.0069 0.3563 0.6088   0.833511
 C 0.9249 0.9006 0.6813   -0.02034
 C 0.8584 0.9833 0.681   -0.136974
 C 0.8246 0.5052 0.61   0.625381
 C 0.4462 0.5648 0.6802   -0.056207
 C 0.571 0.7475 0.6075   0.718809
 C 0.9668 0.8494 0.6114   0.861851
 C 0.5242 0.6802 0.6805   -0.085137
 C 0.8304 0.039 0.6102   0.679389
 C 0.3907 0.4989 0.6104   0.700156
 C 0.9965 0.3641 0.75   -0.065762
 C 0.5626 0.737 0.75   -0.043951
 C 0.9554 0.8593 0.75   -0.105285
 C 0.8242 0.4888 0.75   -0.024313
 C 0.825 0.0229 0.75   0.125262
 C 0.4087 0.5079 0.75   -0.03972
 C 0.0035 0.6359 0.25   -0.065762
 C 0.4374 0.263 0.25   -0.043951
 C 0.0446 0.1407 0.25   -0.105285
 C 0.1758 0.5112 0.25   -0.024313
 C 0.175 0.9771 0.25   0.125262
 C 0.5913 0.4921 0.25   -0.03972
 O 0.3798 0.3911 0.8946   -0.651644
 O 0.8895 0.0359 0.95   -0.637723
 O 0.7199 0.5246 0.8899   -0.619337
 O 0.893 0.5316 0.9481   -0.633191
 O 0.3461 0.5479 0.9426   -0.68652
 O 0.7477 0.0931 0.8878   -0.688354
 O 0.5695 0.8511 0.8964   -0.584828
 O 0.8896 0.7748 0.9265   -0.786396
 O 0.0814 0.8781 0.9   -0.798985
 O 0.1213 0.3858 0.897   -0.705711
 O 0.6075 0.6934 0.9458   -0.746917
 O 0.9331 0.2932 0.9382   -0.825372
 O 0.6202 0.6089 0.3946   -0.651644
 O 0.1105 0.9641 0.45   -0.637723
 O 0.2801 0.4754 0.3899   -0.619337
 O 0.107 0.4684 0.4481   -0.633191
 O 0.6539 0.4521 0.4426   -0.68652
 O 0.2523 0.9069 0.3878   -0.688354
 O 0.4305 0.1489 0.3964   -0.584828
 O 0.1104 0.2252 0.4265   -0.786396
 O 0.9186 0.1219 0.4   -0.798985
 O 0.8787 0.6142 0.397   -0.705711
 O 0.3925 0.3066 0.4458   -0.746917
 O 0.0669 0.7068 0.4382   -0.825372
 O 0.6202 0.6089 0.1054   -0.651644
 O 0.1105 0.9641 0.05   -0.637722
 O 0.2801 0.4754 0.1101   -0.619337
 O 0.107 0.4684 0.0519   -0.633189
 O 0.6539 0.4521 0.0574   -0.68652
 O 0.2523 0.9069 0.1122   -0.688354
 O 0.4305 0.1489 0.1036   -0.584828
 O 0.1104 0.2252 0.0735   -0.786396
 O 0.9186 0.1219 0.1   -0.798984
 O 0.8787 0.6142 0.103   -0.705711
 O 0.3925 0.3066 0.0542   -0.746917
 O 0.0669 0.7068 0.0618   -0.825372
 O 0.3798 0.3911 0.6054   -0.651644
 O 0.8895 0.0359 0.55   -0.637722
 O 0.7199 0.5246 0.6101   -0.619337
 O 0.893 0.5316 0.5519   -0.633189
 O 0.3461 0.5479 0.5574   -0.68652
 O 0.7477 0.0931 0.6122   -0.688354
 O 0.5695 0.8511 0.6036   -0.584828
 O 0.8896 0.7748 0.5735   -0.786396
 O 0.0814 0.8781 0.6   -0.798984
 O 0.1213 0.3858 0.603   -0.705711
 O 0.6075 0.6934 0.5542   -0.746917
 O 0.9331 0.2932 0.5618   -0.825372
