{'_ref': 'TBD', '_srcid': 'CAKYAQ_clean', 'submitters': [{'name': 'Dalar Nazarian Jeff Camp and David Sholl', 'email': 'dalar@gatech.edu jcamp6@gatech.edu'}], '_method': 'VASP DFT with PBE;DDEC'}
data_CoH12C17(NO2)2
_symmetry_space_group_name_H-M   'P 1'
_cell_length_a   8.68639970
_cell_length_b   14.24140000
_cell_length_c   16.88500000
_cell_angle_alpha   90.00000000
_cell_angle_beta   100.04600046
_cell_angle_gamma   90.00000000
_symmetry_Int_Tables_number   1
_chemical_formula_structural   CoH12C17(NO2)2
_chemical_formula_sum   'Co4 H48 C68 N8 O16'
_cell_volume   2056.7589341
_cell_formula_units_Z   4
loop_
 _symmetry_equiv_pos_site_id
 _symmetry_equiv_pos_as_xyz
  1  'x, y, z'
loop_
 _atom_site_label
 _atom_site_fract_x
 _atom_site_fract_y
 _atom_site_fract_z
 _atom_site_charge
 Co 0.71365 0.24031 0.76685   0.827254
 Co 0.78635 0.74031 0.73315   0.827254
 Co 0.28635 0.75969 0.23315   0.827254
 Co 0.21365 0.25969 0.26685   0.827254
 H 0.4462 0.1435 0.5507   0.092346
 H 0.9095 0.577 0.5171   0.076264
 H 0.7415 0.4522 0.4805   0.101515
 H 0.8163 0.4315 0.4042   0.113505
 H 0.1737 0.5693 0.2638   0.076222
 H 0.0692 0.4814 0.353   0.122996
 H 0.9563 0.7205 0.4537   0.148085
 H 0.0651 0.8009 0.3596   0.0917
 H 0.5914 0.6063 0.4819   0.133937
 H 0.4246 0.7077 0.4054   0.074632
 H 0.5384 0.6116 0.2066   0.102157
 H 0.71 0.5071 0.2804   0.143323
 H 0.0538 0.6435 0.9493   0.092346
 H 0.5905 0.077 0.9829   0.076264
 H 0.7585 0.9522 0.0195   0.101515
 H 0.6837 0.9315 0.0958   0.113505
 H 0.3263 0.0693 0.2362   0.076222
 H 0.4308 0.9814 0.147   0.122996
 H 0.5437 0.2205 0.0463   0.148085
 H 0.4349 0.3009 0.1404   0.091701
 H 0.9086 0.1063 0.0181   0.133937
 H 0.0754 0.2077 0.0946   0.074632
 H 0.9616 0.1116 0.2934   0.102156
 H 0.79 0.0071 0.2196   0.143324
 H 0.5538 0.8565 0.4493   0.092347
 H 0.0905 0.423 0.4829   0.076267
 H 0.2585 0.5478 0.5195   0.101517
 H 0.1837 0.5685 0.5958   0.113506
 H 0.8263 0.4307 0.7362   0.076222
 H 0.9308 0.5186 0.647   0.122998
 H 0.0437 0.2795 0.5463   0.148087
 H 0.9349 0.1991 0.6404   0.0917
 H 0.4086 0.3937 0.5181   0.133938
 H 0.5754 0.2923 0.5946   0.074634
 H 0.4616 0.3884 0.7934   0.102157
 H 0.29 0.4929 0.7196   0.143323
 H 0.9462 0.3565 0.0507   0.092347
 H 0.4095 0.923 0.0171   0.076267
 H 0.2415 0.0478 0.9805   0.101517
 H 0.3163 0.0685 0.9042   0.113506
 H 0.6737 0.9307 0.7638   0.076222
 H 0.5692 0.0186 0.853   0.122998
 H 0.4563 0.7795 0.9537   0.148087
 H 0.5651 0.6991 0.8596   0.091702
 H 0.0914 0.8937 0.9819   0.133938
 H 0.9246 0.7923 0.9054   0.074634
 H 0.0384 0.8884 0.7066   0.102156
 H 0.21 0.9929 0.7804   0.143324
 C 0.2638 0.1249 0.41388   0.678496
 C 0.3799 0.0556 0.45798   -0.032025
 C 0.5899 0.032 0.57238   -0.105706
 C 0.6856 0.073 0.64812   0.668377
 C 0.4686 0.0856 0.52999   -0.0692
 C 0.9387 0.5332 0.4775   -0.03606
 C 0.7889 0.4811 0.43862   -0.213397
 C 0.1311 0.6003 0.30344   0.196399
 C 0.0684 0.5466 0.35671   -0.233589
 C 0.0037 0.5905 0.41635   0.114378
 C 0.0017 0.6877 0.41608   -0.21472
 C 0.068 0.7356 0.35917   0.189667
 C 0.6724 0.5454 0.38985   0.157151
 C 0.5834 0.60605 0.42622   -0.236015
 C 0.4823 0.66648 0.37945   0.181792
 C 0.5483 0.6106 0.2623   0.206637
 C 0.6526 0.54793 0.30695   -0.221759
 C 0.2362 0.6249 0.08612   0.678496
 C 0.1201 0.5556 0.04202   -0.032025
 C 0.9101 0.532 0.92762   -0.105706
 C 0.8144 0.573 0.85188   0.668377
 C 0.0314 0.5856 0.97001   -0.0692
 C 0.5613 0.0332 0.0225   -0.03606
 C 0.7111 0.9811 0.06138   -0.213397
 C 0.3689 0.1003 0.19656   0.196399
 C 0.4316 0.0466 0.14329   -0.233589
 C 0.4963 0.0905 0.08365   0.114378
 C 0.4983 0.1877 0.08392   -0.21472
 C 0.432 0.2356 0.14083   0.189667
 C 0.8276 0.0454 0.11015   0.157151
 C 0.9166 0.10605 0.07378   -0.236015
 C 0.0177 0.16648 0.12055   0.181792
 C 0.9517 0.1106 0.2377   0.206637
 C 0.8474 0.04793 0.19305   -0.22176
 C 0.7362 0.8751 0.58612   0.678497
 C 0.6201 0.9444 0.54202   -0.032038
 C 0.4101 0.968 0.42762   -0.105719
 C 0.3144 0.927 0.35188   0.668379
 C 0.5314 0.9144 0.47001   -0.069195
 C 0.0613 0.4668 0.5225   -0.036063
 C 0.2111 0.5189 0.56138   -0.213399
 C 0.8689 0.3997 0.69656   0.1964
 C 0.9316 0.4534 0.64329   -0.23359
 C 0.9963 0.4095 0.58365   0.114379
 C 0.9983 0.3123 0.58392   -0.214721
 C 0.932 0.2644 0.64083   0.189668
 C 0.3276 0.4546 0.61015   0.157151
 C 0.4166 0.39395 0.57378   -0.236015
 C 0.5177 0.33352 0.62055   0.181792
 C 0.4517 0.3894 0.7377   0.206637
 C 0.3474 0.45207 0.69305   -0.221759
 C 0.7638 0.3751 0.91388   0.678497
 C 0.8799 0.4444 0.95798   -0.032038
 C 0.0899 0.468 0.07238   -0.105719
 C 0.1856 0.427 0.14812   0.668379
 C 0.9686 0.4144 0.02999   -0.069195
 C 0.4387 0.9668 0.9775   -0.036063
 C 0.2889 0.0189 0.93862   -0.213399
 C 0.6311 0.8997 0.80344   0.1964
 C 0.5684 0.9534 0.85671   -0.23359
 C 0.5037 0.9095 0.91635   0.114379
 C 0.5017 0.8123 0.91608   -0.214721
 C 0.568 0.7644 0.85917   0.189667
 C 0.1724 0.9546 0.88985   0.157152
 C 0.0834 0.89395 0.92622   -0.236016
 C 0.9823 0.83352 0.87945   0.181792
 C 0.0483 0.8894 0.7623   0.206637
 C 0.1526 0.95207 0.80695   -0.22176
 N 0.1358 0.69335 0.30382   -0.350005
 N 0.4616 0.66973 0.29886   -0.34827
 N 0.3642 0.19335 0.19618   -0.350005
 N 0.0384 0.16973 0.20114   -0.34827
 N 0.8642 0.30665 0.69618   -0.350005
 N 0.5384 0.33027 0.70114   -0.34827
 N 0.6358 0.80665 0.80382   -0.350005
 N 0.9616 0.83027 0.79886   -0.34827
 O 0.3059 0.16228 0.35402   -0.61768
 O 0.1431 0.14588 0.44206   -0.595318
 O 0.8206 0.0423 0.66926   -0.596098
 O 0.6216 0.13614 0.68266   -0.626989
 O 0.1941 0.66228 0.14598   -0.61768
 O 0.3569 0.64588 0.05794   -0.595318
 O 0.6794 0.5423 0.83074   -0.596098
 O 0.8784 0.63614 0.81734   -0.626989
 O 0.6941 0.83772 0.64598   -0.61768
 O 0.8569 0.85412 0.55794   -0.595317
 O 0.1794 0.9577 0.33074   -0.596098
 O 0.3784 0.86386 0.31734   -0.626989
 O 0.8059 0.33772 0.85402   -0.61768
 O 0.6431 0.35412 0.94206   -0.595317
 O 0.3206 0.4577 0.16926   -0.596098
 O 0.1216 0.36386 0.18266   -0.626989
