{'_ref': 'TBD', '_srcid': 'CAKYAQ_clean', 'submitters': [{'name': 'Dalar Nazarian Jeff Camp and David Sholl', 'email': 'dalar@gatech.edu jcamp6@gatech.edu'}], '_method': 'VASP DFT with PBE;DDEC'}
data_Mn2H5C9N5O6
_symmetry_space_group_name_H-M   'P 1'
_cell_length_a   7.87730000
_cell_length_b   10.79100042
_cell_length_c   19.70800000
_cell_angle_alpha   93.00999936
_cell_angle_beta   90.00000000
_cell_angle_gamma   90.00000000
_symmetry_Int_Tables_number   1
_chemical_formula_structural   Mn2H5C9N5O6
_chemical_formula_sum   'Mn8 H20 C36 N20 O24'
_cell_volume   1672.94658962
_cell_formula_units_Z   4
loop_
 _symmetry_equiv_pos_site_id
 _symmetry_equiv_pos_as_xyz
  1  'x, y, z'
loop_
 _atom_site_label
 _atom_site_fract_x
 _atom_site_fract_y
 _atom_site_fract_z
 _atom_site_charge
 Mn 0.57993 0.30988 0.98413   1.037776
 Mn 0.64282 0.29122 0.76995   1.021668
 Mn 0.07993 0.69012 0.51587   1.037776
 Mn 0.14282 0.70878 0.73005   1.021668
 Mn 0.42007 0.69012 0.01587   1.037774
 Mn 0.35718 0.70878 0.23005   1.021668
 Mn 0.92007 0.30988 0.48413   1.037774
 Mn 0.85718 0.29122 0.26995   1.021668
 H 0.1227 0.0816 0.5985   0.136066
 H 0.9799 0.0453 0.649   0.155103
 H 0.0219 0.1209 0.7738   0.139289
 H 0.2548 0.2214 0.837   0.101203
 H 0.4287 0.1201 0.6574   0.101311
 H 0.6227 0.9184 0.9015   0.136066
 H 0.4799 0.9547 0.851   0.155103
 H 0.5219 0.8791 0.7262   0.139289
 H 0.7548 0.7786 0.663   0.101203
 H 0.9287 0.8799 0.8426   0.101311
 H 0.8773 0.9184 0.4015   0.136065
 H 0.0201 0.9547 0.351   0.155103
 H 0.9781 0.8791 0.2262   0.139289
 H 0.7452 0.7786 0.163   0.101203
 H 0.5713 0.8799 0.3426   0.101311
 H 0.3773 0.0816 0.0985   0.136065
 H 0.5201 0.0453 0.149   0.155103
 H 0.4781 0.1209 0.2738   0.139289
 H 0.2452 0.2214 0.337   0.101203
 H 0.0713 0.1201 0.1574   0.101311
 C 0.4497 0.5286 0.7376   0.654886
 C 0.4454 0.5293 0.81404   0.013923
 C 0.3897 0.6103 0.86646   0.011507
 C 0.3079 0.7359 0.8725   0.656272
 C 0.1412 0.9028 0.6251   0.721562
 C 0.1004 0.0378 0.6394   -0.259981
 C 0.1315 0.1331 0.758   -0.123756
 C 0.2613 0.188 0.7926   0.029293
 C 0.3572 0.1333 0.6946   0.143038
 C 0.9497 0.4714 0.7624   0.654886
 C 0.9454 0.4707 0.68596   0.013924
 C 0.8897 0.3897 0.63354   0.011507
 C 0.8079 0.2641 0.6275   0.656272
 C 0.6412 0.0972 0.8749   0.721562
 C 0.6004 0.9622 0.8606   -0.259981
 C 0.6315 0.8669 0.742   -0.123756
 C 0.7613 0.812 0.7074   0.029294
 C 0.8572 0.8667 0.8054   0.143039
 C 0.5503 0.4714 0.2624   0.654886
 C 0.5546 0.4707 0.18596   0.013923
 C 0.6103 0.3897 0.13354   0.011507
 C 0.6921 0.2641 0.1275   0.656272
 C 0.8588 0.0972 0.3749   0.721562
 C 0.8996 0.9622 0.3606   -0.259981
 C 0.8685 0.8669 0.242   -0.123756
 C 0.7387 0.812 0.2074   0.029293
 C 0.6428 0.8667 0.3054   0.143038
 C 0.0503 0.5286 0.2376   0.654886
 C 0.0546 0.5293 0.31404   0.013924
 C 0.1103 0.6103 0.36646   0.011507
 C 0.1921 0.7359 0.3725   0.656272
 C 0.3588 0.9028 0.1251   0.721562
 C 0.3996 0.0378 0.1394   -0.259981
 C 0.3685 0.1331 0.258   -0.123756
 C 0.2387 0.188 0.2926   0.029294
 C 0.1428 0.1333 0.1946   0.143039
 N 0.5129 0.4289 0.84295   -0.191275
 N 0.4984 0.4473 0.90997   -0.117051
 N 0.4261 0.5565 0.92545   -0.302282
 N 0.4047 0.1874 0.75268   -0.418775
 N 0.1935 0.0991 0.6953   0.079403
 N 0.0129 0.5711 0.65705   -0.191275
 N 0.9984 0.5527 0.59003   -0.117051
 N 0.9261 0.4435 0.57455   -0.302282
 N 0.9047 0.8126 0.74732   -0.418775
 N 0.6935 0.9009 0.8047   0.079403
 N 0.4871 0.5711 0.15705   -0.191275
 N 0.5016 0.5527 0.09003   -0.117051
 N 0.5739 0.4435 0.07455   -0.302282
 N 0.5953 0.8126 0.24732   -0.418775
 N 0.8065 0.9009 0.3047   0.079403
 N 0.9871 0.4289 0.34295   -0.191275
 N 0.0016 0.4473 0.40997   -0.117051
 N 0.0739 0.5565 0.42545   -0.302282
 N 0.0953 0.1874 0.25268   -0.418775
 N 0.3065 0.0991 0.1953   0.079403
 O 0.2381 0.8474 0.66312   -0.60681
 O 0.0648 0.8557 0.57459   -0.625305
 O 0.5335 0.4417 0.70861   -0.599457
 O 0.3729 0.6098 0.70743   -0.596228
 O 0.2508 0.7855 0.82197   -0.550934
 O 0.3032 0.7849 0.93226   -0.610447
 O 0.7381 0.1526 0.83688   -0.60681
 O 0.5648 0.1443 0.92541   -0.625305
 O 0.0335 0.5583 0.79139   -0.599457
 O 0.8729 0.3902 0.79257   -0.596228
 O 0.7508 0.2145 0.67803   -0.550934
 O 0.8032 0.2151 0.56774   -0.610447
 O 0.7619 0.1526 0.33688   -0.60681
 O 0.9352 0.1443 0.42541   -0.625305
 O 0.4665 0.5583 0.29139   -0.599457
 O 0.6271 0.3902 0.29257   -0.596228
 O 0.7492 0.2145 0.17803   -0.550934
 O 0.6968 0.2151 0.06774   -0.610448
 O 0.2619 0.8474 0.16312   -0.60681
 O 0.4352 0.8557 0.07459   -0.625305
 O 0.9665 0.4417 0.20861   -0.599457
 O 0.1271 0.6098 0.20743   -0.596228
 O 0.2492 0.7855 0.32197   -0.550934
 O 0.1968 0.7849 0.43226   -0.610448
