{'_ref': 'TBD', '_srcid': 'CAKYAQ_clean', 'submitters': [{'name': 'Dalar Nazarian Jeff Camp and David Sholl', 'email': 'dalar@gatech.edu jcamp6@gatech.edu'}], '_method': 'VASP DFT with PBE;DDEC'}
data_Mn2H4C10N4O7
_symmetry_space_group_name_H-M   'P 1'
_cell_length_a   8.19390000
_cell_length_b   12.85700032
_cell_length_c   17.78900000
_cell_angle_alpha   99.86000119
_cell_angle_beta   90.00000000
_cell_angle_gamma   90.00000000
_symmetry_Int_Tables_number   1
_chemical_formula_structural   Mn2H4C10N4O7
_chemical_formula_sum   'Mn8 H16 C40 N16 O28'
_cell_volume   1846.37148797
_cell_formula_units_Z   4
loop_
 _symmetry_equiv_pos_site_id
 _symmetry_equiv_pos_as_xyz
  1  'x, y, z'
loop_
 _atom_site_label
 _atom_site_fract_x
 _atom_site_fract_y
 _atom_site_fract_z
 _atom_site_charge
 Mn 0.08493 0.38411 0.06467   0.967921
 Mn 0.14347 0.58374 0.2887   1.097147
 Mn 0.58493 0.11589 0.43533   0.967921
 Mn 0.64347 0.91626 0.2113   1.097147
 Mn 0.91507 0.61589 0.93533   0.967922
 Mn 0.85653 0.41626 0.7113   1.097148
 Mn 0.41507 0.88411 0.56467   0.967922
 Mn 0.35653 0.08374 0.7887   1.097148
 H 0.1845 0.0069 0.3639   0.140835
 H 0.0681 0.9927 0.245   0.142483
 H 0.0652 0.1392 0.1827   0.124161
 H 0.2843 0.3077 0.3654   0.141902
 H 0.6845 0.4931 0.1361   0.140835
 H 0.5681 0.5073 0.255   0.142483
 H 0.5652 0.3608 0.3173   0.124161
 H 0.7843 0.1923 0.1346   0.141902
 H 0.8155 0.9931 0.6361   0.140835
 H 0.9319 0.0073 0.755   0.142483
 H 0.9348 0.8608 0.8173   0.124161
 H 0.7157 0.6923 0.6346   0.141902
 H 0.3155 0.5069 0.8639   0.140835
 H 0.4319 0.4927 0.745   0.142483
 H 0.4348 0.6392 0.6827   0.124161
 H 0.2157 0.8077 0.8654   0.141902
 C 0.9309 0.7714 0.2579   0.666869
 C 0.9407 0.6989 0.1816   0.004375
 C 0.8982 0.7069 0.1071   -0.001654
 C 0.826 0.791 0.0672   0.682921
 C 0.182 0.0652 0.3393   -0.024778
 C 0.1126 0.0567 0.2685   -0.110335
 C 0.1088 0.1446 0.2315   0.003645
 C 0.1713 0.2398 0.2691   -0.178452
 C 0.2409 0.2444 0.3402   0.024142
 C 0.1615 0.34 0.234   0.69292
 C 0.4309 0.7286 0.2421   0.666871
 C 0.4407 0.8011 0.3184   0.004375
 C 0.3982 0.7931 0.3929   -0.001654
 C 0.326 0.709 0.4328   0.682921
 C 0.682 0.4348 0.1607   -0.024778
 C 0.6126 0.4433 0.2315   -0.110335
 C 0.6088 0.3554 0.2685   0.003644
 C 0.6713 0.2602 0.2309   -0.178452
 C 0.7409 0.2556 0.1598   0.024142
 C 0.6615 0.16 0.266   0.692919
 C 0.0691 0.2286 0.7421   0.666869
 C 0.0593 0.3011 0.8184   0.004375
 C 0.1018 0.2931 0.8929   -0.001654
 C 0.174 0.209 0.9328   0.682922
 C 0.818 0.9348 0.6607   -0.024778
 C 0.8874 0.9433 0.7315   -0.110335
 C 0.8912 0.8554 0.7685   0.003645
 C 0.8287 0.7602 0.7309   -0.178452
 C 0.7591 0.7556 0.6598   0.024142
 C 0.8385 0.66 0.766   0.69292
 C 0.5691 0.2714 0.7579   0.66687
 C 0.5593 0.1989 0.6816   0.004375
 C 0.6018 0.2069 0.6071   -0.001654
 C 0.674 0.291 0.5672   0.682922
 C 0.318 0.5652 0.8393   -0.024778
 C 0.3874 0.5567 0.7685   -0.110335
 C 0.3912 0.6446 0.7315   0.003644
 C 0.3287 0.7398 0.7691   -0.178452
 C 0.2591 0.7444 0.8402   0.024142
 C 0.3385 0.84 0.734   0.692919
 N 0.0101 0.6019 0.17989   -0.29064
 N 0.0112 0.5531 0.10714   -0.061784
 N 0.9448 0.6153 0.06222   -0.230612
 N 0.2466 0.1578 0.3736   0.319265
 N 0.5101 0.8981 0.32011   -0.290641
 N 0.5112 0.9469 0.39286   -0.061784
 N 0.4448 0.8847 0.43778   -0.230612
 N 0.7466 0.3422 0.1264   0.319266
 N 0.9899 0.3981 0.82011   -0.290641
 N 0.9888 0.4469 0.89286   -0.061784
 N 0.0552 0.3847 0.93778   -0.230612
 N 0.7534 0.8422 0.6264   0.319265
 N 0.4899 0.1019 0.67989   -0.290641
 N 0.4888 0.0531 0.60714   -0.061784
 N 0.5552 0.1153 0.56222   -0.230612
 N 0.2534 0.6578 0.8736   0.319265
 O 0.0117 0.7401 0.31163   -0.620314
 O 0.853 0.855 0.26548   -0.592254
 O 0.77 0.8744 0.10488   -0.595941
 O 0.8291 0.7712 0.99508   -0.58107
 O 0.3215 0.1633 0.44279   -0.52553
 O 0.2183 0.4227 0.27277   -0.602748
 O 0.092 0.3316 0.17028   -0.592476
 O 0.5117 0.7599 0.18837   -0.620314
 O 0.353 0.645 0.23452   -0.592254
 O 0.27 0.6256 0.39512   -0.595941
 O 0.3291 0.7288 0.50492   -0.58107
 O 0.8215 0.3367 0.05721   -0.52553
 O 0.7183 0.0773 0.22723   -0.602748
 O 0.592 0.1684 0.32972   -0.592476
 O 0.9883 0.2599 0.68837   -0.620313
 O 0.147 0.145 0.73452   -0.592254
 O 0.23 0.1256 0.89512   -0.595941
 O 0.1709 0.2288 0.00492   -0.58107
 O 0.6785 0.8367 0.55721   -0.525529
 O 0.7817 0.5773 0.72723   -0.602748
 O 0.908 0.6684 0.82972   -0.592477
 O 0.4883 0.2401 0.81163   -0.620313
 O 0.647 0.355 0.76548   -0.592254
 O 0.73 0.3744 0.60488   -0.595941
 O 0.6709 0.2712 0.49508   -0.58107
 O 0.1785 0.6633 0.94279   -0.525529
 O 0.2817 0.9227 0.77277   -0.602748
 O 0.408 0.8316 0.67028   -0.592476
