{'_ref': 'TBD', '_srcid': 'CAKYAQ_clean', 'submitters': [{'name': 'Dalar Nazarian Jeff Camp and David Sholl', 'email': 'dalar@gatech.edu jcamp6@gatech.edu'}], '_method': 'VASP DFT with PBE;DDEC'}
data_Ni3H6C6N9O
_symmetry_space_group_name_H-M   'P 1'
_cell_length_a   17.82630030
_cell_length_b   17.82630013
_cell_length_c   17.82630000
_cell_angle_alpha   60.00000024
_cell_angle_beta   60.00000055
_cell_angle_gamma   59.99999898
_symmetry_Int_Tables_number   1
_chemical_formula_structural   Ni3H6C6N9O
_chemical_formula_sum   'Ni24 H48 C48 N72 O8'
_cell_volume   4005.60983669
_cell_formula_units_Z   8
loop_
 _symmetry_equiv_pos_site_id
 _symmetry_equiv_pos_as_xyz
  1  'x, y, z'
loop_
 _atom_site_label
 _atom_site_fract_x
 _atom_site_fract_y
 _atom_site_fract_z
 _atom_site_charge
 Ni 0.13551 0.75 0.86449   0.317917
 Ni 0.25 0.63551 0.25   0.317917
 Ni 0.36449 0.25 0.63551   0.317918
 Ni 0.75 0.86449 0.75   0.317917
 Ni 0.13551 0.86449 0.25   0.317918
 Ni 0.25 0.25 0.86449   0.317917
 Ni 0.36449 0.63551 0.75   0.317916
 Ni 0.75 0.75 0.63551   0.317917
 Ni 0.13551 0.25 0.75   0.317916
 Ni 0.25 0.86449 0.63551   0.317916
 Ni 0.36449 0.75 0.25   0.317916
 Ni 0.75 0.63551 0.86449   0.317917
 Ni 0.86449 0.25 0.13551   0.317917
 Ni 0.75 0.36449 0.75   0.317917
 Ni 0.63551 0.75 0.36449   0.317918
 Ni 0.25 0.13551 0.25   0.317917
 Ni 0.86449 0.13551 0.75   0.317918
 Ni 0.75 0.75 0.13551   0.317917
 Ni 0.63551 0.36449 0.25   0.317916
 Ni 0.25 0.25 0.36449   0.317917
 Ni 0.86449 0.75 0.25   0.317916
 Ni 0.75 0.13551 0.36449   0.317916
 Ni 0.63551 0.25 0.75   0.317916
 Ni 0.25 0.36449 0.13551   0.317917
 H 0.1218 0.5688 0.0504   0.089706
 H 0.0688 0.6218 0.259   0.089705
 H 0.5504 0.259 0.6218   0.089706
 H 0.759 0.0504 0.5688   0.089706
 H 0.1218 0.0504 0.259   0.089706
 H 0.0688 0.259 0.0504   0.089706
 H 0.5504 0.6218 0.5688   0.089706
 H 0.759 0.5688 0.6218   0.089705
 H 0.1218 0.259 0.5688   0.089705
 H 0.0688 0.0504 0.6218   0.089706
 H 0.5504 0.5688 0.259   0.089707
 H 0.759 0.6218 0.0504   0.089706
 H 0.4312 0.8782 0.4496   0.089706
 H 0.3782 0.9312 0.241   0.089705
 H 0.741 0.4496 0.8782   0.089706
 H 0.9496 0.241 0.9312   0.089707
 H 0.9496 0.8782 0.241   0.089706
 H 0.741 0.9312 0.4496   0.089707
 H 0.3782 0.4496 0.9312   0.089706
 H 0.4312 0.241 0.8782   0.089705
 H 0.741 0.8782 0.9312   0.089705
 H 0.9496 0.9312 0.8782   0.089706
 H 0.4312 0.4496 0.241   0.089707
 H 0.3782 0.241 0.4496   0.089706
 H 0.8782 0.4312 0.9496   0.089706
 H 0.9312 0.3782 0.741   0.089705
 H 0.4496 0.741 0.3782   0.089706
 H 0.241 0.9496 0.4312   0.089706
 H 0.8782 0.9496 0.741   0.089706
 H 0.9312 0.741 0.9496   0.089706
 H 0.4496 0.3782 0.4312   0.089706
 H 0.241 0.4312 0.3782   0.089705
 H 0.8782 0.741 0.4312   0.089705
 H 0.9312 0.9496 0.3782   0.089706
 H 0.4496 0.4312 0.741   0.089706
 H 0.241 0.3782 0.9496   0.089706
 H 0.5688 0.1218 0.5504   0.089706
 H 0.6218 0.0688 0.759   0.089705
 H 0.259 0.5504 0.1218   0.089706
 H 0.0504 0.759 0.0688   0.089707
 H 0.0504 0.1218 0.759   0.089706
 H 0.259 0.0688 0.5504   0.089707
 H 0.6218 0.5504 0.0688   0.089706
 H 0.5688 0.759 0.1218   0.089705
 H 0.259 0.1218 0.0688   0.089705
 H 0.0504 0.0688 0.1218   0.089706
 H 0.5688 0.5504 0.759   0.089707
 H 0.6218 0.759 0.5504   0.089706
 C 0.18058 0.5575 0.0073   0.169891
 C 0.0575 0.68058 0.25462   0.169891
 C 0.5073 0.25462 0.68058   0.169891
 C 0.75462 0.0073 0.5575   0.16989
 C 0.18058 0.0073 0.25462   0.169891
 C 0.0575 0.25462 0.0073   0.16989
 C 0.5073 0.68058 0.5575   0.169891
 C 0.75462 0.5575 0.68058   0.169891
 C 0.18058 0.25462 0.5575   0.169891
 C 0.0575 0.0073 0.68058   0.169891
 C 0.5073 0.5575 0.25462   0.16989
 C 0.75462 0.68058 0.0073   0.169891
 C 0.4425 0.81942 0.4927   0.169888
 C 0.31942 0.9425 0.24538   0.169889
 C 0.74538 0.4927 0.81942   0.169888
 C 0.9927 0.24538 0.9425   0.169887
 C 0.9927 0.81942 0.24538   0.169888
 C 0.74538 0.9425 0.4927   0.169887
 C 0.31942 0.4927 0.9425   0.169888
 C 0.4425 0.24538 0.81942   0.169889
 C 0.74538 0.81942 0.9425   0.169889
 C 0.9927 0.9425 0.81942   0.169888
 C 0.4425 0.4927 0.24538   0.169887
 C 0.31942 0.24538 0.4927   0.169888
 C 0.81942 0.4425 0.9927   0.169891
 C 0.9425 0.31942 0.74538   0.169892
 C 0.4927 0.74538 0.31942   0.169891
 C 0.24538 0.9927 0.4425   0.16989
 C 0.81942 0.9927 0.74538   0.169891
 C 0.9425 0.74538 0.9927   0.16989
 C 0.4927 0.31942 0.4425   0.169891
 C 0.24538 0.4425 0.31942   0.169892
 C 0.81942 0.74538 0.4425   0.169892
 C 0.9425 0.9927 0.31942   0.169891
 C 0.4927 0.4425 0.74538   0.16989
 C 0.24538 0.31942 0.9927   0.169891
 C 0.5575 0.18058 0.5073   0.169888
 C 0.68058 0.0575 0.75462   0.169889
 C 0.25462 0.5073 0.18058   0.169888
 C 0.0073 0.75462 0.0575   0.169888
 C 0.0073 0.18058 0.75462   0.169888
 C 0.25462 0.0575 0.5073   0.169888
 C 0.68058 0.5073 0.0575   0.169888
 C 0.5575 0.75462 0.18058   0.169889
 C 0.25462 0.18058 0.0575   0.169889
 C 0.0073 0.0575 0.18058   0.169888
 C 0.5575 0.5073 0.75462   0.169888
 C 0.68058 0.75462 0.5073   0.169888
 N 0.20539 0.61759 0.92479   -0.151994
 N 0.11759 0.70539 0.25223   -0.151995
 N 0.42479 0.25223 0.70539   -0.151994
 N 0.75223 0.92479 0.61759   -0.151994
 N 0.20539 0.92479 0.25223   -0.151994
 N 0.11759 0.25223 0.92479   -0.151994
 N 0.42479 0.70539 0.61759   -0.151994
 N 0.75223 0.61759 0.70539   -0.151995
 N 0.20539 0.25223 0.61759   -0.151995
 N 0.11759 0.92479 0.70539   -0.151994
 N 0.42479 0.61759 0.25223   -0.151993
 N 0.75223 0.70539 0.92479   -0.151993
 N 0.38241 0.79461 0.57521   -0.151976
 N 0.29461 0.88241 0.24777   -0.151977
 N 0.74777 0.57521 0.79461   -0.151976
 N 0.07521 0.24777 0.88241   -0.151976
 N 0.07521 0.79461 0.24777   -0.151976
 N 0.74777 0.88241 0.57521   -0.151976
 N 0.29461 0.57521 0.88241   -0.151976
 N 0.38241 0.24777 0.79461   -0.151977
 N 0.74777 0.79461 0.88241   -0.151977
 N 0.07521 0.88241 0.79461   -0.151976
 N 0.38241 0.57521 0.24777   -0.151976
 N 0.29461 0.24777 0.57521   -0.151976
 N 0.79461 0.38241 0.07521   -0.151994
 N 0.88241 0.29461 0.74777   -0.151995
 N 0.57521 0.74777 0.29461   -0.151994
 N 0.24777 0.07521 0.38241   -0.151994
 N 0.79461 0.07521 0.74777   -0.151994
 N 0.88241 0.74777 0.07521   -0.151994
 N 0.57521 0.29461 0.38241   -0.151994
 N 0.24777 0.38241 0.29461   -0.151995
 N 0.79461 0.74777 0.38241   -0.151995
 N 0.88241 0.07521 0.29461   -0.151994
 N 0.57521 0.38241 0.74777   -0.151993
 N 0.24777 0.29461 0.07521   -0.151994
 N 0.61759 0.20539 0.42479   -0.151976
 N 0.70539 0.11759 0.75223   -0.151977
 N 0.25223 0.42479 0.20539   -0.151976
 N 0.92479 0.75223 0.11759   -0.151976
 N 0.92479 0.20539 0.75223   -0.151976
 N 0.25223 0.11759 0.42479   -0.151976
 N 0.70539 0.42479 0.11759   -0.151976
 N 0.61759 0.75223 0.20539   -0.151977
 N 0.25223 0.20539 0.11759   -0.151977
 N 0.92479 0.11759 0.20539   -0.151976
 N 0.61759 0.42479 0.75223   -0.151976
 N 0.70539 0.75223 0.42479   -0.151976
 N 0.25 0.47858 0.02142   -0.32938
 N 0.97858 0.75 0.25   -0.32938
 N 0.52142 0.25 0.75   -0.32938
 N 0.75 0.02142 0.47858   -0.32938
 N 0.25 0.02142 0.25   -0.32938
 N 0.97858 0.25 0.02142   -0.32938
 N 0.52142 0.75 0.47858   -0.32938
 N 0.75 0.47858 0.75   -0.32938
 N 0.25 0.25 0.47858   -0.32938
 N 0.97858 0.02142 0.75   -0.32938
 N 0.52142 0.47858 0.25   -0.32938
 N 0.75 0.75 0.02142   -0.32938
 N 0.75 0.52142 0.97858   -0.32938
 N 0.02142 0.25 0.75   -0.32938
 N 0.47858 0.75 0.25   -0.32938
 N 0.25 0.97858 0.52142   -0.32938
 N 0.75 0.97858 0.75   -0.32938
 N 0.02142 0.75 0.97858   -0.32938
 N 0.47858 0.25 0.52142   -0.32938
 N 0.25 0.52142 0.25   -0.32938
 N 0.75 0.75 0.52142   -0.32938
 N 0.02142 0.97858 0.25   -0.32938
 N 0.47858 0.52142 0.75   -0.32938
 N 0.25 0.25 0.97858   -0.32938
 O 0.25 0.75 0.75   -0.611281
 O 0.25 0.75 0.25   -0.611269
 O 0.25 0.25 0.75   -0.611269
 O 0.75 0.75 0.75   -0.611269
 O 0.75 0.25 0.25   -0.611281
 O 0.75 0.25 0.75   -0.611269
 O 0.75 0.75 0.25   -0.611269
 O 0.25 0.25 0.25   -0.611269
