{'_ref': 'TBD', '_srcid': 'CAKYAQ_clean', 'submitters': [{'name': 'Dalar Nazarian Jeff Camp and David Sholl', 'email': 'dalar@gatech.edu jcamp6@gatech.edu'}], '_method': 'VASP DFT with PBE;DDEC'}
data_Cd3HC5N5O
_symmetry_space_group_name_H-M   'P 1'
_cell_length_a   11.35800000
_cell_length_b   12.36600032
_cell_length_c   12.61900000
_cell_angle_alpha   90.00000000
_cell_angle_beta   90.00000000
_cell_angle_gamma   104.05000039
_symmetry_Int_Tables_number   1
_chemical_formula_structural   Cd3HC5N5O
_chemical_formula_sum   'Cd12 H4 C20 N20 O4'
_cell_volume   1719.35480384
_cell_formula_units_Z   4
loop_
 _symmetry_equiv_pos_site_id
 _symmetry_equiv_pos_as_xyz
  1  'x, y, z'
loop_
 _atom_site_label
 _atom_site_fract_x
 _atom_site_fract_y
 _atom_site_fract_z
 _atom_site_charge
 Cd 0.5155 0.05598 0.37133   0.791391
 Cd 0.30882 0.12996 0.97674   0.775885
 Cd 0.736 0.48972 0.24401   1.011837
 Cd 0.9845 0.94402 0.87133   0.791392
 Cd 0.19118 0.87004 0.47674   0.775883
 Cd 0.764 0.51028 0.74401   1.011833
 Cd 0.4845 0.94402 0.62867   0.791389
 Cd 0.69118 0.87004 0.02326   0.775883
 Cd 0.264 0.51028 0.75599   1.011837
 Cd 0.0155 0.05598 0.12867   0.79139
 Cd 0.80882 0.12996 0.52326   0.775881
 Cd 0.236 0.48972 0.25599   1.011834
 H 0.6486 0.909 0.4872   0.338033
 H 0.8514 0.091 0.9872   0.338033
 H 0.3514 0.091 0.5128   0.338033
 H 0.1486 0.909 0.0128   0.338033
 C 0.6182 0.2341 0.3615   -0.066763
 C 0.2597 0.2753 0.9062   -0.027199
 C 0.4337 0.4862 0.2592   -0.102016
 C 0.3551 0.1002 0.1428   -0.135502
 C 0.5799 0.9559 0.2477   -0.089011
 C 0.8818 0.7659 0.8615   -0.066763
 C 0.2403 0.7247 0.4062   -0.027197
 C 0.0663 0.5138 0.7592   -0.102017
 C 0.1449 0.8998 0.6428   -0.135502
 C 0.9201 0.0441 0.7477   -0.089009
 C 0.3818 0.7659 0.6385   -0.066759
 C 0.7403 0.7247 0.0938   -0.027194
 C 0.5663 0.5138 0.7408   -0.102013
 C 0.6449 0.8998 0.8572   -0.135501
 C 0.4201 0.0441 0.7523   -0.08901
 C 0.1182 0.2341 0.1385   -0.066759
 C 0.7597 0.2753 0.5938   -0.027192
 C 0.9337 0.4862 0.2408   -0.102013
 C 0.8551 0.1002 0.3572   -0.135501
 C 0.0799 0.9559 0.2523   -0.089008
 N 0.6724 0.3228 0.3429   -0.39648
 N 0.2421 0.3512 0.863   -0.399782
 N 0.5363 0.49 0.2573   -0.307917
 N 0.3832 0.0874 0.2271   -0.298112
 N 0.6177 0.9328 0.17   -0.323701
 N 0.8276 0.6772 0.8429   -0.39648
 N 0.2579 0.6488 0.363   -0.399782
 N 0.9637 0.51 0.7573   -0.307916
 N 0.1168 0.9126 0.7271   -0.298112
 N 0.8823 0.0672 0.67   -0.323701
 N 0.3276 0.6772 0.6571   -0.396479
 N 0.7579 0.6488 0.137   -0.399781
 N 0.4637 0.51 0.7427   -0.307917
 N 0.6168 0.9126 0.7729   -0.298112
 N 0.3823 0.0672 0.83   -0.323701
 N 0.1724 0.3228 0.1571   -0.396479
 N 0.7421 0.3512 0.637   -0.399781
 N 0.0363 0.49 0.2427   -0.307917
 N 0.8832 0.0874 0.2729   -0.298112
 N 0.1177 0.9328 0.33   -0.323701
 O 0.6282 0.997 0.5112   -0.770669
 O 0.8718 0.003 0.0112   -0.770669
 O 0.3718 0.003 0.4888   -0.770669
 O 0.1282 0.997 0.9888   -0.770669
