{'_ref': 'TBD', '_srcid': 'CAKYAQ_clean', 'submitters': [{'name': 'Dalar Nazarian Jeff Camp and David Sholl', 'email': 'dalar@gatech.edu jcamp6@gatech.edu'}], '_method': 'VASP DFT with PBE;DDEC'}
data_Cu3H8C16N4(ClO2)2
_symmetry_space_group_name_H-M   'P 1'
_cell_length_a   11.65249949
_cell_length_b   18.35539992
_cell_length_c   18.35540000
_cell_angle_alpha   84.21760048
_cell_angle_beta   71.49340119
_cell_angle_gamma   71.49349905
_symmetry_Int_Tables_number   1
_chemical_formula_structural   Cu3H8C16N4(ClO2)2
_chemical_formula_sum   'Cu12 H32 C64 N16 Cl8 O16'
_cell_volume   3530.42292632
_cell_formula_units_Z   4
loop_
 _symmetry_equiv_pos_site_id
 _symmetry_equiv_pos_as_xyz
  1  'x, y, z'
loop_
 _atom_site_label
 _atom_site_fract_x
 _atom_site_fract_y
 _atom_site_fract_z
 _atom_site_charge
 Cu 0.41496 0.59523 0.25743   0.71687
 Cu 0.76762 0.90477 0.24257   0.717247
 Cu 0.67239 0.74257 0.09523   0.715806
 Cu 0.01019 0.75743 0.40477   0.716826
 Cu 0.58504 0.40477 0.74257   0.71687
 Cu 0.23238 0.09523 0.75743   0.717247
 Cu 0.32761 0.25743 0.90477   0.715806
 Cu 0.98981 0.24257 0.59523   0.716826
 Cu 0.5 0.5 0.5   0.817389
 Cu 0.0 0.0 0.0   0.81496
 Cu 0.0 0.5 0.0   0.816463
 Cu 0.0 0.0 0.5   0.81635
 H 0.9726 0.756 0.5698   0.11765
 H 0.9662 0.7273 0.6961   0.098201
 H 0.1298 0.631 0.7278   0.095914
 H 0.311 0.5675 0.6305   0.110538
 H 0.7984 0.744 0.9302   0.119216
 H 0.8896 0.7727 0.8039   0.099535
 H 0.9886 0.869 0.7722   0.096031
 H 0.009 0.9325 0.8695   0.10953
 H 0.5424 0.4302 0.256   0.119052
 H 0.6623 0.3039 0.2273   0.09948
 H 0.8576 0.2722 0.131   0.095587
 H 0.9415 0.3695 0.0675   0.110122
 H 0.7286 0.0698 0.244   0.11703
 H 0.6935 0.1961 0.2727   0.098324
 H 0.7608 0.2278 0.369   0.096125
 H 0.8785 0.1305 0.4325   0.109825
 H 0.0274 0.244 0.4302   0.11765
 H 0.0338 0.2727 0.3039   0.0982
 H 0.8702 0.369 0.2722   0.095914
 H 0.689 0.4325 0.3695   0.110538
 H 0.2016 0.256 0.0698   0.119216
 H 0.1104 0.2273 0.1961   0.099535
 H 0.0114 0.131 0.2278   0.096031
 H 0.991 0.0675 0.1305   0.10953
 H 0.4576 0.5698 0.744   0.119052
 H 0.3377 0.6961 0.7727   0.099479
 H 0.1424 0.7278 0.869   0.095587
 H 0.0585 0.6305 0.9325   0.110122
 H 0.2714 0.9302 0.756   0.11703
 H 0.3065 0.8039 0.7273   0.098323
 H 0.2392 0.7722 0.631   0.096125
 H 0.1215 0.8695 0.5675   0.109824
 C 0.36044 0.60145 0.41087   0.391826
 C 0.25047 0.65764 0.39182   0.429944
 C 0.14563 0.67712 0.52222   0.183136
 C 0.04081 0.71714 0.58144   -0.168613
 C 0.03748 0.69992 0.65612   -0.065375
 C 0.13589 0.64316 0.67546   -0.070221
 C 0.24227 0.60489 0.61797   -0.157563
 C 0.24803 0.6217 0.54064   0.151361
 C 0.87276 0.89855 0.08913   0.392417
 C 0.79993 0.84236 0.10818   0.426994
 C 0.84497 0.82288 0.97778   0.18165
 C 0.83939 0.78286 0.91856   -0.170648
 C 0.89352 0.80008 0.84388   -0.067884
 C 0.95451 0.85684 0.82454   -0.069151
 C 0.96513 0.89511 0.88203   -0.157211
 C 0.91037 0.8783 0.95936   0.153344
 C 0.77131 0.58913 0.10145   0.390735
 C 0.64229 0.60818 0.15764   0.429754
 C 0.66785 0.47778 0.17712   0.181894
 C 0.62225 0.41856 0.21714   -0.170338
 C 0.6936 0.34388 0.19992   -0.066101
 C 0.81135 0.32454 0.14316   -0.07096
 C 0.86024 0.38203 0.10489   -0.156717
 C 0.78867 0.45936 0.1217   0.152504
 C 0.96189 0.91087 0.39855   0.39178
 C 0.90811 0.89182 0.34236   0.427175
 C 0.82275 0.02222 0.32288   0.182525
 C 0.75795 0.08144 0.28286   -0.168906
 C 0.7374 0.15612 0.30008   -0.065007
 C 0.77905 0.17546 0.35684   -0.07059
 C 0.84716 0.11797 0.39511   -0.157395
 C 0.86973 0.04064 0.3783   0.151986
 C 0.63956 0.39855 0.58913   0.391826
 C 0.74953 0.34236 0.60818   0.429944
 C 0.85437 0.32288 0.47778   0.183136
 C 0.95919 0.28286 0.41856   -0.168613
 C 0.96252 0.30008 0.34388   -0.065375
 C 0.86411 0.35684 0.32454   -0.070221
 C 0.75773 0.39511 0.38203   -0.157562
 C 0.75197 0.3783 0.45936   0.151361
 C 0.12724 0.10145 0.91087   0.392417
 C 0.20007 0.15764 0.89182   0.426994
 C 0.15503 0.17712 0.02222   0.18165
 C 0.16061 0.21714 0.08144   -0.170648
 C 0.10648 0.19992 0.15612   -0.067883
 C 0.04549 0.14316 0.17546   -0.069151
 C 0.03487 0.10489 0.11797   -0.157211
 C 0.08963 0.1217 0.04064   0.153344
 C 0.22869 0.41087 0.89855   0.390735
 C 0.35771 0.39182 0.84236   0.429755
 C 0.33215 0.52222 0.82288   0.181894
 C 0.37775 0.58144 0.78286   -0.170338
 C 0.3064 0.65612 0.80008   -0.0661
 C 0.18865 0.67546 0.85684   -0.07096
 C 0.13976 0.61797 0.89511   -0.156717
 C 0.21133 0.54064 0.8783   0.152504
 C 0.03811 0.08913 0.60145   0.39178
 C 0.09189 0.10818 0.65764   0.427175
 C 0.17725 0.97778 0.67712   0.182525
 C 0.24205 0.91856 0.71714   -0.168906
 C 0.2626 0.84388 0.69992   -0.065007
 C 0.22095 0.82454 0.64316   -0.07059
 C 0.15284 0.88203 0.60489   -0.157395
 C 0.13027 0.95936 0.6217   0.151986
 N 0.35549 0.58373 0.48283   -0.362274
 N 0.1473 0.69241 0.44657   -0.427791
 N 0.92205 0.91627 0.01717   -0.360539
 N 0.78628 0.80759 0.05343   -0.425775
 N 0.83832 0.51717 0.08373   -0.36144
 N 0.59387 0.55343 0.19241   -0.428741
 N 0.93922 0.98283 0.41627   -0.361845
 N 0.83971 0.94657 0.30759   -0.425852
 N 0.64451 0.41627 0.51717   -0.362274
 N 0.8527 0.30759 0.55343   -0.427791
 N 0.07795 0.08373 0.98283   -0.360539
 N 0.21372 0.19241 0.94657   -0.425775
 N 0.16168 0.48283 0.91627   -0.36144
 N 0.40613 0.44657 0.80759   -0.428741
 N 0.06078 0.01717 0.58373   -0.361845
 N 0.16029 0.05343 0.69241   -0.425852
 Cl 0.59644 0.588 0.50752   -0.427916
 Cl 0.19196 0.912 0.99248   -0.427426
 Cl 0.10396 0.49248 0.088   -0.427614
 Cl 0.18444 0.00752 0.412   -0.427797
 Cl 0.40356 0.412 0.49248   -0.427916
 Cl 0.80804 0.088 0.00752   -0.427426
 Cl 0.89604 0.50752 0.912   -0.427614
 Cl 0.81556 0.99248 0.588   -0.427797
 O 0.45737 0.57013 0.35423   -0.496302
 O 0.25987 0.6693 0.32064   -0.527995
 O 0.88173 0.92987 0.14577   -0.496589
 O 0.74981 0.8307 0.17936   -0.527314
 O 0.8116 0.64577 0.07013   -0.49541
 O 0.58051 0.67936 0.1693   -0.52662
 O 0.0275 0.85423 0.42987   -0.496096
 O 0.92917 0.82064 0.3307   -0.526501
 O 0.54263 0.42987 0.64577   -0.496302
 O 0.74013 0.3307 0.67936   -0.527995
 O 0.11827 0.07013 0.85423   -0.496589
 O 0.25019 0.1693 0.82064   -0.527314
 O 0.1884 0.35423 0.92987   -0.49541
 O 0.41949 0.32064 0.8307   -0.52662
 O 0.9725 0.14577 0.57013   -0.496096
 O 0.07083 0.17936 0.6693   -0.526501
