{'_ref': 'TBD', '_srcid': 'CAKYAQ_clean', 'submitters': [{'name': 'Dalar Nazarian Jeff Camp and David Sholl', 'email': 'dalar@gatech.edu jcamp6@gatech.edu'}], '_method': 'VASP DFT with PBE;DDEC'}
data_CoH8C14SO6
_symmetry_space_group_name_H-M   'P 1'
_cell_length_a   16.65400000
_cell_length_b   17.19800041
_cell_length_c   20.42600000
_cell_angle_alpha   90.00000000
_cell_angle_beta   90.00000000
_cell_angle_gamma   99.83030063
_symmetry_Int_Tables_number   1
_chemical_formula_structural   CoH8C14SO6
_chemical_formula_sum   'Co12 H96 C168 S12 O72'
_cell_volume   5764.42705121
_cell_formula_units_Z   12
loop_
 _symmetry_equiv_pos_site_id
 _symmetry_equiv_pos_as_xyz
  1  'x, y, z'
loop_
 _atom_site_label
 _atom_site_fract_x
 _atom_site_fract_y
 _atom_site_fract_z
 _atom_site_charge
 Co 0.53786 0.25883 0.33585   1.104958
 Co 0.6407 0.44693 0.37634   1.012132
 Co 0.4107 0.06501 0.35735   1.015391
 Co 0.96214 0.24117 0.83585   1.104959
 Co 0.8593 0.05307 0.87634   1.012132
 Co 0.0893 0.43499 0.85735   1.015392
 Co 0.46214 0.74117 0.66415   1.104957
 Co 0.3593 0.55307 0.62366   1.012108
 Co 0.5893 0.93499 0.64265   1.015366
 Co 0.03786 0.75883 0.16415   1.104958
 Co 0.1407 0.94693 0.12366   1.012108
 Co 0.9107 0.56501 0.14265   1.015368
 H 0.5124 0.2216 0.4963   0.107251
 H 0.4716 0.1656 0.5969   0.113606
 H 0.4646 0.3814 0.6696   0.102174
 H 0.5016 0.4363 0.5678   0.108724
 H 0.5944 0.3275 0.7577   0.102705
 H 0.7226 0.3056 0.7883   0.105631
 H 0.6488 0.0726 0.7767   0.093508
 H 0.5206 0.0941 0.7426   0.112867
 H 0.5183 0.24 0.1498   0.112184
 H 0.5144 0.2479 0.039   0.108737
 H 0.3933 0.0282 0.0312   0.105586
 H 0.3923 0.0224 0.1441   0.09637
 H 0.41 0.3011 0.9397   0.107236
 H 0.2932 0.3531 0.922   0.106757
 H 0.1662 0.1387 0.8909   0.115012
 H 0.2812 0.0851 0.9077   0.108452
 H 0.5332 0.5656 0.2218   0.102962
 H 0.482 0.6124 0.1271   0.106217
 H 0.3878 0.3911 0.0739   0.108629
 H 0.4371 0.344 0.1678   0.103027
 H 0.3286 0.6708 0.063   0.122174
 H 0.197 0.6898 0.0907   0.110094
 H 0.1092 0.4653 0.0434   0.105627
 H 0.2383 0.4466 0.0117   0.110112
 H 0.9876 0.2784 0.9963   0.107243
 H 0.0284 0.3344 0.0969   0.113523
 H 0.0354 0.1186 0.1696   0.102174
 H 0.9984 0.0637 0.0678   0.108725
 H 0.9056 0.1725 0.2577   0.102705
 H 0.7774 0.1944 0.2883   0.10563
 H 0.8512 0.4274 0.2767   0.093508
 H 0.9794 0.4059 0.2426   0.112867
 H 0.9817 0.26 0.6498   0.112184
 H 0.9856 0.2521 0.539   0.108737
 H 0.1067 0.4718 0.5312   0.105586
 H 0.1077 0.4776 0.6441   0.09637
 H 0.09 0.1989 0.4397   0.107236
 H 0.2068 0.1469 0.422   0.106757
 H 0.3338 0.3613 0.3909   0.115017
 H 0.2188 0.4149 0.4077   0.108451
 H 0.9668 0.9344 0.7218   0.102962
 H 0.018 0.8876 0.6271   0.106217
 H 0.1122 0.1089 0.5739   0.108629
 H 0.0629 0.156 0.6678   0.103029
 H 0.1714 0.8292 0.563   0.122175
 H 0.303 0.8102 0.5907   0.110095
 H 0.3908 0.0347 0.5434   0.10553
 H 0.2617 0.0534 0.5117   0.110114
 H 0.4876 0.7784 0.5037   0.107247
 H 0.5284 0.8344 0.4031   0.113606
 H 0.5354 0.6186 0.3304   0.102186
 H 0.4984 0.5637 0.4322   0.108697
 H 0.4056 0.6725 0.2423   0.102703
 H 0.2774 0.6944 0.2117   0.105634
 H 0.3512 0.9274 0.2233   0.093485
 H 0.4794 0.9059 0.2574   0.112864
 H 0.4817 0.76 0.8502   0.112184
 H 0.4856 0.7521 0.961   0.108718
 H 0.6067 0.9718 0.9688   0.105588
 H 0.6077 0.9776 0.8559   0.096343
 H 0.59 0.6989 0.0603   0.107234
 H 0.7068 0.6469 0.078   0.106754
 H 0.8338 0.8613 0.1091   0.114985
 H 0.7188 0.9149 0.0923   0.108455
 H 0.4668 0.4344 0.7782   0.10297
 H 0.518 0.3876 0.8729   0.106212
 H 0.6122 0.6089 0.9261   0.108629
 H 0.5629 0.656 0.8322   0.103027
 H 0.6714 0.3292 0.937   0.122156
 H 0.803 0.3102 0.9093   0.110093
 H 0.8908 0.5347 0.9566   0.105627
 H 0.7617 0.5534 0.9883   0.110112
 H 0.0124 0.7216 0.0037   0.107239
 H 0.9716 0.6656 0.9031   0.113524
 H 0.9646 0.8814 0.8304   0.102185
 H 0.0016 0.9363 0.9322   0.108698
 H 0.0944 0.8275 0.7423   0.102703
 H 0.2226 0.8056 0.7117   0.105634
 H 0.1488 0.5726 0.7233   0.093485
 H 0.0206 0.5941 0.7574   0.112864
 H 0.0183 0.74 0.3502   0.112184
 H 0.0144 0.7479 0.461   0.108718
 H 0.8933 0.5282 0.4688   0.105588
 H 0.8923 0.5224 0.3559   0.096344
 H 0.91 0.8011 0.5603   0.107234
 H 0.7932 0.8531 0.578   0.106754
 H 0.6662 0.6387 0.6091   0.11499
 H 0.7812 0.5851 0.5923   0.108454
 H 0.0332 0.0656 0.2782   0.10297
 H 0.982 0.1124 0.3729   0.106212
 H 0.8878 0.8911 0.4261   0.108629
 H 0.9371 0.844 0.3322   0.103029
 H 0.8286 0.1708 0.437   0.122157
 H 0.697 0.1898 0.4093   0.110094
 H 0.6092 0.9653 0.4566   0.10553
 H 0.7383 0.9466 0.4883   0.110114
 C 0.5486 0.372 0.4612   0.698155
 C 0.5137 0.3345 0.5222   -0.134633
 C 0.5033 0.2538 0.5312   -0.023462
 C 0.4796 0.22 0.5916   -0.045861
 C 0.4683 0.2685 0.6435   -0.179184
 C 0.4749 0.3494 0.6349   -0.051349
 C 0.4974 0.3822 0.574   -0.033128
 C 0.545 0.2119 0.7492   -0.181306
 C 0.6052 0.2764 0.7615   -0.035761
 C 0.6817 0.2628 0.7798   -0.033712
 C 0.6988 0.1877 0.7859   -0.120025
 C 0.6381 0.1237 0.7726   -0.046405
 C 0.561 0.1367 0.753   -0.036737
 C 0.7827 0.1729 0.8058   0.701061
 C 0.4623 0.1282 0.2323   0.723484
 C 0.4584 0.1294 0.1587   -0.107019
 C 0.4927 0.1967 0.1259   -0.048072
 C 0.4903 0.2017 0.0598   -0.025871
 C 0.4523 0.1386 0.0233   -0.197599
 C 0.4178 0.0717 0.0553   -0.038516
 C 0.4188 0.0675 0.123   -0.050832
 C 0.3583 0.1864 0.9256   -0.214802
 C 0.3613 0.268 0.9298   -0.009111
 C 0.2911 0.2988 0.919   -0.038327
 C 0.2188 0.2517 0.9042   -0.11833
 C 0.2153 0.1713 0.9005   -0.05423
 C 0.2841 0.1395 0.9107   -0.028634
 C 0.1435 0.2881 0.8879   0.717235
 C 0.5249 0.4184 0.2656   0.704906
 C 0.4902 0.4494 0.2053   -0.128704
 C 0.504 0.5306 0.1923   -0.038222
 C 0.4738 0.5585 0.1355   -0.016212
 C 0.4313 0.5059 0.0908   -0.204685
 C 0.4172 0.4259 0.1035   -0.028094
 C 0.4464 0.398 0.1597   -0.027389
 C 0.2959 0.5561 0.0365   -0.1921
 C 0.2847 0.6297 0.0593   -0.041609
 C 0.2061 0.6407 0.0764   -0.040076
 C 0.1418 0.5786 0.0721   -0.10967
 C 0.1533 0.5062 0.0475   -0.057009
 C 0.2303 0.4947 0.029   -0.042218
 C 0.0583 0.5892 0.095   0.702968
 C 0.9514 0.128 0.9612   0.698157
 C 0.9863 0.1655 0.0222   -0.134655
 C 0.9967 0.2462 0.0312   -0.023525
 C 0.0204 0.28 0.0916   -0.045834
 C 0.0317 0.2315 0.1435   -0.179197
 C 0.0251 0.1506 0.1349   -0.051346
 C 0.0026 0.1178 0.074   -0.033142
 C 0.955 0.2881 0.2492   -0.181306
 C 0.8948 0.2236 0.2615   -0.035762
 C 0.8183 0.2372 0.2798   -0.033704
 C 0.8012 0.3123 0.2859   -0.120024
 C 0.8619 0.3763 0.2726   -0.046406
 C 0.939 0.3633 0.253   -0.036737
 C 0.7173 0.3271 0.3058   0.701045
 C 0.0377 0.3718 0.7323   0.723458
 C 0.0416 0.3706 0.6587   -0.107017
 C 0.0073 0.3033 0.6259   -0.048064
 C 0.0097 0.2983 0.5598   -0.025872
 C 0.0477 0.3614 0.5233   -0.197598
 C 0.0822 0.4283 0.5553   -0.038516
 C 0.0812 0.4325 0.623   -0.050833
 C 0.1417 0.3136 0.4256   -0.214804
 C 0.1387 0.232 0.4298   -0.00911
 C 0.2089 0.2012 0.419   -0.038331
 C 0.2812 0.2483 0.4042   -0.118342
 C 0.2847 0.3287 0.4005   -0.054281
 C 0.2159 0.3605 0.4107   -0.028625
 C 0.3565 0.2119 0.3879   0.71716
 C 0.9751 0.0816 0.7656   0.704888
 C 0.0098 0.0506 0.7053   -0.128701
 C 0.996 0.9694 0.6923   -0.038223
 C 0.0262 0.9415 0.6355   -0.016211
 C 0.0687 0.9941 0.5908   -0.204686
 C 0.0828 0.0741 0.6035   -0.028091
 C 0.0536 0.102 0.6597   -0.027402
 C 0.2041 0.9439 0.5365   -0.192097
 C 0.2153 0.8703 0.5593   -0.041611
 C 0.2939 0.8593 0.5764   -0.040073
 C 0.3582 0.9214 0.5721   -0.109683
 C 0.3467 0.9938 0.5475   -0.056973
 C 0.2697 0.0053 0.529   -0.042233
 C 0.4417 0.9108 0.595   0.70297
 C 0.4514 0.628 0.5388   0.698155
 C 0.4863 0.6655 0.4778   -0.134637
 C 0.4967 0.7462 0.4688   -0.023459
 C 0.5204 0.78 0.4084   -0.045864
 C 0.5317 0.7315 0.3565   -0.179182
 C 0.5251 0.6506 0.3651   -0.051358
 C 0.5026 0.6178 0.426   -0.033116
 C 0.455 0.7881 0.2508   -0.181305
 C 0.3948 0.7236 0.2385   -0.035767
 C 0.3183 0.7372 0.2202   -0.033715
 C 0.3012 0.8123 0.2141   -0.120025
 C 0.3619 0.8763 0.2274   -0.046398
 C 0.439 0.8633 0.247   -0.036739
 C 0.2173 0.8271 0.1942   0.701061
 C 0.5377 0.8718 0.7677   0.723466
 C 0.5416 0.8706 0.8413   -0.10702
 C 0.5073 0.8033 0.8741   -0.048073
 C 0.5097 0.7983 0.9402   -0.025859
 C 0.5477 0.8614 0.9767   -0.197599
 C 0.5822 0.9283 0.9447   -0.038529
 C 0.5812 0.9325 0.877   -0.050821
 C 0.6417 0.8136 0.0744   -0.2148
 C 0.6387 0.732 0.0702   -0.009118
 C 0.7089 0.7012 0.081   -0.038333
 C 0.7812 0.7483 0.0958   -0.118333
 C 0.7847 0.8287 0.0995   -0.05422
 C 0.7159 0.8605 0.0893   -0.028639
 C 0.8565 0.7119 0.1121   0.717235
 C 0.4751 0.5816 0.7344   0.704905
 C 0.5098 0.5506 0.7947   -0.128703
 C 0.496 0.4694 0.8077   -0.038231
 C 0.5262 0.4415 0.8645   -0.016217
 C 0.5687 0.4941 0.9092   -0.204687
 C 0.5828 0.5741 0.8965   -0.028093
 C 0.5536 0.602 0.8403   -0.02739
 C 0.7041 0.4439 0.9635   -0.192105
 C 0.7153 0.3703 0.9407   -0.041602
 C 0.7939 0.3593 0.9236   -0.040075
 C 0.8582 0.4214 0.9279   -0.109671
 C 0.8467 0.4938 0.9525   -0.05701
 C 0.7697 0.5053 0.971   -0.042217
 C 0.9417 0.4108 0.905   0.702951
 C 0.0486 0.872 0.0388   0.698157
 C 0.0137 0.8345 0.9778   -0.134659
 C 0.0033 0.7538 0.9688   -0.023522
 C 0.9796 0.72 0.9084   -0.045836
 C 0.9683 0.7685 0.8565   -0.179194
 C 0.9749 0.8494 0.8651   -0.051355
 C 0.9974 0.8822 0.926   -0.03313
 C 0.045 0.7119 0.7508   -0.181305
 C 0.1052 0.7764 0.7385   -0.035768
 C 0.1817 0.7628 0.7202   -0.033708
 C 0.1988 0.6877 0.7141   -0.120024
 C 0.1381 0.6237 0.7274   -0.046398
 C 0.061 0.6367 0.747   -0.036738
 C 0.2827 0.6729 0.6942   0.701045
 C 0.9623 0.6282 0.2677   0.72344
 C 0.9584 0.6294 0.3413   -0.107018
 C 0.9927 0.6967 0.3741   -0.048065
 C 0.9903 0.7017 0.4402   -0.02586
 C 0.9523 0.6386 0.4767   -0.197599
 C 0.9178 0.5717 0.4447   -0.038528
 C 0.9188 0.5675 0.377   -0.050823
 C 0.8583 0.6864 0.5744   -0.214802
 C 0.8613 0.768 0.5702   -0.009117
 C 0.7911 0.7988 0.581   -0.038336
 C 0.7188 0.7517 0.5958   -0.118345
 C 0.7153 0.6713 0.5995   -0.054271
 C 0.7841 0.6395 0.5893   -0.02863
 C 0.6435 0.7881 0.6121   0.71716
 C 0.0249 0.9184 0.2344   0.704887
 C 0.9902 0.9494 0.2947   -0.128699
 C 0.004 0.0306 0.3077   -0.038232
 C 0.9738 0.0585 0.3645   -0.016217
 C 0.9313 0.0059 0.4092   -0.204688
 C 0.9172 0.9259 0.3965   -0.02809
 C 0.9464 0.898 0.3403   -0.027403
 C 0.7959 0.0561 0.4635   -0.192102
 C 0.7847 0.1297 0.4407   -0.041604
 C 0.7061 0.1407 0.4236   -0.040072
 C 0.6418 0.0786 0.4279   -0.109684
 C 0.6533 0.0062 0.4525   -0.056974
 C 0.7303 0.9947 0.471   -0.042232
 C 0.5583 0.0892 0.405   0.702953
 S 0.44851 0.22914 0.72258   1.103772
 S 0.44639 0.14609 0.93746   1.121476
 S 0.39526 0.54079 0.017   1.107789
 S 0.05149 0.27086 0.22258   1.103774
 S 0.05361 0.35391 0.43746   1.121476
 S 0.10474 0.95921 0.517   1.107789
 S 0.55149 0.77086 0.27742   1.103771
 S 0.55361 0.85391 0.06254   1.121476
 S 0.60474 0.45921 0.983   1.107813
 S 0.94851 0.72914 0.77742   1.103774
 S 0.94639 0.64609 0.56254   1.121476
 S 0.89526 0.04079 0.483   1.107813
 O 0.5627 0.4447 0.4558   -0.567099
 O 0.5715 0.3304 0.4156   -0.63934
 O 0.4246 0.2884 0.7643   -0.543952
 O 0.3967 0.1537 0.7162   -0.552439
 O 0.8389 0.2308 0.8112   -0.540669
 O 0.7879 0.1014 0.8155   -0.612158
 O 0.5088 0.1823 0.2589   -0.587474
 O 0.417 0.073 0.2612   -0.6179
 O 0.516 0.2038 0.9162   -0.560709
 O 0.4315 0.0673 0.9125   -0.558274
 O 0.1516 0.3617 0.8966   -0.64067
 O 0.0833 0.2444 0.8671   -0.570244
 O 0.5166 0.3455 0.2715   -0.570054
 O 0.5611 0.4688 0.306   -0.605119
 O 0.3875 0.4791 0.9692   -0.550813
 O 0.4436 0.6165 0.0025   -0.553888
 O 0.0039 0.5291 0.1014   -0.6095
 O 0.047 0.6576 0.1067   -0.629393
 O 0.9373 0.0553 0.9558   -0.567099
 O 0.9285 0.1696 0.9156   -0.639335
 O 0.0754 0.2116 0.2643   -0.543952
 O 0.1033 0.3463 0.2162   -0.552443
 O 0.6611 0.2692 0.3112   -0.54071
 O 0.7121 0.3986 0.3155   -0.612157
 O 0.9912 0.3177 0.7589   -0.587517
 O 0.083 0.427 0.7612   -0.617898
 O 0.984 0.2962 0.4162   -0.560709
 O 0.0685 0.4327 0.4125   -0.558274
 O 0.3484 0.1383 0.3966   -0.640663
 O 0.4167 0.2556 0.3671   -0.570272
 O 0.9834 0.1545 0.7715   -0.570089
 O 0.9389 0.0312 0.806   -0.605117
 O 0.1125 0.0209 0.4692   -0.550813
 O 0.0564 0.8835 0.5025   -0.553888
 O 0.4961 0.9709 0.6014   -0.609503
 O 0.453 0.8424 0.6067   -0.629393
 O 0.4373 0.5553 0.5442   -0.567098
 O 0.4285 0.6696 0.5844   -0.639337
 O 0.5754 0.7116 0.2357   -0.543951
 O 0.6033 0.8463 0.2838   -0.552439
 O 0.1611 0.7692 0.1888   -0.540669
 O 0.2121 0.8986 0.1845   -0.612157
 O 0.4912 0.8177 0.7411   -0.587473
 O 0.583 0.927 0.7388   -0.617897
 O 0.484 0.7962 0.0838   -0.560708
 O 0.5685 0.9327 0.0875   -0.558274
 O 0.8484 0.6383 0.1034   -0.640668
 O 0.9167 0.7556 0.1329   -0.570244
 O 0.4834 0.6545 0.7285   -0.570054
 O 0.4389 0.5312 0.694   -0.605118
 O 0.6125 0.5209 0.0308   -0.550814
 O 0.5564 0.3835 0.9975   -0.553887
 O 0.9961 0.4709 0.8986   -0.609504
 O 0.953 0.3424 0.8933   -0.629391
 O 0.0627 0.9447 0.0442   -0.567098
 O 0.0715 0.8304 0.0844   -0.639332
 O 0.9246 0.7884 0.7357   -0.543952
 O 0.8967 0.6537 0.7838   -0.552443
 O 0.3389 0.7308 0.6888   -0.54071
 O 0.2879 0.6014 0.6845   -0.612155
 O 0.0088 0.6823 0.2411   -0.587515
 O 0.917 0.573 0.2388   -0.617895
 O 0.016 0.7038 0.5838   -0.560708
 O 0.9315 0.5673 0.5875   -0.558274
 O 0.6516 0.8617 0.6034   -0.640661
 O 0.5833 0.7444 0.6329   -0.570272
 O 0.0166 0.8455 0.2285   -0.570089
 O 0.0611 0.9688 0.194   -0.605116
 O 0.8875 0.9791 0.5308   -0.550814
 O 0.9436 0.1165 0.4975   -0.553887
 O 0.5039 0.0291 0.3986   -0.609507
 O 0.547 0.1576 0.3933   -0.629391
