{'_ref': 'TBD', '_srcid': 'CAKYAQ_clean', 'submitters': [{'name': 'Dalar Nazarian Jeff Camp and David Sholl', 'email': 'dalar@gatech.edu jcamp6@gatech.edu'}], '_method': 'VASP DFT with PBE;DDEC'}
data_Zn2H14C18S(N4O3)2
_symmetry_space_group_name_H-M   'P 1'
_cell_length_a   9.85100000
_cell_length_b   16.57700000
_cell_length_c   30.67100000
_cell_angle_alpha   90.00000000
_cell_angle_beta   90.00000000
_cell_angle_gamma   90.00000000
_symmetry_Int_Tables_number   1
_chemical_formula_structural   Zn2H14C18S(N4O3)2
_chemical_formula_sum   'Zn16 H112 C144 S8 N64 O48'
_cell_volume   5008.57512812
_cell_formula_units_Z   8
loop_
 _symmetry_equiv_pos_site_id
 _symmetry_equiv_pos_as_xyz
  1  'x, y, z'
loop_
 _atom_site_label
 _atom_site_fract_x
 _atom_site_fract_y
 _atom_site_fract_z
 _atom_site_charge
 Zn 0.16033 0.89224 0.65034   0.841902
 Zn 0.36659 0.85819 0.7487   0.824051
 Zn 0.66033 0.60776 0.84966   0.841902
 Zn 0.86659 0.64181 0.7513   0.824051
 Zn 0.33967 0.89224 0.34966   0.841902
 Zn 0.13341 0.85819 0.2513   0.824051
 Zn 0.83967 0.60776 0.15034   0.841902
 Zn 0.63341 0.64181 0.2487   0.824051
 Zn 0.83967 0.10776 0.34966   0.841902
 Zn 0.63341 0.14181 0.2513   0.824051
 Zn 0.33967 0.39224 0.15034   0.841902
 Zn 0.13341 0.35819 0.2487   0.824051
 Zn 0.66033 0.10776 0.65034   0.841902
 Zn 0.86659 0.14181 0.7487   0.824051
 Zn 0.16033 0.39224 0.84966   0.841902
 Zn 0.36659 0.35819 0.7513   0.824051
 H 0.276 0.0297 0.5964   0.35988
 H 0.3948 0.0853 0.5974   0.345898
 H 0.463 0.7398 0.862   0.348462
 H 0.3859 0.7981 0.8346   0.351196
 H 0.4013 0.438 0.9855   0.100784
 H 0.4944 0.3895 0.9222   0.096243
 H 0.5874 0.1833 0.9829   0.11081
 H 0.487 0.2324 0.0455   0.110198
 H 0.3798 0.2432 0.8546   0.086066
 H 0.2672 0.1469 0.8145   0.095091
 H 0.6537 0.0799 0.8897   0.106534
 H 0.5362 0.9832 0.8508   0.107475
 H 0.5952 0.9697 0.7161   0.087141
 H 0.6422 0.765 0.7125   0.079988
 H 0.776 0.4703 0.9036   0.35988
 H 0.8948 0.4147 0.9026   0.345898
 H 0.963 0.7602 0.638   0.348462
 H 0.8859 0.7019 0.6654   0.351196
 H 0.9013 0.062 0.5145   0.100784
 H 0.9944 0.1105 0.5778   0.096243
 H 0.0874 0.3167 0.5171   0.11081
 H 0.987 0.2676 0.4545   0.110198
 H 0.8798 0.2568 0.6454   0.086066
 H 0.7672 0.3531 0.6855   0.095091
 H 0.1537 0.4201 0.6103   0.106534
 H 0.0362 0.5168 0.6492   0.107475
 H 0.0952 0.5303 0.7839   0.087141
 H 0.1422 0.735 0.7875   0.079988
 H 0.224 0.0297 0.4036   0.35988
 H 0.1052 0.0853 0.4026   0.345898
 H 0.037 0.7398 0.138   0.348462
 H 0.1141 0.7981 0.1654   0.351196
 H 0.0987 0.438 0.0145   0.100784
 H 0.0056 0.3895 0.0778   0.096243
 H 0.9126 0.1833 0.0171   0.11081
 H 0.013 0.2324 0.9545   0.110198
 H 0.1202 0.2432 0.1454   0.086066
 H 0.2328 0.1469 0.1855   0.095091
 H 0.8463 0.0799 0.1103   0.106533
 H 0.9638 0.9832 0.1492   0.107475
 H 0.9048 0.9697 0.2839   0.087141
 H 0.8578 0.765 0.2875   0.079988
 H 0.724 0.4703 0.0964   0.35988
 H 0.6052 0.4147 0.0974   0.345898
 H 0.537 0.7602 0.362   0.348462
 H 0.6141 0.7019 0.3346   0.351196
 H 0.5987 0.062 0.4855   0.100784
 H 0.5056 0.1105 0.4222   0.096243
 H 0.4126 0.3167 0.4829   0.11081
 H 0.513 0.2676 0.5455   0.110198
 H 0.6202 0.2568 0.3546   0.086066
 H 0.7328 0.3531 0.3145   0.095091
 H 0.3463 0.4201 0.3897   0.106533
 H 0.4638 0.5168 0.3508   0.107475
 H 0.4048 0.5303 0.2161   0.087141
 H 0.3578 0.735 0.2125   0.079988
 H 0.724 0.9703 0.4036   0.35988
 H 0.6052 0.9147 0.4026   0.345898
 H 0.537 0.2602 0.138   0.348462
 H 0.6141 0.2019 0.1654   0.351196
 H 0.5987 0.562 0.0145   0.100784
 H 0.5056 0.6105 0.0778   0.096243
 H 0.4126 0.8167 0.0171   0.11081
 H 0.513 0.7676 0.9545   0.110198
 H 0.6202 0.7568 0.1454   0.086066
 H 0.7328 0.8531 0.1855   0.095091
 H 0.3463 0.9201 0.1103   0.106534
 H 0.4638 0.0168 0.1492   0.107475
 H 0.4048 0.0303 0.2839   0.087141
 H 0.3578 0.235 0.2875   0.079988
 H 0.224 0.5297 0.0964   0.35988
 H 0.1052 0.5853 0.0974   0.345898
 H 0.037 0.2398 0.362   0.348462
 H 0.1141 0.2981 0.3346   0.351196
 H 0.0987 0.938 0.4855   0.100784
 H 0.0056 0.8895 0.4222   0.096243
 H 0.9126 0.6833 0.4829   0.11081
 H 0.013 0.7324 0.5455   0.110198
 H 0.1202 0.7432 0.3546   0.086066
 H 0.2328 0.6469 0.3145   0.095091
 H 0.8463 0.5799 0.3897   0.106534
 H 0.9638 0.4832 0.3508   0.107475
 H 0.9048 0.4697 0.2161   0.087141
 H 0.8578 0.265 0.2125   0.079988
 H 0.776 0.9703 0.5964   0.35988
 H 0.8948 0.9147 0.5974   0.345898
 H 0.963 0.2602 0.862   0.348462
 H 0.8859 0.2019 0.8346   0.351196
 H 0.9013 0.562 0.9855   0.100784
 H 0.9944 0.6105 0.9222   0.096243
 H 0.0874 0.8167 0.9829   0.11081
 H 0.987 0.7676 0.0455   0.110198
 H 0.8798 0.7568 0.8546   0.086066
 H 0.7672 0.8531 0.8145   0.095091
 H 0.1537 0.9201 0.8897   0.106533
 H 0.0362 0.0168 0.8508   0.107475
 H 0.0952 0.0303 0.7161   0.087141
 H 0.1422 0.235 0.7125   0.079988
 H 0.276 0.5297 0.9036   0.35988
 H 0.3948 0.5853 0.9026   0.345898
 H 0.463 0.2398 0.638   0.348462
 H 0.3859 0.2981 0.6654   0.351196
 H 0.4013 0.938 0.5145   0.100784
 H 0.4944 0.8895 0.5778   0.096243
 H 0.5874 0.6833 0.5171   0.11081
 H 0.487 0.7324 0.4545   0.110198
 H 0.3798 0.7432 0.6454   0.086066
 H 0.2672 0.6469 0.6855   0.095091
 H 0.6537 0.5799 0.6103   0.106533
 H 0.5362 0.4832 0.6492   0.107475
 H 0.5952 0.4697 0.7839   0.087141
 H 0.6422 0.265 0.7875   0.079988
 C 0.3841 0.3771 0.06411   0.625055
 C 0.4399 0.3416 0.02207   -0.117676
 C 0.4395 0.3867 0.98504   -0.024823
 C 0.4943 0.3579 0.94726   -0.023163
 C 0.5487 0.2822 0.94658   -0.201842
 C 0.5491 0.2345 0.98337   -0.046141
 C 0.4914 0.2646 0.02075   -0.04142
 C 0.529 0.1712 0.87508   -0.213039
 C 0.4132 0.1908 0.8533   -0.033737
 C 0.3458 0.1331 0.8295   -0.050199
 C 0.3927 0.0565 0.82781   -0.091474
 C 0.5756 0.0938 0.8744   -0.041291
 C 0.5058 0.0363 0.8509   -0.040289
 C 0.3279 0.9961 0.79743   0.6491
 C 0.4 0.006 0.64311   0.647861
 C 0.5245 0.9713 0.69606   0.310812
 C 0.6232 0.7514 0.74132   0.292792
 C 0.5345 0.7484 0.80366   0.643951
 C 0.8841 0.1229 0.43589   0.625055
 C 0.9399 0.1584 0.47793   -0.117676
 C 0.9395 0.1133 0.51496   -0.024823
 C 0.9943 0.1421 0.55274   -0.023163
 C 0.0487 0.2178 0.55342   -0.201842
 C 0.0491 0.2655 0.51663   -0.046141
 C 0.9914 0.2354 0.47925   -0.04142
 C 0.029 0.3288 0.62492   -0.213039
 C 0.9132 0.3092 0.6467   -0.033737
 C 0.8458 0.3669 0.6705   -0.050199
 C 0.8927 0.4435 0.67219   -0.091474
 C 0.0756 0.4062 0.6256   -0.041291
 C 0.0058 0.4637 0.6491   -0.040289
 C 0.8279 0.5039 0.70257   0.6491
 C 0.9 0.494 0.85689   0.647861
 C 0.0245 0.5287 0.80394   0.310812
 C 0.1232 0.7486 0.75868   0.292792
 C 0.0345 0.7516 0.69634   0.643951
 C 0.1159 0.3771 0.93589   0.625055
 C 0.0601 0.3416 0.97793   -0.117676
 C 0.0605 0.3867 0.01496   -0.024823
 C 0.0057 0.3579 0.05274   -0.023163
 C 0.9513 0.2822 0.05342   -0.201843
 C 0.9509 0.2345 0.01663   -0.046141
 C 0.0086 0.2646 0.97925   -0.04142
 C 0.971 0.1712 0.12492   -0.213039
 C 0.0868 0.1908 0.1467   -0.033737
 C 0.1542 0.1331 0.1705   -0.050199
 C 0.1073 0.0565 0.17219   -0.091474
 C 0.9244 0.0938 0.1256   -0.041291
 C 0.9942 0.0363 0.1491   -0.040289
 C 0.1721 0.9961 0.20257   0.6491
 C 0.1 0.006 0.35689   0.647861
 C 0.9755 0.9713 0.30394   0.310812
 C 0.8768 0.7514 0.25868   0.292792
 C 0.9655 0.7484 0.19634   0.643951
 C 0.6159 0.1229 0.56411   0.625055
 C 0.5601 0.1584 0.52207   -0.117676
 C 0.5605 0.1133 0.48504   -0.024823
 C 0.5057 0.1421 0.44726   -0.023163
 C 0.4513 0.2178 0.44658   -0.201843
 C 0.4509 0.2655 0.48337   -0.046141
 C 0.5086 0.2354 0.52075   -0.04142
 C 0.471 0.3288 0.37508   -0.213039
 C 0.5868 0.3092 0.3533   -0.033737
 C 0.6542 0.3669 0.3295   -0.050199
 C 0.6073 0.4435 0.32781   -0.091474
 C 0.4244 0.4062 0.3744   -0.041291
 C 0.4942 0.4637 0.3509   -0.040289
 C 0.6721 0.5039 0.29743   0.6491
 C 0.6 0.494 0.14311   0.647861
 C 0.4755 0.5287 0.19606   0.310812
 C 0.3768 0.7486 0.24132   0.292792
 C 0.4655 0.7516 0.30366   0.643951
 C 0.6159 0.6229 0.93589   0.625055
 C 0.5601 0.6584 0.97793   -0.117676
 C 0.5605 0.6133 0.01496   -0.024823
 C 0.5057 0.6421 0.05274   -0.023163
 C 0.4513 0.7178 0.05342   -0.201842
 C 0.4509 0.7655 0.01663   -0.046141
 C 0.5086 0.7354 0.97925   -0.04142
 C 0.471 0.8288 0.12492   -0.213039
 C 0.5868 0.8092 0.1467   -0.033737
 C 0.6542 0.8669 0.1705   -0.050199
 C 0.6073 0.9435 0.17219   -0.091474
 C 0.4244 0.9062 0.1256   -0.041291
 C 0.4942 0.9637 0.1491   -0.040289
 C 0.6721 0.0039 0.20257   0.649101
 C 0.6 0.994 0.35689   0.647861
 C 0.4755 0.0287 0.30394   0.310811
 C 0.3768 0.2486 0.25868   0.292792
 C 0.4655 0.2516 0.19634   0.643951
 C 0.1159 0.8771 0.56411   0.625055
 C 0.0601 0.8416 0.52207   -0.117676
 C 0.0605 0.8867 0.48504   -0.024823
 C 0.0057 0.8579 0.44726   -0.023163
 C 0.9513 0.7822 0.44658   -0.201842
 C 0.9509 0.7345 0.48337   -0.046141
 C 0.0086 0.7646 0.52075   -0.04142
 C 0.971 0.6712 0.37508   -0.213039
 C 0.0868 0.6908 0.3533   -0.033737
 C 0.1542 0.6331 0.3295   -0.050199
 C 0.1073 0.5565 0.32781   -0.091474
 C 0.9244 0.5938 0.3744   -0.041291
 C 0.9942 0.5363 0.3509   -0.040289
 C 0.1721 0.4961 0.29743   0.649101
 C 0.1 0.506 0.14311   0.647861
 C 0.9755 0.4713 0.19606   0.310811
 C 0.8768 0.2514 0.24132   0.292792
 C 0.9655 0.2484 0.30366   0.643951
 C 0.8841 0.6229 0.06411   0.625055
 C 0.9399 0.6584 0.02207   -0.117676
 C 0.9395 0.6133 0.98504   -0.024823
 C 0.9943 0.6421 0.94726   -0.023163
 C 0.0487 0.7178 0.94658   -0.201843
 C 0.0491 0.7655 0.98337   -0.046141
 C 0.9914 0.7354 0.02075   -0.04142
 C 0.029 0.8288 0.87508   -0.213039
 C 0.9132 0.8092 0.8533   -0.033737
 C 0.8458 0.8669 0.8295   -0.050199
 C 0.8927 0.9435 0.82781   -0.091474
 C 0.0756 0.9062 0.8744   -0.041291
 C 0.0058 0.9637 0.8509   -0.040289
 C 0.8279 0.0039 0.79743   0.649101
 C 0.9 0.994 0.64311   0.647861
 C 0.0245 0.0287 0.69606   0.310811
 C 0.1232 0.2486 0.74132   0.292792
 C 0.0345 0.2516 0.80366   0.643951
 C 0.3841 0.8771 0.43589   0.625055
 C 0.4399 0.8416 0.47793   -0.117676
 C 0.4395 0.8867 0.51496   -0.024823
 C 0.4943 0.8579 0.55274   -0.023163
 C 0.5487 0.7822 0.55342   -0.201843
 C 0.5491 0.7345 0.51663   -0.046141
 C 0.4914 0.7646 0.47925   -0.04142
 C 0.529 0.6712 0.62492   -0.213039
 C 0.4132 0.6908 0.6467   -0.033737
 C 0.3458 0.6331 0.6705   -0.050199
 C 0.3927 0.5565 0.67219   -0.091474
 C 0.5756 0.5938 0.6256   -0.041291
 C 0.5058 0.5363 0.6491   -0.040289
 C 0.3279 0.4961 0.70257   0.649101
 C 0.4 0.506 0.85689   0.647861
 C 0.5245 0.4713 0.80394   0.310811
 C 0.6232 0.2514 0.75868   0.292792
 C 0.5345 0.2484 0.69634   0.643951
 S 0.63185 0.24744 0.8989   1.107999
 S 0.13185 0.25256 0.6011   1.107999
 S 0.86815 0.24744 0.1011   1.107999
 S 0.36815 0.25256 0.3989   1.107999
 S 0.36815 0.75256 0.1011   1.107999
 S 0.86815 0.74744 0.3989   1.107999
 S 0.13185 0.75256 0.8989   1.107999
 S 0.63185 0.74744 0.6011   1.107999
 N 0.517 0.0252 0.66348   -0.552469
 N 0.351 0.045 0.60808   -0.725847
 N 0.339 0.943 0.66183   -0.407838
 N 0.4217 0.9212 0.69652   -0.273847
 N 0.5194 0.7836 0.76455   -0.535458
 N 0.451 0.764 0.83753   -0.75207
 N 0.6369 0.697 0.80532   -0.394074
 N 0.6936 0.6993 0.76388   -0.282958
 N 0.017 0.4748 0.83652   -0.552469
 N 0.851 0.455 0.89192   -0.725847
 N 0.839 0.557 0.83817   -0.407838
 N 0.9217 0.5788 0.80348   -0.273847
 N 0.0194 0.7164 0.73545   -0.535458
 N 0.951 0.736 0.66247   -0.75207
 N 0.1369 0.803 0.69468   -0.394074
 N 0.1936 0.8007 0.73612   -0.282958
 N 0.983 0.0252 0.33652   -0.552469
 N 0.149 0.045 0.39192   -0.725847
 N 0.161 0.943 0.33817   -0.407838
 N 0.0783 0.9212 0.30348   -0.273847
 N 0.9806 0.7836 0.23545   -0.535458
 N 0.049 0.764 0.16247   -0.75207
 N 0.8631 0.697 0.19468   -0.394074
 N 0.8064 0.6993 0.23612   -0.282958
 N 0.483 0.4748 0.16348   -0.552469
 N 0.649 0.455 0.10808   -0.725847
 N 0.661 0.557 0.16183   -0.407838
 N 0.5783 0.5788 0.19652   -0.273847
 N 0.4806 0.7164 0.26455   -0.535458
 N 0.549 0.736 0.33753   -0.75207
 N 0.3631 0.803 0.30532   -0.394074
 N 0.3064 0.8007 0.26388   -0.282958
 N 0.483 0.9748 0.33652   -0.552469
 N 0.649 0.955 0.39192   -0.725847
 N 0.661 0.057 0.33817   -0.407837
 N 0.5783 0.0788 0.30348   -0.273847
 N 0.4806 0.2164 0.23545   -0.535458
 N 0.549 0.236 0.16247   -0.75207
 N 0.3631 0.303 0.19468   -0.394074
 N 0.3064 0.3007 0.23612   -0.282958
 N 0.983 0.5252 0.16348   -0.552469
 N 0.149 0.545 0.10808   -0.725847
 N 0.161 0.443 0.16183   -0.407837
 N 0.0783 0.4212 0.19652   -0.273847
 N 0.9806 0.2836 0.26455   -0.535458
 N 0.049 0.264 0.33753   -0.75207
 N 0.8631 0.197 0.30532   -0.394074
 N 0.8064 0.1993 0.26388   -0.282958
 N 0.017 0.9748 0.66348   -0.552469
 N 0.851 0.955 0.60808   -0.725847
 N 0.839 0.057 0.66183   -0.407837
 N 0.9217 0.0788 0.69652   -0.273847
 N 0.0194 0.2164 0.76455   -0.535458
 N 0.951 0.236 0.83753   -0.75207
 N 0.1369 0.303 0.80532   -0.394074
 N 0.1936 0.3007 0.76388   -0.282958
 N 0.517 0.5252 0.83652   -0.552469
 N 0.351 0.545 0.89192   -0.725847
 N 0.339 0.443 0.83817   -0.407837
 N 0.4217 0.4212 0.80348   -0.273847
 N 0.5194 0.2836 0.73545   -0.535458
 N 0.451 0.264 0.66247   -0.75207
 N 0.6369 0.197 0.69468   -0.394074
 N 0.6936 0.1993 0.73612   -0.282958
 O 0.3416 0.4464 0.06487   -0.567917
 O 0.3901 0.3321 0.09795   -0.599337
 O 0.6353 0.3137 0.86838   -0.561758
 O 0.7555 0.2093 0.91202   -0.5487
 O 0.2455 0.0185 0.77064   -0.575273
 O 0.3698 0.9226 0.80134   -0.626647
 O 0.8416 0.0536 0.43513   -0.567917
 O 0.8901 0.1679 0.40205   -0.599337
 O 0.1353 0.1863 0.63162   -0.561758
 O 0.2555 0.2907 0.58798   -0.5487
 O 0.7455 0.4815 0.72936   -0.575273
 O 0.8698 0.5774 0.69866   -0.626647
 O 0.1584 0.4464 0.93513   -0.567917
 O 0.1099 0.3321 0.90205   -0.599337
 O 0.8647 0.3137 0.13162   -0.561758
 O 0.7445 0.2093 0.08798   -0.5487
 O 0.2545 0.0185 0.22936   -0.575273
 O 0.1302 0.9226 0.19866   -0.626647
 O 0.6584 0.0536 0.56487   -0.567917
 O 0.6099 0.1679 0.59795   -0.599337
 O 0.3647 0.1863 0.36838   -0.561758
 O 0.2445 0.2907 0.41202   -0.5487
 O 0.7545 0.4815 0.27064   -0.575273
 O 0.6302 0.5774 0.30134   -0.626647
 O 0.6584 0.5536 0.93513   -0.567917
 O 0.6099 0.6679 0.90205   -0.599337
 O 0.3647 0.6863 0.13162   -0.561758
 O 0.2445 0.7907 0.08798   -0.5487
 O 0.7545 0.9815 0.22936   -0.575273
 O 0.6302 0.0774 0.19866   -0.626647
 O 0.1584 0.9464 0.56487   -0.567917
 O 0.1099 0.8321 0.59795   -0.599337
 O 0.8647 0.8137 0.36838   -0.561758
 O 0.7445 0.7093 0.41202   -0.5487
 O 0.2545 0.5185 0.27064   -0.575273
 O 0.1302 0.4226 0.30134   -0.626647
 O 0.8416 0.5536 0.06487   -0.567917
 O 0.8901 0.6679 0.09795   -0.599337
 O 0.1353 0.6863 0.86838   -0.561758
 O 0.2555 0.7907 0.91202   -0.5487
 O 0.7455 0.9815 0.77064   -0.575273
 O 0.8698 0.0774 0.80134   -0.626647
 O 0.3416 0.9464 0.43513   -0.567917
 O 0.3901 0.8321 0.40205   -0.599337
 O 0.6353 0.8137 0.63162   -0.561758
 O 0.7555 0.7093 0.58798   -0.5487
 O 0.2455 0.5185 0.72936   -0.575273
 O 0.3698 0.4226 0.69866   -0.626647
