{'_ref': 'TBD', '_srcid': 'CAKYAQ_clean', 'submitters': [{'name': 'Dalar Nazarian Jeff Camp and David Sholl', 'email': 'dalar@gatech.edu jcamp6@gatech.edu'}], '_method': 'VASP DFT with PBE;DDEC'}
data_Mn3H8(C6N11)2
_symmetry_space_group_name_H-M   'P 1'
_cell_length_a   13.47700000
_cell_length_b   15.23960000
_cell_length_c   26.22000000
_cell_angle_alpha   90.00000000
_cell_angle_beta   90.00000000
_cell_angle_gamma   90.00000000
_symmetry_Int_Tables_number   1
_chemical_formula_structural   Mn3H8(C6N11)2
_chemical_formula_sum   'Mn24 H64 C96 N176'
_cell_volume   5385.17081882
_cell_formula_units_Z   8
loop_
 _symmetry_equiv_pos_site_id
 _symmetry_equiv_pos_as_xyz
  1  'x, y, z'
loop_
 _atom_site_label
 _atom_site_fract_x
 _atom_site_fract_y
 _atom_site_fract_z
 _atom_site_charge
 Mn 0.30367 0.95928 0.63982   0.965189
 Mn 0.31094 0.25026 0.30743   0.863597
 Mn 0.5782 0.46976 0.82576   0.807046
 Mn 0.69633 0.54072 0.13982   0.965189
 Mn 0.68906 0.24974 0.80743   0.863597
 Mn 0.4218 0.03024 0.32576   0.807046
 Mn 0.80367 0.04072 0.86018   0.965189
 Mn 0.81094 0.74974 0.19257   0.863597
 Mn 0.0782 0.53024 0.67424   0.807046
 Mn 0.19633 0.45928 0.36018   0.965189
 Mn 0.18906 0.75026 0.69257   0.863597
 Mn 0.9218 0.96976 0.17424   0.807046
 Mn 0.69633 0.04072 0.36018   0.965189
 Mn 0.68906 0.74974 0.69257   0.863597
 Mn 0.4218 0.53024 0.17424   0.807046
 Mn 0.30367 0.45928 0.86018   0.965189
 Mn 0.31094 0.75026 0.19257   0.863597
 Mn 0.5782 0.96976 0.67424   0.807046
 Mn 0.19633 0.95928 0.13982   0.965189
 Mn 0.18906 0.25026 0.80743   0.863597
 Mn 0.9218 0.46976 0.32576   0.807046
 Mn 0.80367 0.54072 0.63982   0.965189
 Mn 0.81094 0.24974 0.30743   0.863597
 Mn 0.0782 0.03024 0.82576   0.807046
 H 0.3687 0.5787 0.6349   0.110719
 H 0.488 0.3874 0.719   0.079309
 H 0.5121 0.6289 0.7638   0.063468
 H 0.3108 0.0294 0.5319   0.078921
 H 0.3938 0.4306 0.6494   0.144014
 H 0.1234 0.2229 0.5036   0.12419
 H 0.0814 0.2233 0.5895   0.130977
 H 0.1397 0.1142 0.6401   0.063905
 H 0.6313 0.9213 0.1349   0.110719
 H 0.512 0.1126 0.219   0.079309
 H 0.4879 0.8711 0.2638   0.063468
 H 0.6892 0.4706 0.0319   0.078921
 H 0.6062 0.0694 0.1494   0.144014
 H 0.8766 0.2771 0.0036   0.12419
 H 0.9186 0.2767 0.0895   0.130977
 H 0.8603 0.3858 0.1401   0.063905
 H 0.8687 0.4213 0.8651   0.110719
 H 0.988 0.6126 0.781   0.079309
 H 0.0121 0.3711 0.7362   0.063468
 H 0.8108 0.9706 0.9681   0.078921
 H 0.8938 0.5694 0.8506   0.144014
 H 0.6234 0.7771 0.9964   0.124191
 H 0.5814 0.7767 0.9105   0.130977
 H 0.6397 0.8858 0.8599   0.063905
 H 0.1313 0.0787 0.3651   0.110719
 H 0.012 0.8874 0.281   0.079309
 H 0.9879 0.1289 0.2362   0.063468
 H 0.1892 0.5294 0.4681   0.078921
 H 0.1062 0.9306 0.3506   0.144014
 H 0.3766 0.7229 0.4964   0.124191
 H 0.4186 0.7233 0.4105   0.130977
 H 0.3603 0.6142 0.3599   0.063905
 H 0.6313 0.4213 0.3651   0.110719
 H 0.512 0.6126 0.281   0.079309
 H 0.4879 0.3711 0.2362   0.063468
 H 0.6892 0.9706 0.4681   0.078921
 H 0.6062 0.5694 0.3506   0.144014
 H 0.8766 0.7771 0.4964   0.12419
 H 0.9186 0.7767 0.4105   0.130977
 H 0.8603 0.8858 0.3599   0.063904
 H 0.3687 0.0787 0.8651   0.110719
 H 0.488 0.8874 0.781   0.079309
 H 0.5121 0.1289 0.7362   0.063468
 H 0.3108 0.5294 0.9681   0.078921
 H 0.3938 0.9306 0.8506   0.144014
 H 0.1234 0.7229 0.9964   0.12419
 H 0.0814 0.7233 0.9105   0.130977
 H 0.1397 0.6142 0.8599   0.063904
 H 0.1313 0.5787 0.1349   0.110719
 H 0.012 0.3874 0.219   0.079309
 H 0.9879 0.6289 0.2638   0.063468
 H 0.1892 0.0294 0.0319   0.078921
 H 0.1062 0.4306 0.1494   0.144014
 H 0.3766 0.2229 0.0036   0.124191
 H 0.4186 0.2233 0.0895   0.130977
 H 0.3603 0.1142 0.1401   0.063904
 H 0.8687 0.9213 0.6349   0.110719
 H 0.988 0.1126 0.719   0.079309
 H 0.0121 0.8711 0.7638   0.063468
 H 0.8108 0.4706 0.5319   0.078921
 H 0.8938 0.0694 0.6494   0.144014
 H 0.6234 0.2771 0.5036   0.124191
 H 0.5814 0.2767 0.5895   0.130977
 H 0.6397 0.3858 0.6401   0.063904
 C 0.4041 0.5597 0.6633   0.032624
 C 0.4737 0.4466 0.7145   0.160821
 C 0.4897 0.5883 0.7399   0.164672
 C 0.4422 0.6192 0.6976   -0.132738
 C 0.3226 0.0689 0.4367   -0.484138
 C 0.2634 0.0692 0.5433   0.133471
 C 0.4375 0.7164 0.69   0.3615
 C 0.4193 0.4723 0.6718   -0.154312
 C 0.2297 0.1314 0.5094   0.040711
 C 0.1547 0.1849 0.5262   -0.02373
 C 0.1258 0.1822 0.5766   -0.128912
 C 0.1634 0.1187 0.6069   0.175713
 C 0.5959 0.9403 0.1633   0.032624
 C 0.5263 0.0534 0.2145   0.160821
 C 0.5103 0.9117 0.2399   0.164672
 C 0.5578 0.8808 0.1976   -0.132738
 C 0.6774 0.4311 0.9367   -0.484138
 C 0.7366 0.4308 0.0433   0.133471
 C 0.5625 0.7836 0.19   0.3615
 C 0.5807 0.0277 0.1718   -0.154312
 C 0.7703 0.3686 0.0094   0.040711
 C 0.8453 0.3151 0.0262   -0.02373
 C 0.8742 0.3178 0.0766   -0.128912
 C 0.8366 0.3813 0.1069   0.175713
 C 0.9041 0.4403 0.8367   0.032624
 C 0.9737 0.5534 0.7855   0.160821
 C 0.9897 0.4117 0.7601   0.164672
 C 0.9422 0.3808 0.8024   -0.132738
 C 0.8226 0.9311 0.0633   -0.484137
 C 0.7634 0.9308 0.9567   0.133471
 C 0.9375 0.2836 0.81   0.3615
 C 0.9193 0.5277 0.8282   -0.154312
 C 0.7297 0.8686 0.9906   0.040711
 C 0.6547 0.8151 0.9738   -0.02373
 C 0.6258 0.8178 0.9234   -0.128912
 C 0.6634 0.8813 0.8931   0.175713
 C 0.0959 0.0597 0.3367   0.032624
 C 0.0263 0.9466 0.2855   0.160821
 C 0.0103 0.0883 0.2601   0.164672
 C 0.0578 0.1192 0.3024   -0.132738
 C 0.1774 0.5689 0.5633   -0.484137
 C 0.2366 0.5692 0.4567   0.133471
 C 0.0625 0.2164 0.31   0.3615
 C 0.0807 0.9723 0.3282   -0.154312
 C 0.2703 0.6314 0.4906   0.040711
 C 0.3453 0.6849 0.4738   -0.02373
 C 0.3742 0.6822 0.4234   -0.128912
 C 0.3366 0.6187 0.3931   0.175713
 C 0.5959 0.4403 0.3367   0.032624
 C 0.5263 0.5534 0.2855   0.160821
 C 0.5103 0.4117 0.2601   0.164673
 C 0.5578 0.3808 0.3024   -0.132738
 C 0.6774 0.9311 0.5633   -0.484138
 C 0.7366 0.9308 0.4567   0.133471
 C 0.5625 0.2836 0.31   0.3615
 C 0.5807 0.5277 0.3282   -0.154312
 C 0.7703 0.8686 0.4906   0.040711
 C 0.8453 0.8151 0.4738   -0.02373
 C 0.8742 0.8178 0.4234   -0.128912
 C 0.8366 0.8813 0.3931   0.175713
 C 0.4041 0.0597 0.8367   0.032624
 C 0.4737 0.9466 0.7855   0.160821
 C 0.4897 0.0883 0.7601   0.164673
 C 0.4422 0.1192 0.8024   -0.132738
 C 0.3226 0.5689 0.0633   -0.484138
 C 0.2634 0.5692 0.9567   0.133471
 C 0.4375 0.2164 0.81   0.3615
 C 0.4193 0.9723 0.8282   -0.154312
 C 0.2297 0.6314 0.9906   0.040711
 C 0.1547 0.6849 0.9738   -0.02373
 C 0.1258 0.6822 0.9234   -0.128912
 C 0.1634 0.6187 0.8931   0.175713
 C 0.0959 0.5597 0.1633   0.032624
 C 0.0263 0.4466 0.2145   0.160821
 C 0.0103 0.5883 0.2399   0.164673
 C 0.0578 0.6192 0.1976   -0.132738
 C 0.1774 0.0689 0.9367   -0.484137
 C 0.2366 0.0692 0.0433   0.133471
 C 0.0625 0.7164 0.19   0.3615
 C 0.0807 0.4723 0.1718   -0.154312
 C 0.2703 0.1314 0.0094   0.040711
 C 0.3453 0.1849 0.0262   -0.02373
 C 0.3742 0.1822 0.0766   -0.128912
 C 0.3366 0.1187 0.1069   0.175713
 C 0.9041 0.9403 0.6633   0.032624
 C 0.9737 0.0534 0.7145   0.160821
 C 0.9897 0.9117 0.7399   0.164673
 C 0.9422 0.8808 0.6976   -0.132738
 C 0.8226 0.4311 0.4367   -0.484137
 C 0.7634 0.4308 0.5433   0.133471
 C 0.9375 0.7836 0.69   0.3615
 C 0.9193 0.0277 0.6718   -0.154312
 C 0.7297 0.3686 0.5094   0.040711
 C 0.6547 0.3151 0.5262   -0.02373
 C 0.6258 0.3178 0.5766   -0.128912
 C 0.6634 0.3813 0.6069   0.175713
 N 0.3075 0.1773 0.38327   -0.044069
 N 0.0584 0.8705 0.58   -0.37506
 N 0.173 0.8746 0.6506   -0.689628
 N 0.2582 0.2019 0.4256   -0.249374
 N 0.506 0.5037 0.7491   -0.34277
 N 0.2291 0.074 0.7436   0.55201
 N 0.3449 0.0979 0.3906   -0.069238
 N 0.1146 0.8733 0.6143   0.491063
 N 0.4478 0.1017 0.6275   0.521451
 N 0.2917 0.2987 0.2317   -0.519348
 N 0.3125 0.3586 0.2033   0.49077
 N 0.2688 0.035 0.7106   -0.490536
 N 0.3552 0.7632 0.68278   -0.260189
 N 0.3312 0.4167 0.1726   -0.495579
 N 0.5193 0.7651 0.68942   -0.291356
 N 0.4849 0.8475 0.68094   -0.001016
 N 0.1884 0.1119 0.7776   -0.591018
 N 0.4501 0.0242 0.6347   -0.652742
 N 0.2708 0.1322 0.4568   0.30829
 N 0.4444 0.1803 0.6252   -0.423377
 N 0.232 0.0626 0.5918   -0.36923
 N 0.3885 0.8459 0.67704   -0.076072
 N 0.6925 0.3227 0.88327   -0.044069
 N 0.9416 0.6295 0.08   -0.37506
 N 0.827 0.6254 0.1506   -0.689628
 N 0.7418 0.2981 0.9256   -0.249374
 N 0.494 0.9963 0.2491   -0.34277
 N 0.7709 0.426 0.2436   0.55201
 N 0.6551 0.4021 0.8906   -0.069238
 N 0.8854 0.6267 0.1143   0.491063
 N 0.5522 0.3983 0.1275   0.521451
 N 0.7083 0.2013 0.7317   -0.519348
 N 0.6875 0.1414 0.7033   0.49077
 N 0.7312 0.465 0.2106   -0.490536
 N 0.6448 0.7368 0.18278   -0.260189
 N 0.6688 0.0833 0.6726   -0.495579
 N 0.4807 0.7349 0.18942   -0.291356
 N 0.5151 0.6525 0.18094   -0.001016
 N 0.8116 0.3881 0.2776   -0.591018
 N 0.5499 0.4758 0.1347   -0.652742
 N 0.7292 0.3678 0.9568   0.30829
 N 0.5556 0.3197 0.1252   -0.423377
 N 0.768 0.4374 0.0918   -0.36923
 N 0.6115 0.6541 0.17704   -0.076072
 N 0.8075 0.8227 0.11673   -0.044069
 N 0.5584 0.1295 0.92   -0.37506
 N 0.673 0.1254 0.8494   -0.689628
 N 0.7582 0.7981 0.0744   -0.249374
 N 0.006 0.4963 0.7509   -0.34277
 N 0.7291 0.926 0.7564   0.55201
 N 0.8449 0.9021 0.1094   -0.069238
 N 0.6146 0.1267 0.8857   0.491063
 N 0.9478 0.8983 0.8725   0.521451
 N 0.7917 0.7013 0.2683   -0.519348
 N 0.8125 0.6414 0.2967   0.49077
 N 0.7688 0.965 0.7894   -0.490536
 N 0.8552 0.2368 0.81722   -0.260189
 N 0.8312 0.5833 0.3274   -0.495579
 N 0.0193 0.2349 0.81058   -0.291356
 N 0.9849 0.1525 0.81906   -0.001016
 N 0.6884 0.8881 0.7224   -0.591018
 N 0.9501 0.9758 0.8653   -0.652742
 N 0.7708 0.8678 0.0432   0.30829
 N 0.9444 0.8197 0.8748   -0.423377
 N 0.732 0.9374 0.9082   -0.36923
 N 0.8885 0.1541 0.82296   -0.076072
 N 0.1925 0.6773 0.61673   -0.044069
 N 0.4416 0.3705 0.42   -0.37506
 N 0.327 0.3746 0.3494   -0.689628
 N 0.2418 0.7019 0.5744   -0.249374
 N 0.994 0.0037 0.2509   -0.34277
 N 0.2709 0.574 0.2564   0.55201
 N 0.1551 0.5979 0.6094   -0.069238
 N 0.3854 0.3733 0.3857   0.491063
 N 0.0522 0.6017 0.3725   0.521451
 N 0.2083 0.7987 0.7683   -0.519348
 N 0.1875 0.8586 0.7967   0.490769
 N 0.2312 0.535 0.2894   -0.490536
 N 0.1448 0.2632 0.31722   -0.260189
 N 0.1688 0.9167 0.8274   -0.495579
 N 0.9807 0.2651 0.31058   -0.291356
 N 0.0151 0.3475 0.31906   -0.001016
 N 0.3116 0.6119 0.2224   -0.591018
 N 0.0499 0.5242 0.3653   -0.652742
 N 0.2292 0.6322 0.5432   0.30829
 N 0.0556 0.6803 0.3748   -0.423377
 N 0.268 0.5626 0.4082   -0.36923
 N 0.1115 0.3459 0.32296   -0.076072
 N 0.6925 0.8227 0.61673   -0.044069
 N 0.9416 0.1295 0.42   -0.37506
 N 0.827 0.1254 0.3494   -0.689628
 N 0.7418 0.7981 0.5744   -0.249374
 N 0.494 0.4963 0.2509   -0.342771
 N 0.7709 0.926 0.2564   0.55201
 N 0.6551 0.9021 0.6094   -0.069238
 N 0.8854 0.1267 0.3857   0.491063
 N 0.5522 0.8983 0.3725   0.521451
 N 0.7083 0.7013 0.7683   -0.519348
 N 0.6875 0.6414 0.7967   0.49077
 N 0.7312 0.965 0.2894   -0.490536
 N 0.6448 0.2368 0.31722   -0.260189
 N 0.6688 0.5833 0.8274   -0.495579
 N 0.4807 0.2349 0.31058   -0.291356
 N 0.5151 0.1525 0.31906   -0.001016
 N 0.8116 0.8881 0.2224   -0.591018
 N 0.5499 0.9758 0.3653   -0.652742
 N 0.7292 0.8678 0.5432   0.30829
 N 0.5556 0.8197 0.3748   -0.423377
 N 0.768 0.9374 0.4082   -0.36923
 N 0.6115 0.1541 0.32296   -0.076072
 N 0.3075 0.6773 0.11673   -0.044069
 N 0.0584 0.3705 0.92   -0.37506
 N 0.173 0.3746 0.8494   -0.689628
 N 0.2582 0.7019 0.0744   -0.249374
 N 0.506 0.0037 0.7509   -0.342771
 N 0.2291 0.574 0.7564   0.55201
 N 0.3449 0.5979 0.1094   -0.069238
 N 0.1146 0.3733 0.8857   0.491063
 N 0.4478 0.6017 0.8725   0.521451
 N 0.2917 0.7987 0.2683   -0.519348
 N 0.3125 0.8586 0.2967   0.49077
 N 0.2688 0.535 0.7894   -0.490536
 N 0.3552 0.2632 0.81722   -0.260189
 N 0.3312 0.9167 0.3274   -0.495579
 N 0.5193 0.2651 0.81058   -0.291356
 N 0.4849 0.3475 0.81906   -0.001016
 N 0.1884 0.6119 0.7224   -0.591018
 N 0.4501 0.5242 0.8653   -0.652742
 N 0.2708 0.6322 0.0432   0.30829
 N 0.4444 0.6803 0.8748   -0.423377
 N 0.232 0.5626 0.9082   -0.36923
 N 0.3885 0.3459 0.82296   -0.076072
 N 0.1925 0.1773 0.88327   -0.044069
 N 0.4416 0.8705 0.08   -0.37506
 N 0.327 0.8746 0.1506   -0.689628
 N 0.2418 0.2019 0.9256   -0.249374
 N 0.994 0.5037 0.2491   -0.342771
 N 0.2709 0.074 0.2436   0.55201
 N 0.1551 0.0979 0.8906   -0.069238
 N 0.3854 0.8733 0.1143   0.491063
 N 0.0522 0.1017 0.1275   0.521451
 N 0.2083 0.2987 0.7317   -0.519348
 N 0.1875 0.3586 0.7033   0.49077
 N 0.2312 0.035 0.2106   -0.490536
 N 0.1448 0.7632 0.18278   -0.260189
 N 0.1688 0.4167 0.6726   -0.495579
 N 0.9807 0.7651 0.18942   -0.291356
 N 0.0151 0.8475 0.18094   -0.001016
 N 0.3116 0.1119 0.2776   -0.591018
 N 0.0499 0.0242 0.1347   -0.652742
 N 0.2292 0.1322 0.9568   0.30829
 N 0.0556 0.1803 0.1252   -0.423377
 N 0.268 0.0626 0.0918   -0.36923
 N 0.1115 0.8459 0.17704   -0.076072
 N 0.8075 0.3227 0.38327   -0.044069
 N 0.5584 0.6295 0.58   -0.37506
 N 0.673 0.6254 0.6506   -0.689628
 N 0.7582 0.2981 0.4256   -0.249374
 N 0.006 0.9963 0.7491   -0.342771
 N 0.7291 0.426 0.7436   0.55201
 N 0.8449 0.4021 0.3906   -0.069238
 N 0.6146 0.6267 0.6143   0.491063
 N 0.9478 0.3983 0.6275   0.521451
 N 0.7917 0.2013 0.2317   -0.519348
 N 0.8125 0.1414 0.2033   0.49077
 N 0.7688 0.465 0.7106   -0.490536
 N 0.8552 0.7368 0.68278   -0.260189
 N 0.8312 0.0833 0.1726   -0.495579
 N 0.0193 0.7349 0.68942   -0.291356
 N 0.9849 0.6525 0.68094   -0.001016
 N 0.6884 0.3881 0.7776   -0.591018
 N 0.9501 0.4758 0.6347   -0.652742
 N 0.7708 0.3678 0.4568   0.30829
 N 0.9444 0.3197 0.6252   -0.423377
 N 0.732 0.4374 0.5918   -0.36923
 N 0.8885 0.6541 0.67704   -0.076072
