{'_ref': 'TBD', '_srcid': 'CAKYAQ_clean', 'submitters': [{'name': 'Dalar Nazarian Jeff Camp and David Sholl', 'email': 'dalar@gatech.edu jcamp6@gatech.edu'}], '_method': 'VASP DFT with PBE;DDEC'}
data_LaC5O6
_symmetry_space_group_name_H-M   'P 1'
_cell_length_a   6.72400000
_cell_length_b   14.09600000
_cell_length_c   23.98400000
_cell_angle_alpha   90.00000000
_cell_angle_beta   90.00000000
_cell_angle_gamma   90.00000000
_symmetry_Int_Tables_number   1
_chemical_formula_structural   LaC5O6
_chemical_formula_sum   'La8 C40 O48'
_cell_volume   2273.23959194
_cell_formula_units_Z   8
loop_
 _symmetry_equiv_pos_site_id
 _symmetry_equiv_pos_as_xyz
  1  'x, y, z'
loop_
 _atom_site_label
 _atom_site_fract_x
 _atom_site_fract_y
 _atom_site_fract_z
 _atom_site_charge
 La 0.88231 0.20589 0.63399   2.143809
 La 0.38231 0.29411 0.86601   2.143809
 La 0.61769 0.20589 0.36601   2.143808
 La 0.11769 0.29411 0.13399   2.143808
 La 0.11769 0.79411 0.36601   2.143812
 La 0.61769 0.70589 0.13399   2.143812
 La 0.38231 0.79411 0.63399   2.143811
 La 0.88231 0.70589 0.86601   2.143811
 C 0.0245 0.3911 0.7325   0.278788
 C 0.0566 0.4336 0.7876   0.187276
 C 0.0152 0.5269 0.7662   0.248317
 C 0.9894 0.4871 0.7095   0.182055
 C 0.8596 0.2035 0.4914   0.579921
 C 0.5245 0.1089 0.7675   0.278788
 C 0.5566 0.0664 0.7124   0.187276
 C 0.5152 0.9731 0.7338   0.248317
 C 0.4894 0.0129 0.7905   0.182055
 C 0.3596 0.2965 0.0086   0.579921
 C 0.4755 0.3911 0.2675   0.278788
 C 0.4434 0.4336 0.2124   0.187276
 C 0.4848 0.5269 0.2338   0.248317
 C 0.5106 0.4871 0.2905   0.182055
 C 0.6404 0.2035 0.5086   0.579921
 C 0.9755 0.1089 0.2325   0.278788
 C 0.9434 0.0664 0.2876   0.187276
 C 0.9848 0.9731 0.2662   0.248317
 C 0.0106 0.0129 0.2095   0.182055
 C 0.1404 0.2965 0.9914   0.579921
 C 0.9755 0.6089 0.2675   0.278788
 C 0.9434 0.5664 0.2124   0.187276
 C 0.9848 0.4731 0.2338   0.248317
 C 0.0106 0.5129 0.2905   0.182055
 C 0.1404 0.7965 0.5086   0.579921
 C 0.4755 0.8911 0.2325   0.278788
 C 0.4434 0.9336 0.2876   0.187276
 C 0.4848 0.0269 0.2662   0.248317
 C 0.5106 0.9871 0.2095   0.182055
 C 0.6404 0.7035 0.9914   0.579921
 C 0.5245 0.6089 0.7325   0.278788
 C 0.5566 0.5664 0.7876   0.187276
 C 0.5152 0.4731 0.7662   0.248317
 C 0.4894 0.5129 0.7095   0.182055
 C 0.3596 0.7965 0.4914   0.57992
 C 0.0245 0.8911 0.7675   0.278788
 C 0.0566 0.9336 0.7124   0.187276
 C 0.0152 0.0269 0.7338   0.248317
 C 0.9894 0.9871 0.7905   0.182055
 C 0.8596 0.7035 0.0086   0.57992
 O 0.0248 0.3086 0.7134   -0.610147
 O 0.1048 0.4035 0.8353   -0.643571
 O 0.0059 0.6094 0.7858   -0.607326
 O 0.9551 0.5206 0.6626   -0.466558
 O 0.9876 0.2059 0.5292   -0.649173
 O 0.8943 0.1994 0.43975   -0.643391
 O 0.5248 0.1914 0.7866   -0.610147
 O 0.6048 0.0965 0.6647   -0.643571
 O 0.5059 0.8906 0.7142   -0.607326
 O 0.4551 0.9794 0.8374   -0.466558
 O 0.4876 0.2941 0.9708   -0.649173
 O 0.3943 0.3006 0.06025   -0.643391
 O 0.4752 0.3086 0.2866   -0.610147
 O 0.3952 0.4035 0.1647   -0.643571
 O 0.4941 0.6094 0.2142   -0.607326
 O 0.5449 0.5206 0.3374   -0.466558
 O 0.5124 0.2059 0.4708   -0.649173
 O 0.6057 0.1994 0.56025   -0.643391
 O 0.9752 0.1914 0.2134   -0.610147
 O 0.8952 0.0965 0.3353   -0.643571
 O 0.9941 0.8906 0.2858   -0.607326
 O 0.0449 0.9794 0.1626   -0.466558
 O 0.0124 0.2941 0.0292   -0.649173
 O 0.1057 0.3006 0.93975   -0.643391
 O 0.9752 0.6914 0.2866   -0.610148
 O 0.8952 0.5965 0.1647   -0.643571
 O 0.9941 0.3906 0.2142   -0.607326
 O 0.0449 0.4794 0.3374   -0.466559
 O 0.0124 0.7941 0.4708   -0.649173
 O 0.1057 0.8006 0.56025   -0.643391
 O 0.4752 0.8086 0.2134   -0.610148
 O 0.3952 0.9035 0.3353   -0.643571
 O 0.4941 0.1094 0.2858   -0.607326
 O 0.5449 0.0206 0.1626   -0.466559
 O 0.5124 0.7059 0.0292   -0.649173
 O 0.6057 0.6994 0.93975   -0.643391
 O 0.5248 0.6914 0.7134   -0.610147
 O 0.6048 0.5965 0.8353   -0.643571
 O 0.5059 0.3906 0.7858   -0.607326
 O 0.4551 0.4794 0.6626   -0.466559
 O 0.4876 0.7941 0.5292   -0.649173
 O 0.3943 0.8006 0.43975   -0.643391
 O 0.0248 0.8086 0.7866   -0.610147
 O 0.1048 0.9035 0.6647   -0.643571
 O 0.0059 0.1094 0.7142   -0.607326
 O 0.9551 0.0206 0.8374   -0.466559
 O 0.9876 0.7059 0.9708   -0.649173
 O 0.8943 0.6994 0.06025   -0.643391
