{'_ref': 'TBD', '_srcid': 'CAKYAQ_clean', 'submitters': [{'name': 'Dalar Nazarian Jeff Camp and David Sholl', 'email': 'dalar@gatech.edu jcamp6@gatech.edu'}], '_method': 'VASP DFT with PBE;DDEC'}
data_ZnH18C24N3O5
_symmetry_space_group_name_H-M   'P 1'
_cell_length_a   16.44100000
_cell_length_b   17.30900031
_cell_length_c   18.12800000
_cell_angle_alpha   92.43899979
_cell_angle_beta   90.00000000
_cell_angle_gamma   90.00000000
_symmetry_Int_Tables_number   1
_chemical_formula_structural   ZnH18C24N3O5
_chemical_formula_sum   'Zn8 H144 C192 N24 O40'
_cell_volume   5154.14342685
_cell_formula_units_Z   8
loop_
 _symmetry_equiv_pos_site_id
 _symmetry_equiv_pos_as_xyz
  1  'x, y, z'
loop_
 _atom_site_label
 _atom_site_fract_x
 _atom_site_fract_y
 _atom_site_fract_z
 _atom_site_charge
 Zn 0.49907 0.72403 0.22756   0.864358
 Zn 0.00625 0.70831 0.79086   0.853617
 Zn 0.000929999999997 0.22403 0.72756   0.864358
 Zn 0.49375 0.20831 0.29086   0.853617
 Zn 0.99907 0.77597 0.27244   0.864358
 Zn 0.50625 0.79169 0.70914   0.853617
 Zn 0.50093 0.27597 0.77244   0.864358
 Zn 0.99375 0.29169 0.20914   0.853617
 H 0.8275 0.6936 0.5247   0.07494
 H 0.8212 0.7835 0.5386   0.081825
 H 0.6989 0.7557 0.6107   0.109714
 H 0.7312 0.6704 0.61   0.073766
 H 0.7715 0.8477 0.3042   0.142687
 H 0.819 0.7552 0.3961   0.109562
 H 0.7827 0.6713 0.3914   0.075333
 H 0.8236 0.5865 0.6025   0.114393
 H 0.2487 0.0218 0.7542   0.132676
 H 0.5219 0.145 0.5389   0.097919
 H 0.6868 0.7017 0.4788   0.074703
 H 0.7037 0.7906 0.4742   0.087721
 H 0.8631 0.8587 0.7945   0.10065
 H 0.1474 0.9372 0.7849   0.08653
 H 0.4843 0.0845 0.645   0.134383
 H 0.1568 0.441 0.7204   0.087938
 H 0.264 0.5241 0.7441   0.131688
 H 0.3174 0.5011 0.9627   0.11787
 H 0.2962 0.9869 0.5365   0.122457
 H 0.9983 0.4415 0.662   0.135925
 H 0.6836 0.595 0.4009   0.116455
 H 0.2259 0.7841 0.629   0.101739
 H 0.2362 0.3023 0.8756   0.103319
 H 0.0456 0.5364 0.7446   0.081664
 H 0.7506 0.8502 0.7053   0.141277
 H 0.331 0.8673 0.6007   0.146372
 H 0.609 0.4825 0.4148   0.106104
 H 0.3475 0.3822 0.897   0.143468
 H 0.4945 0.604 0.8531   0.132326
 H 0.3347 0.0484 0.4312   0.081147
 H 0.8867 0.467 0.5903   0.107423
 H 0.654 0.8606 0.2212   0.101184
 H 0.3596 0.5644 0.071   0.085445
 H 0.4452 0.5602 0.275   0.084855
 H 0.4883 0.4654 0.35   0.130241
 H 0.5346 0.669 0.9602   0.097435
 H 0.6725 0.1936 0.0247   0.07494
 H 0.6788 0.2835 0.0386   0.081825
 H 0.8011 0.2557 0.1107   0.109714
 H 0.7688 0.1704 0.11   0.073766
 H 0.7285 0.3477 0.8042   0.142687
 H 0.681 0.2552 0.8961   0.109562
 H 0.7173 0.1713 0.8914   0.075333
 H 0.6764 0.0865 0.1025   0.114393
 H 0.2513 0.5218 0.2542   0.132676
 H 0.9781 0.645 0.0389   0.097919
 H 0.8132 0.2017 0.9788   0.074703
 H 0.7963 0.2906 0.9742   0.087721
 H 0.6369 0.3587 0.2945   0.100649
 H 0.3526 0.4372 0.2849   0.08653
 H 0.0157 0.5845 0.145   0.134383
 H 0.3432 0.941 0.2204   0.087938
 H 0.236 0.0241 0.2441   0.131688
 H 0.1826 0.0011 0.4627   0.117871
 H 0.2038 0.4869 0.0365   0.122457
 H 0.5017 0.9415 0.162   0.135924
 H 0.8164 0.095 0.9009   0.116455
 H 0.2741 0.2841 0.129   0.101739
 H 0.2638 0.8023 0.3756   0.103319
 H 0.4544 0.0364 0.2446   0.081664
 H 0.7494 0.3502 0.2053   0.141277
 H 0.169 0.3673 0.1007   0.146372
 H 0.891 0.9825 0.9148   0.106103
 H 0.1525 0.8822 0.397   0.143468
 H 0.0055 0.104 0.3531   0.132326
 H 0.1653 0.5484 0.9312   0.081147
 H 0.6133 0.967 0.0903   0.107423
 H 0.846 0.3606 0.7212   0.101183
 H 0.1404 0.0644 0.571   0.085445
 H 0.0548 0.0602 0.775   0.084854
 H 0.0117 0.9654 0.85   0.130241
 H 0.9654 0.169 0.4602   0.097435
 H 0.3275 0.8064 0.9753   0.074941
 H 0.3212 0.7165 0.9614   0.081825
 H 0.1989 0.7443 0.8893   0.109714
 H 0.2312 0.8296 0.89   0.073767
 H 0.2715 0.6523 0.1958   0.142687
 H 0.319 0.7448 0.1039   0.109562
 H 0.2827 0.8287 0.1086   0.075334
 H 0.3236 0.9135 0.8975   0.114393
 H 0.7487 0.4782 0.7458   0.132675
 H 0.0219 0.355 0.9611   0.097919
 H 0.1868 0.7983 0.0212   0.074704
 H 0.2037 0.7094 0.0258   0.087721
 H 0.3631 0.6413 0.7055   0.10065
 H 0.6474 0.5628 0.7151   0.08653
 H 0.9843 0.4155 0.855   0.134383
 H 0.6568 0.059 0.7796   0.087938
 H 0.764 0.9759 0.7559   0.131687
 H 0.8174 0.9989 0.5373   0.11787
 H 0.7962 0.5131 0.9635   0.122457
 H 0.4983 0.0585 0.838   0.135925
 H 0.1836 0.905 0.0991   0.116455
 H 0.7259 0.7159 0.871   0.101738
 H 0.7362 0.1977 0.6244   0.103318
 H 0.5456 0.9636 0.7554   0.081664
 H 0.2506 0.6498 0.7947   0.141276
 H 0.831 0.6327 0.8993   0.146372
 H 0.109 0.0175 0.0852   0.106103
 H 0.8475 0.1178 0.603   0.143468
 H 0.9945 0.896 0.6469   0.132326
 H 0.8347 0.4516 0.0688   0.081147
 H 0.3867 0.033 0.9097   0.107422
 H 0.154 0.6394 0.2788   0.101183
 H 0.8596 0.9356 0.429   0.085445
 H 0.9452 0.9398 0.225   0.084854
 H 0.9883 0.0346 0.15   0.130241
 H 0.0346 0.831 0.5398   0.097436
 H 0.1725 0.3064 0.4753   0.074941
 H 0.1788 0.2165 0.4614   0.081825
 H 0.3011 0.2443 0.3893   0.109714
 H 0.2688 0.3296 0.39   0.073767
 H 0.2285 0.1523 0.6958   0.142687
 H 0.181 0.2448 0.6039   0.109562
 H 0.2173 0.3287 0.6086   0.075334
 H 0.1764 0.4135 0.3975   0.114393
 H 0.7513 0.9782 0.2458   0.132675
 H 0.4781 0.855 0.4611   0.097919
 H 0.3132 0.2983 0.5212   0.074704
 H 0.2963 0.2094 0.5258   0.087721
 H 0.1369 0.1413 0.2055   0.100649
 H 0.8526 0.0628 0.2151   0.08653
 H 0.5157 0.9155 0.355   0.134383
 H 0.8432 0.559 0.2796   0.087938
 H 0.736 0.4759 0.2559   0.131687
 H 0.6826 0.4989 0.0373   0.117871
 H 0.7038 0.0131 0.4635   0.122457
 H 0.0017 0.5585 0.338   0.135925
 H 0.3164 0.405 0.5991   0.116455
 H 0.7741 0.2159 0.371   0.101738
 H 0.7638 0.6977 0.1244   0.103318
 H 0.9544 0.4636 0.2554   0.081664
 H 0.2494 0.1498 0.2947   0.141276
 H 0.669 0.1327 0.3993   0.146372
 H 0.391 0.5175 0.5852   0.106102
 H 0.6525 0.6178 0.103   0.143468
 H 0.5055 0.396 0.1469   0.132326
 H 0.6653 0.9516 0.5688   0.081147
 H 0.1133 0.533 0.4097   0.107422
 H 0.346 0.1394 0.7788   0.101183
 H 0.6404 0.4356 0.929   0.085445
 H 0.5548 0.4398 0.725   0.084854
 H 0.5117 0.5346 0.65   0.130241
 H 0.4654 0.331 0.0398   0.097436
 C 0.6449 0.7157 0.31244   0.164263
 C 0.453 0.1439 0.4056   0.64424
 C 0.79 0.7359 0.5351   -0.148019
 C 0.7477 0.7241 0.60801   -0.026284
 C 0.8655 0.7078 0.69926   0.167188
 C 0.7276 0.814 0.2992   -0.113842
 C 0.7689 0.7257 0.39779   -0.027726
 C 0.8992 0.6308 0.68102   0.184868
 C 0.1125 0.7958 0.7343   0.65149
 C 0.1759 0.8513 0.7105   -0.183063
 C 0.185 0.3631 0.7952   -0.186615
 C 0.4027 0.5449 0.898   0.295015
 C 0.4736 0.6674 0.0973   0.649262
 C 0.3 0.9512 0.6758   0.276412
 C 0.3859 0.0306 0.6012   0.292498
 C 0.8689 0.5758 0.631   -0.18743
 C 0.2448 0.9735 0.73   -0.245482
 C 0.476 0.1134 0.5383   0.020421
 C 0.7291 0.74 0.47241   -0.151942
 C 0.3152 0.4611 0.8234   0.28018
 C 0.605 0.643 0.33119   0.186504
 C 0.8532 0.8177 0.7609   0.053778
 C 0.4507 0.6241 0.0273   -0.202545
 C 0.1839 0.9231 0.7475   -0.004995
 C 0.4537 0.0773 0.6021   -0.236525
 C 0.1946 0.4295 0.7565   2.8e-05
 C 0.2587 0.4792 0.7702   -0.241159
 C 0.3618 0.5343 0.9622   -0.265662
 C 0.3415 0.0191 0.5374   -0.267569
 C 0.9726 0.4894 0.6661   -0.177256
 C 0.6345 0.5875 0.3761   -0.189742
 C 0.4314 0.1034 0.4739   -0.202999
 C 0.2311 0.8314 0.6549   0.012891
 C 0.2423 0.3465 0.8486   0.01936
 C 0.000900000000001 0.5468 0.7152   0.193276
 C 0.791 0.8135 0.7114   -0.111632
 C 0.2938 0.8811 0.6375   -0.218633
 C 0.5904 0.5203 0.384   0.018218
 C 0.3084 0.3945 0.8623   -0.222085
 C 0.4672 0.596 0.8971   -0.234142
 C 0.3649 0.056 0.4743   0.021883
 C 0.9065 0.5046 0.6239   0.015204
 C 0.6624 0.8207 0.2531   0.066071
 C 0.3867 0.5731 0.0271   0.022507
 C 0.4932 0.5675 0.3016   0.197026
 C 0.5188 0.5103 0.3458   -0.182502
 C 0.4909 0.6349 0.9612   0.015021
 C 0.1162 0.3087 0.7771   0.650348
 C 0.8551 0.2157 0.81244   0.164263
 C 0.047 0.6439 0.9056   0.64424
 C 0.71 0.2359 0.0351   -0.148019
 C 0.7523 0.2241 0.10801   -0.026284
 C 0.6345 0.2078 0.19926   0.167188
 C 0.7724 0.314 0.7992   -0.113842
 C 0.7311 0.2257 0.89779   -0.027726
 C 0.6008 0.1308 0.18102   0.184868
 C 0.3875 0.2958 0.2343   0.65149
 C 0.3241 0.3513 0.2105   -0.183063
 C 0.315 0.8631 0.2952   -0.186615
 C 0.0973 0.0449 0.398   0.295015
 C 0.0264 0.1674 0.5973   0.649262
 C 0.2 0.4512 0.1758   0.276412
 C 0.1141 0.5306 0.1012   0.292498
 C 0.6311 0.0758 0.131   -0.18743
 C 0.2552 0.4735 0.23   -0.245482
 C 0.024 0.6134 0.0383   0.020421
 C 0.7709 0.24 0.97241   -0.151942
 C 0.1848 0.9611 0.3234   0.28018
 C 0.895 0.143 0.83119   0.186504
 C 0.6468 0.3177 0.2609   0.053779
 C 0.0493 0.1241 0.5273   -0.202545
 C 0.3161 0.4231 0.2475   -0.004995
 C 0.0463 0.5773 0.1021   -0.236525
 C 0.3054 0.9295 0.2565   2.8e-05
 C 0.2413 0.9792 0.2702   -0.241159
 C 0.1382 0.0343 0.4622   -0.265662
 C 0.1585 0.5191 0.0374   -0.267569
 C 0.5274 0.9894 0.1661   -0.177256
 C 0.8655 0.0875 0.8761   -0.189742
 C 0.0686 0.6034 0.9739   -0.202999
 C 0.2689 0.3314 0.1549   0.012891
 C 0.2577 0.8465 0.3486   0.01936
 C 0.4991 0.0468 0.2152   0.193276
 C 0.709 0.3135 0.2114   -0.111632
 C 0.2062 0.3811 0.1375   -0.218633
 C 0.9096 0.0203 0.884   0.018218
 C 0.1916 0.8945 0.3623   -0.222085
 C 0.0328 0.096 0.3971   -0.234142
 C 0.1351 0.556 0.9743   0.021883
 C 0.5935 0.0046 0.1239   0.015204
 C 0.8376 0.3207 0.7531   0.066071
 C 0.1133 0.0731 0.5271   0.022507
 C 0.0068 0.0675 0.8016   0.197026
 C 0.9812 0.0103 0.8458   -0.182502
 C 0.0091 0.1349 0.4612   0.015021
 C 0.3838 0.8087 0.2771   0.650348
 C 0.1449 0.7843 0.18756   0.164263
 C 0.953 0.3561 0.0944   0.64424
 C 0.29 0.7641 0.9649   -0.148019
 C 0.2477 0.7759 0.89199   -0.026284
 C 0.3655 0.7922 0.80074   0.167188
 C 0.2276 0.686 0.2008   -0.113842
 C 0.2689 0.7743 0.10221   -0.027726
 C 0.3992 0.8692 0.81898   0.184868
 C 0.6125 0.7042 0.7657   0.65149
 C 0.6759 0.6487 0.7895   -0.183063
 C 0.685 0.1369 0.7048   -0.186615
 C 0.9027 0.9551 0.602   0.295015
 C 0.9736 0.8326 0.4027   0.649262
 C 0.8 0.5488 0.8242   0.276412
 C 0.8859 0.4694 0.8988   0.292498
 C 0.3689 0.9242 0.869   -0.18743
 C 0.7448 0.5265 0.77   -0.245481
 C 0.976 0.3866 0.9617   0.020421
 C 0.2291 0.76 0.02759   -0.151942
 C 0.8152 0.0389 0.6766   0.28018
 C 0.105 0.857 0.16881   0.186504
 C 0.3532 0.6823 0.7391   0.053778
 C 0.9507 0.8759 0.4727   -0.202545
 C 0.6839 0.5769 0.7525   -0.004995
 C 0.9537 0.4227 0.8979   -0.236525
 C 0.6946 0.0705 0.7435   2.8e-05
 C 0.7587 0.0208 0.7298   -0.241159
 C 0.8618 0.9657 0.5378   -0.265662
 C 0.8415 0.4809 0.9626   -0.267569
 C 0.4726 0.0106 0.8339   -0.177256
 C 0.1345 0.9125 0.1239   -0.189742
 C 0.9314 0.3966 0.0261   -0.202999
 C 0.7311 0.6686 0.8451   0.012892
 C 0.7423 0.1535 0.6514   0.01936
 C 0.5009 0.9532 0.7848   0.193277
 C 0.291 0.6865 0.7886   -0.111632
 C 0.7938 0.6189 0.8625   -0.218633
 C 0.0904 0.9797 0.116   0.018218
 C 0.8084 0.1055 0.6377   -0.222086
 C 0.9672 0.904 0.6029   -0.234141
 C 0.8649 0.444 0.0257   0.021883
 C 0.4065 0.9954 0.8761   0.015204
 C 0.1624 0.6793 0.2469   0.066071
 C 0.8867 0.9269 0.4729   0.022507
 C 0.9932 0.9325 0.1984   0.197026
 C 0.0188 0.9897 0.1542   -0.182502
 C 0.9909 0.8651 0.5388   0.015021
 C 0.6162 0.1913 0.7229   0.650348
 C 0.3551 0.2843 0.68756   0.164263
 C 0.547 0.8561 0.5944   0.64424
 C 0.21 0.2641 0.4649   -0.148019
 C 0.2523 0.2759 0.39199   -0.026284
 C 0.1345 0.2922 0.30074   0.167188
 C 0.2724 0.186 0.7008   -0.113842
 C 0.2311 0.2743 0.60221   -0.027726
 C 0.1008 0.3692 0.31898   0.184868
 C 0.8875 0.2042 0.2657   0.65149
 C 0.8241 0.1487 0.2895   -0.183063
 C 0.815 0.6369 0.2048   -0.186615
 C 0.5973 0.4551 0.102   0.295015
 C 0.5264 0.3326 0.9027   0.649262
 C 0.7 0.0488 0.3242   0.276412
 C 0.6141 0.9694 0.3988   0.292498
 C 0.1311 0.4242 0.369   -0.187431
 C 0.7552 0.0265 0.27   -0.245481
 C 0.524 0.8866 0.4617   0.020421
 C 0.2709 0.26 0.52759   -0.151942
 C 0.6848 0.5389 0.1766   0.28018
 C 0.395 0.357 0.66881   0.186504
 C 0.1468 0.1823 0.2391   0.053779
 C 0.5493 0.3759 0.9727   -0.202545
 C 0.8161 0.0769 0.2525   -0.004995
 C 0.5463 0.9227 0.3979   -0.236525
 C 0.8054 0.5705 0.2435   2.8e-05
 C 0.7413 0.5208 0.2298   -0.241159
 C 0.6382 0.4657 0.0378   -0.265662
 C 0.6585 0.9809 0.4626   -0.267569
 C 0.0274 0.5106 0.3339   -0.177256
 C 0.3655 0.4125 0.6239   -0.189742
 C 0.5686 0.8966 0.5261   -0.202999
 C 0.7689 0.1686 0.3451   0.012892
 C 0.7577 0.6535 0.1514   0.01936
 C 0.9991 0.4532 0.2848   0.193277
 C 0.209 0.1865 0.2886   -0.111632
 C 0.7062 0.1189 0.3625   -0.218633
 C 0.4096 0.4797 0.616   0.018218
 C 0.6916 0.6055 0.1377   -0.222086
 C 0.5328 0.404 0.1029   -0.234141
 C 0.6351 0.944 0.5257   0.021883
 C 0.0935 0.4954 0.3761   0.015204
 C 0.3376 0.1793 0.7469   0.066072
 C 0.6133 0.4269 0.9729   0.022507
 C 0.5068 0.4325 0.6984   0.197026
 C 0.4812 0.4897 0.6542   -0.182502
 C 0.5091 0.3651 0.0388   0.015021
 C 0.8838 0.6913 0.2229   0.650348
 N 0.79982 0.74419 0.67217   0.039414
 N 0.71538 0.74767 0.33674   0.043329
 N 0.96636 0.61595 0.72173   -0.308822
 N 0.5337 0.63285 0.29487   -0.31099
 N 0.6117 0.75924 0.26147   -0.374412
 N 0.89869 0.75176 0.75318   -0.365376
 N 0.70018 0.24419 0.17217   0.039414
 N 0.78462 0.24767 0.83674   0.043329
 N 0.53364 0.11595 0.22173   -0.308822
 N 0.9663 0.13285 0.79487   -0.31099
 N 0.8883 0.25924 0.76147   -0.374412
 N 0.60131 0.25176 0.25318   -0.365376
 N 0.29982 0.75581 0.82783   0.039414
 N 0.21538 0.75233 0.16326   0.043329
 N 0.46636 0.88405 0.77827   -0.308822
 N 0.0337 0.86715 0.20513   -0.31099
 N 0.1117 0.74076 0.23853   -0.374412
 N 0.39869 0.74824 0.74682   -0.365376
 N 0.20018 0.25581 0.32783   0.039414
 N 0.28462 0.25233 0.66326   0.043329
 N 0.03364 0.38405 0.27827   -0.308822
 N 0.4663 0.36715 0.70513   -0.31099
 N 0.3883 0.24076 0.73853   -0.374412
 N 0.10131 0.24824 0.24682   -0.365376
 O 0.5163 0.18637 0.40457   -0.596036
 O 0.36644 0.000439999999998 0.66821   -0.269005
 O 0.40861 0.13614 0.34937   -0.591894
 O 0.07397 0.81035 0.79354   -0.615855
 O 0.38245 0.50975 0.83038   -0.27538
 O 0.0991 0.7353 0.69737   -0.600059
 O 0.5272 0.7181 0.09891   -0.598162
 O 0.435 0.65171 0.15544   -0.611016
 O 0.06827 0.324 0.7259   -0.601383
 O 0.107 0.249 0.8121   -0.605565
 O 0.9837 0.68637 0.90457   -0.596036
 O 0.13356 0.50044 0.16821   -0.269005
 O 0.09139 0.63614 0.84937   -0.591894
 O 0.42603 0.31035 0.29354   -0.615855
 O 0.11755 0.00975 0.33038   -0.27538
 O 0.4009 0.2353 0.19737   -0.600059
 O 0.9728 0.2181 0.59891   -0.598162
 O 0.065 0.15171 0.65544   -0.611016
 O 0.43173 0.824 0.2259   -0.601382
 O 0.393 0.749 0.3121   -0.605565
 O 0.0163 0.31363 0.09543   -0.596036
 O 0.86644 0.49956 0.83179   -0.269005
 O 0.90861 0.36386 0.15063   -0.591894
 O 0.57397 0.68965 0.70646   -0.615855
 O 0.88245 0.99025 0.66962   -0.27538
 O 0.5991 0.7647 0.80263   -0.600059
 O 0.0272 0.7819 0.40109   -0.598162
 O 0.935 0.84829 0.34456   -0.611016
 O 0.56827 0.176 0.7741   -0.601383
 O 0.607 0.251 0.6879   -0.605565
 O 0.4837 0.81363 0.59543   -0.596036
 O 0.63356 0.99956 0.33179   -0.269005
 O 0.59139 0.86386 0.65063   -0.591894
 O 0.92603 0.18965 0.20646   -0.615855
 O 0.61755 0.49025 0.16962   -0.27538
 O 0.9009 0.2647 0.30263   -0.600059
 O 0.4728 0.2819 0.90109   -0.598162
 O 0.565 0.34829 0.84456   -0.611016
 O 0.93173 0.676 0.2741   -0.601383
 O 0.893 0.751 0.1879   -0.605565
