{'_ref': 'TBD', '_srcid': 'CAKYAQ_clean', 'submitters': [{'name': 'Dalar Nazarian Jeff Camp and David Sholl', 'email': 'dalar@gatech.edu jcamp6@gatech.edu'}], '_method': 'VASP DFT with PBE;DDEC'}
data_Zn2H44C66(N2O5)3
_symmetry_space_group_name_H-M   'P 1'
_cell_length_a   11.28939954
_cell_length_b   11.28939995
_cell_length_c   25.63600000
_cell_angle_alpha   92.57649865
_cell_angle_beta   92.57649875
_cell_angle_gamma   101.37999789
_symmetry_Int_Tables_number   1
_chemical_formula_structural   Zn2H44C66(N2O5)3
_chemical_formula_sum   'Zn4 H88 C132 N12 O30'
_cell_volume   3195.01295958
_cell_formula_units_Z   2
loop_
 _symmetry_equiv_pos_site_id
 _symmetry_equiv_pos_as_xyz
  1  'x, y, z'
loop_
 _atom_site_label
 _atom_site_fract_x
 _atom_site_fract_y
 _atom_site_fract_z
 _atom_site_charge
 Zn 0.84586 0.182 0.4943   0.894317
 Zn 0.818 0.15414 0.0057   0.894317
 Zn 0.15414 0.818 0.5057   0.894317
 Zn 0.182 0.84586 0.9943   0.894317
 H 0.0979 0.0573 0.5928   0.098083
 H 0.3818 0.6332 0.5256   0.097684
 H 0.6153 0.6019 0.6824   0.126119
 H 0.7068 0.5746 0.6051   0.092638
 H 0.6569 0.5607 0.4467   0.101349
 H 0.228 0.0014 0.6554   0.132939
 H 0.6865 0.2755 0.3955   0.086742
 H 0.4672 0.9732 0.8617   0.098599
 H 0.731 0.7352 0.5357   0.144237
 H 0.1774 0.1176 0.7636   0.128889
 H 0.2191 0.4049 0.6378   0.100365
 H 0.7024 0.2298 0.6358   0.098197
 H 0.1335 0.0415 0.8441   0.093746
 H 0.6102 0.2552 0.713   0.125974
 H 0.4482 0.9094 0.4218   0.109687
 H 0.3456 0.3492 0.7015   0.122097
 H 0.5108 0.0472 0.7809   0.132961
 H 0.4627 0.7699 0.4646   0.093555
 H 0.5527 0.7353 0.4246   0.092858
 H 0.8717 0.9283 0.5569   0.109121
 H 0.508 0.2166 0.347   0.126533
 H 0.3823 0.0351 0.3635   0.101358
 H 0.9427 0.9021 0.9072   0.098083
 H 0.3668 0.6182 0.9744   0.097684
 H 0.3981 0.3847 0.8176   0.126119
 H 0.4254 0.2932 0.8949   0.092638
 H 0.4393 0.3431 0.0533   0.101349
 H 0.9986 0.772 0.8446   0.132939
 H 0.7245 0.3135 0.1045   0.086742
 H 0.0268 0.5328 0.6383   0.098599
 H 0.2648 0.269 0.9643   0.144237
 H 0.8824 0.8226 0.7364   0.128888
 H 0.5951 0.7809 0.8622   0.100365
 H 0.7702 0.2976 0.8642   0.098197
 H 0.9585 0.8665 0.6559   0.093746
 H 0.7448 0.3898 0.787   0.125973
 H 0.0906 0.5518 0.0782   0.109687
 H 0.6508 0.6544 0.7985   0.122097
 H 0.9528 0.4892 0.7191   0.132961
 H 0.2301 0.5373 0.0354   0.093554
 H 0.2647 0.4473 0.0754   0.092858
 H 0.0717 0.1283 0.9431   0.10912
 H 0.7834 0.492 0.153   0.126533
 H 0.9649 0.6177 0.1365   0.101358
 H 0.9021 0.9427 0.4072   0.098083
 H 0.6182 0.3668 0.4744   0.097683
 H 0.3847 0.3981 0.3176   0.12612
 H 0.2932 0.4254 0.3949   0.092638
 H 0.3431 0.4393 0.5533   0.101348
 H 0.772 0.9986 0.3446   0.132939
 H 0.3135 0.7245 0.6045   0.086742
 H 0.5328 0.0268 0.1383   0.098599
 H 0.269 0.2648 0.4643   0.144237
 H 0.8226 0.8824 0.2364   0.128889
 H 0.7809 0.5951 0.3622   0.100366
 H 0.2976 0.7702 0.3642   0.098196
 H 0.8665 0.9585 0.1559   0.093746
 H 0.3898 0.7448 0.287   0.125973
 H 0.5518 0.0906 0.5782   0.109687
 H 0.6544 0.6508 0.2985   0.122098
 H 0.4892 0.9528 0.2191   0.132961
 H 0.5373 0.2301 0.5354   0.093554
 H 0.4473 0.2647 0.5754   0.092858
 H 0.1283 0.0717 0.4431   0.109121
 H 0.492 0.7834 0.653   0.126536
 H 0.6177 0.9649 0.6365   0.101357
 H 0.0573 0.0979 0.0928   0.098083
 H 0.6332 0.3818 0.0256   0.097684
 H 0.6019 0.6153 0.1824   0.12612
 H 0.5746 0.7068 0.1051   0.092638
 H 0.5607 0.6569 0.9467   0.101348
 H 0.0014 0.228 0.1554   0.132939
 H 0.2755 0.6865 0.8955   0.086742
 H 0.9732 0.4672 0.3617   0.098599
 H 0.7352 0.731 0.0357   0.144237
 H 0.1176 0.1774 0.2636   0.128888
 H 0.4049 0.2191 0.1378   0.100366
 H 0.2298 0.7024 0.1358   0.098196
 H 0.0415 0.1335 0.3441   0.093746
 H 0.2552 0.6102 0.213   0.125973
 H 0.9094 0.4482 0.9218   0.109687
 H 0.3492 0.3456 0.2015   0.122098
 H 0.0472 0.5108 0.2809   0.132961
 H 0.7699 0.4627 0.9646   0.093554
 H 0.7353 0.5527 0.9246   0.092858
 H 0.9283 0.8717 0.0569   0.10912
 H 0.2166 0.508 0.847   0.126536
 H 0.0351 0.3823 0.8635   0.101357
 C 0.29538 1.99999999992e-05 0.8616   -0.183945
 C 0.71432 0.39948 0.61268   -0.165651
 C 0.3482 0.0902 0.76495   0.295654
 C 0.14615 0.23645 0.60823   -0.164828
 C 0.1487 0.1165 0.61423   0.011242
 C 0.4298 0.5794 0.51505   -0.108677
 C 0.60709 0.02171 0.4428   0.184798
 C 0.06391 0.27109 0.56625   0.606201
 C 0.63329 0.52711 0.67308   -0.234264
 C 0.68783 0.51057 0.62685   0.011
 C 0.66533 0.95225 0.4791   0.147125
 C 0.60551 0.43229 0.70532   0.286626
 C 0.5932 0.5368 0.46818   -0.093572
 C 0.226 0.0826 0.65183   -0.235814
 C 0.6378 0.201 0.40088   0.172314
 C 0.40874 0.00206 0.84203   0.023399
 C 0.7256 0.8096 0.52265   -0.134873
 C 0.2997 0.1705 0.68362   0.27171
 C 0.2355 0.0885 0.78338   -0.27215
 C 0.2205 0.3235 0.64125   -0.011929
 C 0.6849 0.3047 0.64524   -0.001201
 C 0.2098 0.0432 0.83156   0.013225
 C 0.6301 0.3195 0.69149   -0.236489
 C 0.4962 0.9842 0.41607   -0.169797
 C 0.2967 0.2905 0.67916   -0.233072
 C 0.4351 0.0465 0.79389   -0.252054
 C 0.776 0.3812 0.56322   0.615627
 C 0.5378 0.7416 0.46147   -0.056631
 C 0.5231 0.6171 0.48289   0.018986
 C 0.8036 0.9168 0.53405   0.068304
 C 0.5308 0.1672 0.3721   -0.188957
 C 0.4578 0.0584 0.3812   0.02145
 C 0.26431 0.95069 0.91299   0.599556
 C 0.99998 0.70462 0.6384   -0.183945
 C 0.60052 0.28568 0.88732   -0.165651
 C 0.9098 0.6518 0.73505   0.295654
 C 0.76355 0.85385 0.89177   -0.164828
 C 0.8835 0.8513 0.88577   0.011242
 C 0.4206 0.5702 0.98495   -0.108677
 C 0.97829 0.39291 0.0572   0.184798
 C 0.72891 0.93609 0.93375   0.606201
 C 0.47289 0.36671 0.82692   -0.234264
 C 0.48943 0.31217 0.87315   0.011
 C 0.04775 0.33467 0.0209   0.147125
 C 0.56771 0.39449 0.79468   0.286625
 C 0.4632 0.4068 0.03182   -0.093572
 C 0.9174 0.774 0.84817   -0.235814
 C 0.799 0.3622 0.09912   0.172314
 C 0.99794 0.59126 0.65797   0.023399
 C 0.1904 0.2744 0.97735   -0.134873
 C 0.8295 0.7003 0.81638   0.27171
 C 0.9115 0.7645 0.71662   -0.27215
 C 0.6765 0.7795 0.85875   -0.011929
 C 0.6953 0.3151 0.85476   -0.001201
 C 0.9568 0.7902 0.66844   0.013225
 C 0.6805 0.3699 0.80851   -0.236489
 C 0.0158 0.5038 0.08393   -0.169795
 C 0.7095 0.7033 0.82084   -0.233072
 C 0.9535 0.5649 0.70611   -0.252054
 C 0.6188 0.224 0.93678   0.615627
 C 0.2584 0.4622 0.03853   -0.056631
 C 0.3829 0.4769 0.01711   0.018986
 C 0.0832 0.1964 0.96595   0.068304
 C 0.8328 0.4692 0.1279   -0.188957
 C 0.9416 0.5422 0.1188   0.02145
 C 0.04931 0.73569 0.58701   0.599556
 C 0.70462 0.99998 0.1384   -0.183945
 C 0.28568 0.60052 0.38732   -0.165651
 C 0.6518 0.9098 0.23505   0.295654
 C 0.85385 0.76355 0.39177   -0.164828
 C 0.8513 0.8835 0.38577   0.011242
 C 0.5702 0.4206 0.48495   -0.10867
 C 0.39291 0.97829 0.5572   0.184798
 C 0.93609 0.72891 0.43375   0.606201
 C 0.36671 0.47289 0.32692   -0.234264
 C 0.31217 0.48943 0.37315   0.011
 C 0.33467 0.04775 0.5209   0.147125
 C 0.39449 0.56771 0.29468   0.286626
 C 0.4068 0.4632 0.53182   -0.093564
 C 0.774 0.9174 0.34817   -0.235814
 C 0.3622 0.799 0.59912   0.172314
 C 0.59126 0.99794 0.15797   0.023399
 C 0.2744 0.1904 0.47735   -0.134873
 C 0.7003 0.8295 0.31638   0.27171
 C 0.7645 0.9115 0.21662   -0.27215
 C 0.7795 0.6765 0.35875   -0.01193
 C 0.3151 0.6953 0.35476   -0.0012
 C 0.7902 0.9568 0.16844   0.013225
 C 0.3699 0.6805 0.30851   -0.236489
 C 0.5038 0.0158 0.58393   -0.169797
 C 0.7033 0.7095 0.32084   -0.233072
 C 0.5649 0.9535 0.20611   -0.252054
 C 0.224 0.6188 0.43678   0.615627
 C 0.4622 0.2584 0.53853   -0.05663
 C 0.4769 0.3829 0.51711   0.018984
 C 0.1964 0.0832 0.46595   0.068304
 C 0.4692 0.8328 0.6279   -0.188958
 C 0.5422 0.9416 0.6188   0.021451
 C 0.73569 0.04931 0.08701   0.599556
 C 1.99999999992e-05 0.29538 0.3616   -0.183945
 C 0.39948 0.71432 0.11268   -0.165651
 C 0.0902 0.3482 0.26495   0.295654
 C 0.23645 0.14615 0.10823   -0.164828
 C 0.1165 0.1487 0.11423   0.011242
 C 0.5794 0.4298 0.01505   -0.10867
 C 0.02171 0.60709 0.9428   0.184798
 C 0.27109 0.06391 0.06625   0.6062
 C 0.52711 0.63329 0.17308   -0.234264
 C 0.51057 0.68783 0.12685   0.011
 C 0.95225 0.66533 0.9791   0.147125
 C 0.43229 0.60551 0.20532   0.286626
 C 0.5368 0.5932 0.96818   -0.093564
 C 0.0826 0.226 0.15183   -0.235814
 C 0.201 0.6378 0.90088   0.172314
 C 0.00206 0.40874 0.34203   0.023399
 C 0.8096 0.7256 0.02265   -0.134873
 C 0.1705 0.2997 0.18362   0.27171
 C 0.0885 0.2355 0.28338   -0.27215
 C 0.3235 0.2205 0.14125   -0.01193
 C 0.3047 0.6849 0.14524   -0.0012
 C 0.0432 0.2098 0.33156   0.013225
 C 0.3195 0.6301 0.19149   -0.236489
 C 0.9842 0.4962 0.91607   -0.169796
 C 0.2905 0.2967 0.17916   -0.233072
 C 0.0465 0.4351 0.29389   -0.252054
 C 0.3812 0.776 0.06322   0.615627
 C 0.7416 0.5378 0.96147   -0.05663
 C 0.6171 0.5231 0.98289   0.018984
 C 0.9168 0.8036 0.03405   0.068304
 C 0.1672 0.5308 0.8721   -0.188958
 C 0.0584 0.4578 0.8812   0.02145
 C 0.95069 0.26431 0.41299   0.599556
 N 0.67579 0.13181 0.43637   -0.335618
 N 0.63728 0.83242 0.4881   0.039128
 N 0.76629 0.00495 0.50669   -0.349263
 N 0.86819 0.32421 0.06363   -0.335618
 N 0.16758 0.36272 0.0119   0.039128
 N 0.99505 0.23371 0.99331   -0.349263
 N 0.32421 0.86819 0.56363   -0.335618
 N 0.36272 0.16758 0.5119   0.039128
 N 0.23371 0.99505 0.49331   -0.349263
 N 0.13181 0.67579 0.93637   -0.335618
 N 0.83242 0.63728 0.9881   0.039128
 N 0.00495 0.76629 0.00669   -0.349263
 O 0.83596 0.47282 0.54442   -0.368804
 O 0.07898 0.37904 0.55513   -0.383205
 O 0.38524 0.13876 0.71839   -0.268271
 O 0.76005 0.27375 0.5446   -0.581996
 O 0.98592 0.18518 0.54539   -0.551121
 O 0.34132 0.91192 0.94131   -0.453372
 O 0.15828 0.94378 0.92702   -0.529957
 O 0.52718 0.16404 0.95558   -0.368805
 O 0.62096 0.92102 0.94487   -0.383205
 O 0.86124 0.61476 0.78161   -0.268271
 O 0.72625 0.23995 0.9554   -0.581996
 O 0.81482 0.01408 0.95461   -0.551121
 O 0.08808 0.65868 0.55869   -0.453373
 O 0.05622 0.84172 0.57298   -0.529957
 O 0.16404 0.52718 0.45558   -0.368805
 O 0.92102 0.62096 0.44487   -0.383205
 O 0.61476 0.86124 0.28161   -0.268271
 O 0.23995 0.72625 0.4554   -0.581996
 O 0.01408 0.81482 0.45461   -0.551121
 O 0.65868 0.08808 0.05869   -0.453373
 O 0.84172 0.05622 0.07298   -0.529957
 O 0.47282 0.83596 0.04442   -0.368805
 O 0.37904 0.07898 0.05513   -0.383205
 O 0.13876 0.38524 0.21839   -0.268271
 O 0.27375 0.76005 0.0446   -0.581996
 O 0.18518 0.98592 0.04539   -0.551121
 O 0.91192 0.34132 0.44131   -0.453373
 O 0.94378 0.15828 0.42702   -0.529957
 O 0.54649 0.45351 0.75   -0.257772
 O 0.45351 0.54649 0.25   -0.257772
