{'_ref': 'TBD', '_srcid': 'CAKYAQ_clean', 'submitters': [{'name': 'Dalar Nazarian Jeff Camp and David Sholl', 'email': 'dalar@gatech.edu jcamp6@gatech.edu'}], '_method': 'VASP DFT with PBE;DDEC'}
data_MnH8(C7O2)2
_symmetry_space_group_name_H-M   'P 1'
_cell_length_a   12.16870000
_cell_length_b   13.94299984
_cell_length_c   18.25010000
_cell_angle_alpha   90.00000000
_cell_angle_beta   90.00000000
_cell_angle_gamma   113.16899856
_symmetry_Int_Tables_number   1
_chemical_formula_structural   MnH8(C7O2)2
_chemical_formula_sum   'Mn6 H48 C84 O24'
_cell_volume   2846.72660171
_cell_formula_units_Z   6
loop_
 _symmetry_equiv_pos_site_id
 _symmetry_equiv_pos_as_xyz
  1  'x, y, z'
loop_
 _atom_site_label
 _atom_site_fract_x
 _atom_site_fract_y
 _atom_site_fract_z
 _atom_site_charge
 Mn 0.32687 0.58237 0.51938   1.147022
 Mn 0.17313 0.41763 0.01938   1.147021
 Mn 0.67313 0.41763 0.48062   1.147018
 Mn 0.82687 0.58237 0.98062   1.147018
 Mn 0.0 0.5 0.5   1.227152
 Mn 0.5 0.5 0.0   1.227152
 H 0.3461 0.792 0.7016   0.101562
 H 0.3661 0.937 0.772   0.093409
 H 0.0548 0.9315 0.69   0.100732
 H 0.0312 0.7831 0.6225   0.079684
 H 0.0602 0.0144 0.8063   0.102218
 H 0.0939 0.1676 0.8707   0.101988
 H 0.4454 0.2753 0.821   0.110433
 H 0.4134 0.1212 0.7582   0.104662
 H 0.2495 0.2474 0.4166   0.103493
 H 0.1573 0.0666 0.4229   0.104155
 H 0.9127 0.0897 0.5639   0.097223
 H 0.9998 0.2704 0.5536   0.09203
 H 0.1539 0.208 0.2016   0.101561
 H 0.1339 0.063 0.272   0.093409
 H 0.4452 0.0685 0.19   0.100732
 H 0.4688 0.2169 0.1225   0.079684
 H 0.4398 0.9856 0.3063   0.102218
 H 0.4061 0.8324 0.3707   0.101988
 H 0.0546 0.7247 0.321   0.110433
 H 0.0866 0.8788 0.2582   0.104662
 H 0.2505 0.7526 0.9166   0.103493
 H 0.3427 0.9334 0.9229   0.104155
 H 0.5873 0.9103 0.0639   0.097223
 H 0.5002 0.7296 0.0536   0.09203
 H 0.6539 0.208 0.2984   0.101562
 H 0.6339 0.063 0.228   0.09341
 H 0.9452 0.0685 0.31   0.100733
 H 0.9688 0.2169 0.3775   0.079684
 H 0.9398 0.9856 0.1937   0.102219
 H 0.9061 0.8324 0.1293   0.101989
 H 0.5546 0.7247 0.179   0.110433
 H 0.5866 0.8788 0.2418   0.104663
 H 0.7505 0.7526 0.5834   0.103493
 H 0.8427 0.9334 0.5771   0.104155
 H 0.0873 0.9103 0.4361   0.097224
 H 0.0002 0.7296 0.4464   0.09203
 H 0.8461 0.792 0.7984   0.101561
 H 0.8661 0.937 0.728   0.093411
 H 0.5548 0.9315 0.81   0.100734
 H 0.5312 0.7831 0.8775   0.079684
 H 0.5602 0.0144 0.6937   0.102219
 H 0.5939 0.1676 0.6293   0.101989
 H 0.9454 0.2753 0.679   0.110433
 H 0.9134 0.1212 0.7418   0.104663
 H 0.7495 0.2474 0.0834   0.103492
 H 0.6573 0.0666 0.0771   0.104155
 H 0.4127 0.0897 0.9361   0.097224
 H 0.4998 0.2704 0.9464   0.09203
 C 0.18765 0.77397 0.65357   -0.154436
 C 0.28675 0.82023 0.69904   -0.032688
 C 0.299 0.9072 0.74058   -0.150468
 C 0.2145 0.95165 0.73702   0.054902
 C 0.11438 0.90351 0.69246   -0.144015
 C 0.10063 0.81542 0.65182   -0.016451
 C 0.23381 0.05018 0.77679   0.052922
 C 0.13901 0.06641 0.80991   -0.152197
 C 0.1592 0.15802 0.84813   -0.029317
 C 0.27306 0.2357 0.85392   -0.158342
 C 0.36733 0.22172 0.81901   -0.024852
 C 0.34799 0.12996 0.7813   -0.148302
 C 0.17742 0.68225 0.6055   0.737873
 C 0.29465 0.3308 0.90136   0.724118
 C 0.13449 0.27699 0.48539   -0.14642
 C 0.18068 0.21549 0.44646   -0.036659
 C 0.12644 0.10765 0.45114   -0.13008
 C 0.02779 0.05798 0.4962   0.051714
 C 0.98128 0.12123 0.53384   -0.132746
 C 0.03352 0.22909 0.52807   -0.006925
 C 0.19669 0.39292 0.48526   0.69066
 C 0.31235 0.22603 0.15357   -0.154436
 C 0.21325 0.17977 0.19904   -0.032688
 C 0.201 0.0928 0.24058   -0.150469
 C 0.2855 0.04835 0.23702   0.054902
 C 0.38562 0.09649 0.19246   -0.144015
 C 0.39937 0.18458 0.15182   -0.016451
 C 0.26619 0.94982 0.27679   0.052922
 C 0.36099 0.93359 0.30991   -0.152197
 C 0.3408 0.84198 0.34813   -0.029317
 C 0.22694 0.7643 0.35392   -0.158342
 C 0.13267 0.77828 0.31901   -0.024852
 C 0.15201 0.87004 0.2813   -0.148302
 C 0.32258 0.31775 0.1055   0.737873
 C 0.20535 0.6692 0.40136   0.724119
 C 0.36551 0.72301 0.98539   -0.14642
 C 0.31932 0.78451 0.94646   -0.036659
 C 0.37356 0.89235 0.95114   -0.13008
 C 0.47221 0.94202 0.9962   0.051714
 C 0.51872 0.87877 0.03384   -0.132746
 C 0.46648 0.77091 0.02807   -0.006925
 C 0.30331 0.60708 0.98526   0.69066
 C 0.81235 0.22603 0.34643   -0.154436
 C 0.71325 0.17977 0.30096   -0.032688
 C 0.701 0.0928 0.25942   -0.150469
 C 0.7855 0.04835 0.26298   0.054902
 C 0.88562 0.09649 0.30754   -0.144015
 C 0.89937 0.18458 0.34818   -0.01645
 C 0.76619 0.94982 0.22321   0.052922
 C 0.86099 0.93359 0.19009   -0.152197
 C 0.8408 0.84198 0.15187   -0.029317
 C 0.72694 0.7643 0.14608   -0.158342
 C 0.63267 0.77828 0.18099   -0.024852
 C 0.65201 0.87004 0.2187   -0.148302
 C 0.82258 0.31775 0.3945   0.737873
 C 0.70535 0.6692 0.09864   0.724118
 C 0.86551 0.72301 0.51461   -0.146421
 C 0.81932 0.78451 0.55354   -0.036659
 C 0.87356 0.89235 0.54886   -0.13008
 C 0.97221 0.94202 0.5038   0.051717
 C 0.01872 0.87877 0.46616   -0.132746
 C 0.96648 0.77091 0.47193   -0.006925
 C 0.80331 0.60708 0.51474   0.69066
 C 0.68765 0.77397 0.84643   -0.154436
 C 0.78675 0.82023 0.80096   -0.032688
 C 0.799 0.9072 0.75942   -0.150469
 C 0.7145 0.95165 0.76298   0.054902
 C 0.61438 0.90351 0.80754   -0.144015
 C 0.60063 0.81542 0.84818   -0.01645
 C 0.73381 0.05018 0.72321   0.052922
 C 0.63901 0.06641 0.69009   -0.152197
 C 0.6592 0.15802 0.65187   -0.029317
 C 0.77306 0.2357 0.64608   -0.158342
 C 0.86733 0.22172 0.68099   -0.024852
 C 0.84799 0.12996 0.7187   -0.148302
 C 0.67742 0.68225 0.8945   0.737873
 C 0.79465 0.3308 0.59864   0.724119
 C 0.63449 0.27699 0.01461   -0.146421
 C 0.68068 0.21549 0.05354   -0.036659
 C 0.62644 0.10765 0.04886   -0.13008
 C 0.52779 0.05798 0.0038   0.051717
 C 0.48128 0.12123 0.96616   -0.132746
 C 0.53352 0.22909 0.97193   -0.006925
 C 0.69669 0.39292 0.01474   0.69066
 O 0.27341 0.67026 0.59499   -0.666096
 O 0.07685 0.62702 0.58007   -0.607738
 O 0.20268 0.33994 0.92583   -0.652388
 O 0.40099 0.39108 0.913   -0.616099
 O 0.29999 0.43472 0.45986   -0.598372
 O 0.14493 0.44682 0.51554   -0.659787
 O 0.22659 0.32974 0.09499   -0.666096
 O 0.42315 0.37298 0.08007   -0.607739
 O 0.29732 0.66006 0.42583   -0.652388
 O 0.09901 0.60892 0.413   -0.616099
 O 0.20001 0.56528 0.95986   -0.598372
 O 0.35507 0.55318 0.01554   -0.659787
 O 0.72659 0.32974 0.40501   -0.666095
 O 0.92315 0.37298 0.41993   -0.607738
 O 0.79732 0.66006 0.07417   -0.652387
 O 0.59901 0.60892 0.087   -0.616099
 O 0.70001 0.56528 0.54014   -0.598372
 O 0.85507 0.55318 0.48446   -0.659787
 O 0.77341 0.67026 0.90501   -0.666095
 O 0.57685 0.62702 0.91993   -0.607739
 O 0.70268 0.33994 0.57417   -0.652387
 O 0.90099 0.39108 0.587   -0.616099
 O 0.79999 0.43472 0.04014   -0.598372
 O 0.64493 0.44682 0.98446   -0.659787
