{'_ref': 'TBD', '_srcid': 'CAKYAQ_clean', 'submitters': [{'name': 'Dalar Nazarian Jeff Camp and David Sholl', 'email': 'dalar@gatech.edu jcamp6@gatech.edu'}], '_method': 'VASP DFT with PBE;DDEC'}
data_MnH8(C7O2)2
_symmetry_space_group_name_H-M   'P 1'
_cell_length_a   12.35100000
_cell_length_b   13.95799998
_cell_length_c   18.50700000
_cell_angle_alpha   90.00000000
_cell_angle_beta   90.00000000
_cell_angle_gamma   113.78999915
_symmetry_Int_Tables_number   1
_chemical_formula_structural   MnH8(C7O2)2
_chemical_formula_sum   'Mn6 H48 C84 O24'
_cell_volume   2919.420925
_cell_formula_units_Z   6
loop_
 _symmetry_equiv_pos_site_id
 _symmetry_equiv_pos_as_xyz
  1  'x, y, z'
loop_
 _atom_site_label
 _atom_site_fract_x
 _atom_site_fract_y
 _atom_site_fract_z
 _atom_site_charge
 Mn 0.67721 0.91508 0.48099   1.143598
 Mn 0.82279 0.08492 0.98099   1.143599
 Mn 0.32279 0.08492 0.51901   1.143604
 Mn 0.17721 0.91508 0.01901   1.143604
 Mn 0.0 0.0 0.5   1.228721
 Mn 0.5 0.0 0.0   1.228721
 H 0.5982 0.6621 0.6277   0.101397
 H 0.5651 0.5123 0.6933   0.09997
 H 0.9094 0.6199 0.7393   0.101822
 H 0.9431 0.7724 0.6767   0.109154
 H 0.8629 0.4352 0.7297   0.095774
 H 0.8431 0.2935 0.8012   0.098954
 H 0.5353 0.2846 0.8767   0.076859
 H 0.5578 0.4286 0.8081   0.100561
 H 0.9985 0.2309 0.4481   0.089879
 H 0.0852 0.4107 0.4383   0.09763
 H 0.8469 0.4313 0.5763   0.102615
 H 0.7556 0.2512 0.5828   0.102581
 H 0.9018 0.3379 0.1277   0.101397
 H 0.9349 0.4877 0.1933   0.09997
 H 0.5906 0.3801 0.2393   0.101822
 H 0.5569 0.2276 0.1767   0.109154
 H 0.6371 0.5648 0.2297   0.095774
 H 0.6569 0.7065 0.3012   0.098954
 H 0.9647 0.7154 0.3767   0.076859
 H 0.9422 0.5714 0.3081   0.100561
 H 0.5015 0.7691 0.9481   0.089879
 H 0.4148 0.5893 0.9383   0.09763
 H 0.6531 0.5687 0.0763   0.102615
 H 0.7444 0.7488 0.0828   0.102581
 H 0.4018 0.3379 0.3723   0.101396
 H 0.4349 0.4877 0.3067   0.099969
 H 0.0906 0.3801 0.2607   0.101819
 H 0.0569 0.2276 0.3233   0.109154
 H 0.1371 0.5648 0.2703   0.095773
 H 0.1569 0.7065 0.1988   0.098953
 H 0.4647 0.7154 0.1233   0.076859
 H 0.4422 0.5714 0.1919   0.10056
 H 0.0015 0.7691 0.5519   0.089879
 H 0.9148 0.5893 0.5617   0.097629
 H 0.1531 0.5687 0.4237   0.102614
 H 0.2444 0.7488 0.4172   0.102581
 H 0.0982 0.6621 0.8723   0.101396
 H 0.0651 0.5123 0.8067   0.099969
 H 0.4094 0.6199 0.7607   0.101819
 H 0.4431 0.7724 0.8233   0.109154
 H 0.3629 0.4352 0.7703   0.095773
 H 0.3431 0.2935 0.6988   0.098953
 H 0.0353 0.2846 0.6233   0.076859
 H 0.0578 0.4286 0.6919   0.10056
 H 0.4985 0.2309 0.0519   0.089879
 H 0.5852 0.4107 0.0617   0.097629
 H 0.3469 0.4313 0.9237   0.102614
 H 0.2556 0.2512 0.9172   0.102581
 C 0.7741 0.7326 0.6439   -0.16078
 C 0.6615 0.6541 0.65   -0.029946
 C 0.6417 0.5634 0.6891   -0.147447
 C 0.7346 0.548 0.722   0.05046
 C 0.8462 0.6278 0.7167   -0.144662
 C 0.8671 0.7198 0.6787   -0.023729
 C 0.7144 0.4501 0.7628   0.053781
 C 0.7979 0.4063 0.7602   -0.151351
 C 0.7853 0.3203 0.8025   -0.029529
 C 0.6864 0.2737 0.8471   -0.156981
 C 0.6022 0.3153 0.8479   -0.013301
 C 0.6158 0.402 0.8065   -0.142483
 C 0.7957 0.8273 0.5964   0.727571
 C 0.6752 0.1824 0.8955   0.740622
 C 0.8673 0.2226 0.5153   -0.148026
 C 0.9663 0.2711 0.473   -0.003943
 C 0.0185 0.3792 0.4671   -0.131517
 C 0.9722 0.4415 0.504   0.048979
 C 0.8761 0.3913 0.5488   -0.127654
 C 0.822 0.283 0.5537   -0.032465
 C 0.806 0.1061 0.516   0.690693
 C 0.7259 0.2674 0.1439   -0.16078
 C 0.8385 0.3459 0.15   -0.029947
 C 0.8583 0.4366 0.1891   -0.147447
 C 0.7654 0.452 0.222   0.05046
 C 0.6538 0.3722 0.2167   -0.144662
 C 0.6329 0.2802 0.1787   -0.023729
 C 0.7856 0.5499 0.2628   0.053781
 C 0.7021 0.5937 0.2602   -0.151351
 C 0.7147 0.6797 0.3025   -0.029529
 C 0.8136 0.7263 0.3471   -0.156981
 C 0.8978 0.6847 0.3479   -0.013301
 C 0.8842 0.598 0.3065   -0.142483
 C 0.7043 0.1727 0.0964   0.72757
 C 0.8248 0.8176 0.3955   0.740621
 C 0.6327 0.7774 0.0153   -0.148026
 C 0.5337 0.7289 0.973   -0.003943
 C 0.4815 0.6208 0.9671   -0.131517
 C 0.5278 0.5585 0.004   0.048979
 C 0.6239 0.6087 0.0488   -0.127654
 C 0.678 0.717 0.0537   -0.032465
 C 0.694 0.8939 0.016   0.690693
 C 0.2259 0.2674 0.3561   -0.160781
 C 0.3385 0.3459 0.35   -0.029945
 C 0.3583 0.4366 0.3109   -0.147447
 C 0.2654 0.452 0.278   0.05046
 C 0.1538 0.3722 0.2833   -0.144661
 C 0.1329 0.2802 0.3213   -0.023729
 C 0.2856 0.5499 0.2372   0.053781
 C 0.2021 0.5937 0.2398   -0.151351
 C 0.2147 0.6797 0.1975   -0.029529
 C 0.3136 0.7263 0.1529   -0.156981
 C 0.3978 0.6847 0.1521   -0.013301
 C 0.3842 0.598 0.1935   -0.142483
 C 0.2043 0.1727 0.4036   0.727571
 C 0.3248 0.8176 0.1045   0.740622
 C 0.1327 0.7774 0.4847   -0.148026
 C 0.0337 0.7289 0.527   -0.003943
 C 0.9815 0.6208 0.5329   -0.131517
 C 0.0278 0.5585 0.496   0.048977
 C 0.1239 0.6087 0.4512   -0.127653
 C 0.178 0.717 0.4463   -0.032465
 C 0.194 0.8939 0.484   0.690694
 C 0.2741 0.7326 0.8561   -0.160781
 C 0.1615 0.6541 0.85   -0.029946
 C 0.1417 0.5634 0.8109   -0.147447
 C 0.2346 0.548 0.778   0.05046
 C 0.3462 0.6278 0.7833   -0.144661
 C 0.3671 0.7198 0.8213   -0.023729
 C 0.2144 0.4501 0.7372   0.053781
 C 0.2979 0.4063 0.7398   -0.151351
 C 0.2853 0.3203 0.6975   -0.029529
 C 0.1864 0.2737 0.6529   -0.156981
 C 0.1022 0.3153 0.6521   -0.013301
 C 0.1158 0.402 0.6935   -0.142483
 C 0.2957 0.8273 0.9036   0.72757
 C 0.1752 0.1824 0.6045   0.740621
 C 0.3673 0.2226 0.9847   -0.148026
 C 0.4663 0.2711 0.027   -0.003943
 C 0.5185 0.3792 0.0329   -0.131517
 C 0.4722 0.4415 0.996   0.048977
 C 0.3761 0.3913 0.9512   -0.127654
 C 0.322 0.283 0.9463   -0.032465
 C 0.306 0.1061 0.984   0.690694
 O 0.901 0.8887 0.5851   -0.621238
 O 0.7055 0.8359 0.5725   -0.648818
 O 0.7707 0.1719 0.9062   -0.670088
 O 0.5765 0.1269 0.9204   -0.602541
 O 0.8563 0.0521 0.4859   -0.662041
 O 0.7031 0.0624 0.5409   -0.598717
 O 0.599 0.1113 0.0851   -0.621238
 O 0.7945 0.1641 0.0725   -0.648818
 O 0.7293 0.8281 0.4062   -0.670088
 O 0.9235 0.8731 0.4204   -0.602541
 O 0.6437 0.9479 0.9859   -0.662041
 O 0.7969 0.9376 0.0409   -0.598717
 O 0.099 0.1113 0.4149   -0.621238
 O 0.2945 0.1641 0.4275   -0.648818
 O 0.2293 0.8281 0.0938   -0.670089
 O 0.4235 0.8731 0.0796   -0.602541
 O 0.1437 0.9479 0.5141   -0.662042
 O 0.2969 0.9376 0.4591   -0.598717
 O 0.401 0.8887 0.9149   -0.621238
 O 0.2055 0.8359 0.9275   -0.648818
 O 0.2707 0.1719 0.5938   -0.670089
 O 0.0765 0.1269 0.5796   -0.602541
 O 0.3563 0.0521 0.0141   -0.662042
 O 0.2031 0.0624 0.9591   -0.598717
