{'_ref': 'TBD', '_srcid': 'CAKYAQ_clean', 'submitters': [{'name': 'Dalar Nazarian Jeff Camp and David Sholl', 'email': 'dalar@gatech.edu jcamp6@gatech.edu'}], '_method': 'VASP DFT with PBE;DDEC'}
data_Zn4H12C24O13
_symmetry_space_group_name_H-M   'P 1'
_cell_length_a   18.25189957
_cell_length_b   18.25189997
_cell_length_c   18.25200000
_cell_angle_alpha   60.00370080
_cell_angle_beta   60.00370007
_cell_angle_gamma   60.00049902
_symmetry_Int_Tables_number   1
_chemical_formula_structural   Zn4H12C24O13
_chemical_formula_sum   'Zn8 H24 C48 O26'
_cell_volume   4299.69390691
_cell_formula_units_Z   2
loop_
 _symmetry_equiv_pos_site_id
 _symmetry_equiv_pos_as_xyz
  1  'x, y, z'
loop_
 _atom_site_label
 _atom_site_fract_x
 _atom_site_fract_y
 _atom_site_fract_z
 _atom_site_charge
 Zn 0.88088 0.70652 0.20631   1.088662
 Zn 0.29348 0.11912 0.79369   1.088662
 Zn 0.11912 0.29348 0.79369   1.088662
 Zn 0.70652 0.88088 0.20631   1.088662
 Zn 0.70633 0.70633 0.3808   1.095835
 Zn 0.70645 0.70645 0.2061   1.100599
 Zn 0.29367 0.29367 0.6192   1.095835
 Zn 0.29355 0.29355 0.7939   1.100599
 H 0.5438 0.0638 0.3477   0.106485
 H 0.5407 0.8477 0.5616   0.108747
 H 0.5474 0.0618 0.0452   0.113055
 H 0.5469 0.8465 0.0399   0.112612
 H 0.0629 0.8471 0.047   0.107969
 H 0.9362 0.4562 0.6523   0.106485
 H 0.1523 0.4593 0.4384   0.108747
 H 0.9382 0.4526 0.9548   0.113055
 H 0.1535 0.4531 0.9601   0.112612
 H 0.1529 0.9371 0.953   0.107968
 H 0.4562 0.9362 0.6523   0.106484
 H 0.4593 0.1523 0.4384   0.108746
 H 0.4526 0.9382 0.9548   0.113054
 H 0.4531 0.1535 0.9601   0.112611
 H 0.9371 0.1529 0.953   0.107968
 H 0.0638 0.5438 0.3477   0.106484
 H 0.8477 0.5407 0.5616   0.108746
 H 0.0618 0.5474 0.0452   0.113054
 H 0.8465 0.5469 0.0399   0.112611
 H 0.8471 0.0629 0.047   0.107967
 H 0.5451 0.5451 0.347   0.107364
 H 0.5424 0.5424 0.5655   0.101116
 H 0.4549 0.4549 0.653   0.107362
 H 0.4576 0.4576 0.4345   0.101113
 C 0.6118 0.8906 0.3864   0.680741
 C 0.553 0.9476 0.4468   -0.109529
 C 0.5269 0.0373 0.41   -0.062743
 C 0.5251 0.9099 0.536   -0.054312
 C 0.6122 0.8894 0.1098   0.699567
 C 0.5563 0.9451 0.0529   -0.119954
 C 0.5285 0.0361 0.0277   -0.057399
 C 0.5281 0.9085 0.0243   -0.056281
 C 0.0366 0.9092 0.0275   -0.061205
 C 0.1094 0.3882 0.6136   0.680741
 C 0.0524 0.447 0.5532   -0.109529
 C 0.9627 0.4731 0.59   -0.062743
 C 0.0901 0.4749 0.464   -0.054313
 C 0.1106 0.3878 0.8902   0.699567
 C 0.0549 0.4437 0.9471   -0.119954
 C 0.9639 0.4715 0.9723   -0.057399
 C 0.0915 0.4719 0.9757   -0.056281
 C 0.0908 0.9634 0.9725   -0.061213
 C 0.3882 0.1094 0.6136   0.680741
 C 0.447 0.0524 0.5532   -0.109526
 C 0.4731 0.9627 0.59   -0.06275
 C 0.4749 0.0901 0.464   -0.05432
 C 0.3878 0.1106 0.8902   0.699567
 C 0.4437 0.0549 0.9471   -0.119951
 C 0.4715 0.9639 0.9723   -0.057409
 C 0.4719 0.0915 0.9757   -0.056291
 C 0.9634 0.0908 0.9725   -0.061205
 C 0.8906 0.6118 0.3864   0.680741
 C 0.9476 0.553 0.4468   -0.109527
 C 0.0373 0.5269 0.41   -0.06275
 C 0.9099 0.5251 0.536   -0.05432
 C 0.8894 0.6122 0.1098   0.699567
 C 0.9451 0.5563 0.0529   -0.119951
 C 0.0361 0.5285 0.0277   -0.057409
 C 0.9085 0.5281 0.0243   -0.056291
 C 0.9092 0.0366 0.0275   -0.061214
 C 0.6101 0.6101 0.393   0.724158
 C 0.554 0.554 0.446   -0.122551
 C 0.5274 0.5274 0.409   -0.042488
 C 0.525 0.525 0.538   -0.063353
 C 0.8865 0.8865 0.115   0.68315
 C 0.9467 0.9467 0.053   -0.11641
 C 0.3899 0.3899 0.607   0.724158
 C 0.446 0.446 0.554   -0.122554
 C 0.4726 0.4726 0.591   -0.042482
 C 0.475 0.475 0.462   -0.063347
 C 0.1135 0.1135 0.885   0.68315
 C 0.0533 0.0533 0.947   -0.11641
 O 0.6319 0.8049 0.4299   -0.610785
 O 0.6343 0.9311 0.3037   -0.577635
 O 0.6316 0.8038 0.1351   -0.612528
 O 0.6338 0.9296 0.1323   -0.598595
 O 0.9289 0.8035 0.1346   -0.584874
 O 0.1951 0.3681 0.5701   -0.610786
 O 0.0689 0.3657 0.6963   -0.577635
 O 0.1962 0.3684 0.8649   -0.612528
 O 0.0704 0.3662 0.8677   -0.598595
 O 0.1965 0.0711 0.8654   -0.584874
 O 0.3681 0.1951 0.5701   -0.610785
 O 0.3657 0.0689 0.6963   -0.577635
 O 0.3684 0.1962 0.8649   -0.612528
 O 0.3662 0.0704 0.8677   -0.598595
 O 0.0711 0.1965 0.8654   -0.584874
 O 0.8049 0.6319 0.4299   -0.610785
 O 0.9311 0.6343 0.3037   -0.577635
 O 0.8038 0.6316 0.1351   -0.612528
 O 0.9296 0.6338 0.1323   -0.598595
 O 0.8035 0.9289 0.1346   -0.584874
 O 0.7499 0.7499 0.2502   -1.253755
 O 0.6333 0.6333 0.4289   -0.604146
 O 0.6317 0.6317 0.3084   -0.633468
 O 0.2501 0.2501 0.7498   -1.253755
 O 0.3667 0.3667 0.5711   -0.604146
 O 0.3683 0.3683 0.6916   -0.633468
