{'_ref': 'TBD', '_srcid': 'CAKYAQ_clean', 'submitters': [{'name': 'Dalar Nazarian Jeff Camp and David Sholl', 'email': 'dalar@gatech.edu jcamp6@gatech.edu'}], '_method': 'VASP DFT with PBE;DDEC'}
data_LiZnH3(C3O2)3
_symmetry_space_group_name_H-M   'P 1'
_cell_length_a   11.28110000
_cell_length_b   16.33770000
_cell_length_c   16.33770000
_cell_angle_alpha   90.00000000
_cell_angle_beta   90.00000000
_cell_angle_gamma   90.00000000
_symmetry_Int_Tables_number   1
_chemical_formula_structural   LiZnH3(C3O2)3
_chemical_formula_sum   'Li8 Zn8 H24 C72 O48'
_cell_volume   3011.15619024
_cell_formula_units_Z   8
loop_
 _symmetry_equiv_pos_site_id
 _symmetry_equiv_pos_as_xyz
  1  'x, y, z'
loop_
 _atom_site_label
 _atom_site_fract_x
 _atom_site_fract_y
 _atom_site_fract_z
 _atom_site_charge
 Li 0.3774 0.0965 0.3255   0.910264
 Li 0.8774 0.9035 0.6745   0.910264
 Li 0.1274 0.1745 0.5965   0.910264
 Li 0.6274 0.8255 0.4035   0.910264
 Li 0.3726 0.4035 0.8255   0.910265
 Li 0.8726 0.5965 0.1745   0.910265
 Li 0.6226 0.3255 0.0965   0.910265
 Li 0.1226 0.6745 0.9035   0.910265
 Zn 0.16067 0.1735 0.41678   1.055259
 Zn 0.66067 0.8265 0.58322   1.055259
 Zn 0.91067 0.08322 0.6735   1.055259
 Zn 0.41067 0.91678 0.3265   1.055259
 Zn 0.58933 0.3265 0.91678   1.055259
 Zn 0.08933 0.6735 0.08322   1.055259
 Zn 0.83933 0.41678 0.1735   1.055259
 Zn 0.33933 0.58322 0.8265   1.055259
 H 0.9062 0.2464 0.3699   0.10722
 H 0.4062 0.7536 0.6301   0.10722
 H 0.6562 0.1301 0.7464   0.10722
 H 0.1562 0.8699 0.2536   0.10722
 H 0.8438 0.2536 0.8699   0.10722
 H 0.3438 0.7464 0.1301   0.10722
 H 0.0938 0.3699 0.2464   0.10722
 H 0.5938 0.6301 0.7536   0.10722
 H 0.636 0.1391 0.2503   0.104769
 H 0.136 0.8609 0.7497   0.104769
 H 0.386 0.2497 0.6391   0.104769
 H 0.886 0.7503 0.3609   0.104769
 H 0.114 0.3609 0.7503   0.104769
 H 0.614 0.6391 0.2497   0.104769
 H 0.364 0.2503 0.1391   0.104769
 H 0.864 0.7497 0.8609   0.104769
 H 0.7706 0.0348 0.4528   0.100087
 H 0.2706 0.9652 0.5472   0.100087
 H 0.5206 0.0472 0.5348   0.100087
 H 0.0206 0.9528 0.4652   0.100087
 H 0.9794 0.4652 0.9528   0.100087
 H 0.4794 0.5348 0.0472   0.100087
 H 0.2294 0.4528 0.0348   0.100087
 H 0.7294 0.5472 0.9652   0.100087
 C 0.92425 0.14469 0.49845   0.768501
 C 0.42425 0.85531 0.50155   0.768501
 C 0.67425 0.00155 0.64469   0.768501
 C 0.17425 0.99845 0.35531   0.768501
 C 0.82575 0.35531 0.99845   0.768502
 C 0.32575 0.64469 0.00155   0.768502
 C 0.07575 0.49845 0.14469   0.768502
 C 0.57575 0.50155 0.85531   0.768502
 C 0.7676 0.27194 0.23913   0.740774
 C 0.2676 0.72806 0.76087   0.740774
 C 0.5176 0.26087 0.77194   0.740774
 C 0.0176 0.73913 0.22806   0.740774
 C 0.9824 0.22806 0.73913   0.740774
 C 0.4824 0.77194 0.26087   0.740774
 C 0.2324 0.23913 0.27194   0.740774
 C 0.7324 0.76087 0.72806   0.740774
 C 0.60864 0.00416 0.34356   0.773571
 C 0.10864 0.99584 0.65644   0.773571
 C 0.35864 0.15644 0.50416   0.77357
 C 0.85864 0.84356 0.49584   0.77357
 C 0.14136 0.49584 0.84356   0.773571
 C 0.64136 0.50416 0.15644   0.773571
 C 0.39136 0.34356 0.00416   0.773571
 C 0.89136 0.65644 0.99584   0.773571
 C 0.84956 0.14157 0.42282   -0.193782
 C 0.34956 0.85843 0.57718   -0.193782
 C 0.59956 0.07718 0.64157   -0.193782
 C 0.09956 0.92282 0.35843   -0.193782
 C 0.90044 0.35843 0.92282   -0.193782
 C 0.40044 0.64157 0.07718   -0.193782
 C 0.15044 0.42282 0.14157   -0.193782
 C 0.65044 0.57718 0.85843   -0.193782
 C 0.85154 0.20407 0.36516   0.027594
 C 0.35154 0.79593 0.63484   0.027594
 C 0.60154 0.13484 0.70407   0.027594
 C 0.10154 0.86516 0.29593   0.027594
 C 0.89846 0.29593 0.86516   0.027594
 C 0.39846 0.70407 0.13484   0.027594
 C 0.14846 0.36516 0.20407   0.027594
 C 0.64846 0.63484 0.79593   0.027594
 C 0.7714 0.20309 0.30011   -0.164458
 C 0.2714 0.79691 0.69989   -0.164458
 C 0.5214 0.19989 0.70309   -0.164458
 C 0.0214 0.80011 0.29691   -0.164458
 C 0.9786 0.29691 0.80011   -0.164458
 C 0.4786 0.70309 0.19989   -0.164458
 C 0.2286 0.30011 0.20309   -0.164458
 C 0.7286 0.69989 0.79691   -0.164458
 C 0.69099 0.13902 0.29277   0.028933
 C 0.19099 0.86098 0.70723   0.028933
 C 0.44099 0.20723 0.63902   0.028933
 C 0.94099 0.79277 0.36098   0.028933
 C 0.05901 0.36098 0.79277   0.028933
 C 0.55901 0.63902 0.20723   0.028933
 C 0.30901 0.29277 0.13902   0.028933
 C 0.80901 0.70723 0.86098   0.028933
 C 0.69245 0.07479 0.34869   -0.185952
 C 0.19245 0.92521 0.65131   -0.185952
 C 0.44245 0.15131 0.57479   -0.185952
 C 0.94245 0.84869 0.42521   -0.185952
 C 0.05755 0.42521 0.84869   -0.185952
 C 0.55755 0.57479 0.15131   -0.185952
 C 0.30755 0.34869 0.07479   -0.185952
 C 0.80755 0.65131 0.92521   -0.185952
 C 0.77093 0.07687 0.41442   0.037255
 C 0.27093 0.92313 0.58558   0.037255
 C 0.52093 0.08558 0.57687   0.037254
 C 0.02093 0.91442 0.42313   0.037254
 C 0.97907 0.42313 0.91442   0.037255
 C 0.47907 0.57687 0.08558   0.037255
 C 0.22907 0.41442 0.07687   0.037254
 C 0.72907 0.58558 0.92313   0.037254
 O 0.02303 0.18135 0.49768   -0.709421
 O 0.52303 0.81865 0.50232   -0.709421
 O 0.77303 0.00232 0.68135   -0.709421
 O 0.27303 0.99768 0.31865   -0.709421
 O 0.72697 0.31865 0.99768   -0.709421
 O 0.22697 0.68135 0.00232   -0.709421
 O 0.97697 0.49768 0.18135   -0.709421
 O 0.47697 0.50232 0.81865   -0.709421
 O 0.88027 0.11003 0.55954   -0.618153
 O 0.38027 0.88997 0.44046   -0.618153
 O 0.63027 0.94046 0.61003   -0.618153
 O 0.13027 0.05954 0.38997   -0.618153
 O 0.86973 0.38997 0.05954   -0.618154
 O 0.36973 0.61003 0.94046   -0.618154
 O 0.11973 0.55954 0.11003   -0.618154
 O 0.61973 0.44046 0.88997   -0.618154
 O 0.84389 0.32897 0.24975   -0.619612
 O 0.34389 0.67103 0.75025   -0.619612
 O 0.59389 0.25025 0.82897   -0.619612
 O 0.09389 0.74975 0.17103   -0.619612
 O 0.90611 0.17103 0.74975   -0.619612
 O 0.40611 0.82897 0.25025   -0.619612
 O 0.15611 0.24975 0.32897   -0.619612
 O 0.65611 0.75025 0.67103   -0.619612
 O 0.69231 0.27079 0.18443   -0.726229
 O 0.19231 0.72921 0.81557   -0.726229
 O 0.44231 0.31557 0.77079   -0.726229
 O 0.94231 0.68443 0.22921   -0.726229
 O 0.05769 0.22921 0.68443   -0.726229
 O 0.55769 0.77079 0.31557   -0.726229
 O 0.30769 0.18443 0.27079   -0.726229
 O 0.80769 0.81557 0.72921   -0.726229
 O 0.5097 0.01561 0.30639   -0.717717
 O 0.0097 0.98439 0.69361   -0.717717
 O 0.2597 0.19361 0.51561   -0.717717
 O 0.7597 0.80639 0.48439   -0.717717
 O 0.2403 0.48439 0.80639   -0.717718
 O 0.7403 0.51561 0.19361   -0.717718
 O 0.4903 0.30639 0.01561   -0.717718
 O 0.9903 0.69361 0.98439   -0.717718
 O 0.63474 0.93876 0.37629   -0.718901
 O 0.13474 0.06124 0.62371   -0.718901
 O 0.38474 0.12371 0.43876   -0.718901
 O 0.88474 0.87629 0.56124   -0.718901
 O 0.11526 0.56124 0.87629   -0.718901
 O 0.61526 0.43876 0.12371   -0.718901
 O 0.36526 0.37629 0.93876   -0.718901
 O 0.86526 0.62371 0.06124   -0.718901
