{'_ref': 'TBD', '_srcid': 'CAKYAQ_clean', 'submitters': [{'name': 'Dalar Nazarian Jeff Camp and David Sholl', 'email': 'dalar@gatech.edu jcamp6@gatech.edu'}], '_method': 'VASP DFT with PBE;DDEC'}
data_Mg3H26C32(N2O9)2
_symmetry_space_group_name_H-M   'P 1'
_cell_length_a   13.38900000
_cell_length_b   14.48399985
_cell_length_c   14.70940000
_cell_angle_alpha   91.49190006
_cell_angle_beta   90.00000000
_cell_angle_gamma   90.00000000
_symmetry_Int_Tables_number   1
_chemical_formula_structural   Mg3H26C32(N2O9)2
_chemical_formula_sum   'Mg6 H52 C64 N8 O36'
_cell_volume   2851.57216839
_cell_formula_units_Z   2
loop_
 _symmetry_equiv_pos_site_id
 _symmetry_equiv_pos_as_xyz
  1  'x, y, z'
loop_
 _atom_site_label
 _atom_site_fract_x
 _atom_site_fract_y
 _atom_site_fract_z
 _atom_site_charge
 Mg 0.94059 0.7579 0.00609   1.541948
 Mg 0.44059 0.7421 0.49391   1.541948
 Mg 0.05941 0.2421 0.99391   1.541948
 Mg 0.55941 0.2579 0.50609   1.541948
 Mg 0.0 0.0 0.0   1.52001
 Mg 0.5 0.5 0.5   1.52001
 H 0.6111 0.6825 0.593   0.357378
 H 0.5738 0.1373 0.3327   0.300529
 H 0.6052 0.1545 0.244   0.318434
 H 0.7101 0.1589 0.7395   0.337148
 H 0.6115 0.1395 0.6904   0.335375
 H 0.7637 0.0706 0.1863   0.10201
 H 0.5643 0.9751 0.3645   0.113142
 H 0.7403 0.7979 0.2242   0.090824
 H 0.7422 0.7821 0.7591   0.092065
 H 0.597 0.9778 0.6232   0.119385
 H 0.7967 0.0499 0.8152   0.127737
 H 0.0807 0.8494 0.0607   0.459231
 H 0.0916 0.8457 0.97   0.390041
 H 0.1111 0.8175 0.907   0.357376
 H 0.0738 0.3627 0.1673   0.300529
 H 0.1052 0.3455 0.256   0.318434
 H 0.2101 0.3411 0.7605   0.337148
 H 0.1115 0.3605 0.8096   0.335375
 H 0.2637 0.4294 0.3137   0.10201
 H 0.0643 0.5249 0.1355   0.113142
 H 0.2403 0.7021 0.2758   0.090824
 H 0.2422 0.7179 0.7409   0.092065
 H 0.097 0.5222 0.8768   0.119385
 H 0.2967 0.4501 0.6848   0.127737
 H 0.5807 0.6506 0.4393   0.459231
 H 0.5916 0.6543 0.53   0.390039
 H 0.3889 0.3175 0.407   0.357378
 H 0.4262 0.8627 0.6673   0.300528
 H 0.3948 0.8455 0.756   0.318434
 H 0.2899 0.8411 0.2605   0.337148
 H 0.3885 0.8605 0.3096   0.335375
 H 0.2363 0.9294 0.8137   0.102009
 H 0.4357 0.0249 0.6355   0.113141
 H 0.2597 0.2021 0.7758   0.090824
 H 0.2578 0.2179 0.2409   0.092065
 H 0.403 0.0222 0.3768   0.119385
 H 0.2033 0.9501 0.1848   0.127737
 H 0.9193 0.1506 0.9393   0.459231
 H 0.9084 0.1543 0.03   0.390041
 H 0.8889 0.1825 0.093   0.357376
 H 0.9262 0.6373 0.8327   0.300528
 H 0.8948 0.6545 0.744   0.318434
 H 0.7899 0.6589 0.2395   0.337148
 H 0.8885 0.6395 0.1904   0.335375
 H 0.7363 0.5706 0.6863   0.102009
 H 0.9357 0.4751 0.8645   0.113141
 H 0.7597 0.2979 0.7242   0.090824
 H 0.7578 0.2821 0.2591   0.092065
 H 0.903 0.4778 0.1232   0.119385
 H 0.7033 0.5499 0.3152   0.127737
 H 0.4193 0.3494 0.5607   0.459231
 H 0.4084 0.3457 0.47   0.390039
 C 0.84613 0.91249 0.12465   0.79466
 C 0.7647 0.93083 0.19423   -0.136396
 C 0.73382 0.02083 0.21435   -0.151739
 C 0.65817 0.03492 0.27665   0.255637
 C 0.6141 0.96336 0.32167   -0.170098
 C 0.64512 0.87312 0.30228   -0.126271
 C 0.59826 0.79327 0.35086   0.722103
 C 0.7199 0.858 0.23804   -0.037868
 C 0.85493 0.88877 0.87119   0.774911
 C 0.78077 0.91187 0.79837   -0.122577
 C 0.73005 0.84417 0.74852   -0.036658
 C 0.6612 0.86871 0.68284   -0.184098
 C 0.60859 0.79507 0.62753   0.688842
 C 0.64283 0.96138 0.66745   -0.134817
 C 0.69227 0.02968 0.71763   0.274358
 C 0.7621 0.00443 0.78234   -0.116772
 C 0.34613 0.58751 0.37535   0.794661
 C 0.2647 0.56917 0.30577   -0.136396
 C 0.23382 0.47917 0.28565   -0.151739
 C 0.15817 0.46508 0.22335   0.255637
 C 0.1141 0.53664 0.17833   -0.170098
 C 0.14512 0.62688 0.19772   -0.126271
 C 0.09826 0.70673 0.14914   0.722104
 C 0.2199 0.642 0.26196   -0.037867
 C 0.35493 0.61123 0.62881   0.774912
 C 0.28077 0.58813 0.70163   -0.122577
 C 0.23005 0.65583 0.75148   -0.036658
 C 0.1612 0.63129 0.81716   -0.184098
 C 0.10859 0.70493 0.87247   0.688842
 C 0.14283 0.53862 0.83255   -0.134817
 C 0.19227 0.47032 0.78237   0.274358
 C 0.2621 0.49557 0.71766   -0.116772
 C 0.15387 0.08751 0.87535   0.794661
 C 0.2353 0.06917 0.80577   -0.136395
 C 0.26618 0.97917 0.78565   -0.151739
 C 0.34183 0.96508 0.72335   0.255637
 C 0.3859 0.03664 0.67833   -0.170098
 C 0.35488 0.12688 0.69772   -0.126271
 C 0.40174 0.20673 0.64914   0.722104
 C 0.2801 0.142 0.76196   -0.037868
 C 0.14507 0.11123 0.12881   0.774912
 C 0.21923 0.08813 0.20163   -0.122577
 C 0.26995 0.15583 0.25148   -0.036658
 C 0.3388 0.13129 0.31716   -0.184098
 C 0.39141 0.20493 0.37247   0.688842
 C 0.35717 0.03862 0.33255   -0.134817
 C 0.30773 0.97032 0.28237   0.274358
 C 0.2379 0.99557 0.21766   -0.11677
 C 0.65387 0.41249 0.62465   0.794662
 C 0.7353 0.43083 0.69423   -0.136396
 C 0.76618 0.52083 0.71435   -0.151739
 C 0.84183 0.53492 0.77665   0.255637
 C 0.8859 0.46336 0.82167   -0.170098
 C 0.85488 0.37312 0.80228   -0.126271
 C 0.90174 0.29327 0.85086   0.722105
 C 0.7801 0.358 0.73804   -0.037867
 C 0.64507 0.38877 0.37119   0.774912
 C 0.71923 0.41187 0.29837   -0.122577
 C 0.76995 0.34417 0.24852   -0.036658
 C 0.8388 0.36871 0.18284   -0.184099
 C 0.89141 0.29507 0.12753   0.688843
 C 0.85717 0.46138 0.16745   -0.134817
 C 0.80773 0.52968 0.21763   0.274358
 C 0.7379 0.50443 0.28234   -0.11677
 N 0.62383 0.1299 0.29402   -0.704595
 N 0.67638 0.12378 0.70031   -0.714457
 N 0.12383 0.3701 0.20598   -0.704595
 N 0.17638 0.37622 0.79969   -0.714457
 N 0.37617 0.8701 0.70598   -0.704594
 N 0.32362 0.87622 0.29969   -0.714457
 N 0.87617 0.6299 0.79402   -0.704594
 N 0.82362 0.62378 0.20031   -0.714457
 O 0.85797 0.83037 0.09905   -0.752308
 O 0.89435 0.98086 0.0988   -0.736998
 O 0.05313 0.86361 0.0112   -0.924421
 O 0.64418 0.71814 0.34963   -0.622756
 O 0.51608 0.80916 0.39006   -0.767347
 O 0.86323 0.80574 0.89404   -0.754884
 O 0.90334 0.95462 0.90423   -0.734116
 O 0.64568 0.71705 0.62496   -0.382997
 O 0.52858 0.81829 0.58742   -0.643592
 O 0.35797 0.66963 0.40095   -0.752308
 O 0.39435 0.51914 0.4012   -0.736998
 O 0.55313 0.63639 0.4888   -0.92442
 O 0.14418 0.78186 0.15037   -0.622756
 O 0.01608 0.69084 0.10994   -0.767347
 O 0.36323 0.69426 0.60596   -0.754884
 O 0.40334 0.54538 0.59577   -0.734116
 O 0.14568 0.78295 0.87504   -0.382997
 O 0.02858 0.68171 0.91258   -0.643592
 O 0.14203 0.16963 0.90095   -0.752308
 O 0.10565 0.01914 0.9012   -0.736998
 O 0.94687 0.13639 0.9888   -0.924421
 O 0.35582 0.28186 0.65037   -0.622756
 O 0.48392 0.19084 0.60994   -0.767347
 O 0.13677 0.19426 0.10596   -0.754884
 O 0.09666 0.04538 0.09577   -0.734116
 O 0.35432 0.28295 0.37504   -0.382997
 O 0.47142 0.18171 0.41258   -0.643592
 O 0.64203 0.33037 0.59905   -0.752308
 O 0.60565 0.48086 0.5988   -0.736998
 O 0.44687 0.36361 0.5112   -0.92442
 O 0.85582 0.21814 0.84963   -0.622756
 O 0.98392 0.30916 0.89006   -0.767347
 O 0.63677 0.30574 0.39404   -0.754884
 O 0.59666 0.45462 0.40423   -0.734116
 O 0.85432 0.21705 0.12496   -0.382997
 O 0.97142 0.31829 0.08742   -0.643592
