{'_ref': 'TBD', '_srcid': 'CAKYAQ_clean', 'submitters': [{'name': 'Dalar Nazarian Jeff Camp and David Sholl', 'email': 'dalar@gatech.edu jcamp6@gatech.edu'}], '_method': 'VASP DFT with PBE;DDEC'}
data_CuH8C12(NO2)2
_symmetry_space_group_name_H-M   'P 1'
_cell_length_a   7.81990000
_cell_length_b   10.49710000
_cell_length_c   19.08100000
_cell_angle_alpha   90.00000000
_cell_angle_beta   90.00000000
_cell_angle_gamma   90.00000000
_symmetry_Int_Tables_number   1
_chemical_formula_structural   CuH8C12(NO2)2
_chemical_formula_sum   'Cu4 H32 C48 N8 O16'
_cell_volume   1566.28816157
_cell_formula_units_Z   4
loop_
 _symmetry_equiv_pos_site_id
 _symmetry_equiv_pos_as_xyz
  1  'x, y, z'
loop_
 _atom_site_label
 _atom_site_fract_x
 _atom_site_fract_y
 _atom_site_fract_z
 _atom_site_charge
 Cu 0.24946 0.41054 0.1224   0.82924
 Cu 0.25054 0.58946 0.6224   0.82924
 Cu 0.75054 0.91054 0.3776   0.82924
 Cu 0.74946 0.08946 0.8776   0.82924
 H 0.8527 0.5121 0.0671   0.115575
 H 0.2706 0.5312 0.3413   0.110164
 H 0.031 0.7922 0.4607   0.07901
 H 0.6187 0.3876 0.0939   0.068628
 H 0.3165 0.688 0.0935   0.087565
 H 0.9272 0.7759 0.2588   0.086291
 H 0.8197 0.7316 0.0558   0.104635
 H 0.5442 0.8181 0.0632   0.141163
 H 0.6473 0.4879 0.5671   0.115575
 H 0.2294 0.4688 0.8413   0.110164
 H 0.469 0.2078 0.9607   0.07901
 H 0.8813 0.6124 0.5939   0.068628
 H 0.1835 0.312 0.5935   0.087565
 H 0.5728 0.2241 0.7588   0.086291
 H 0.6803 0.2684 0.5558   0.104635
 H 0.9558 0.1819 0.5632   0.141163
 H 0.1473 0.0121 0.4329   0.115575
 H 0.7294 0.0312 0.1587   0.110164
 H 0.969 0.2922 0.0393   0.07901
 H 0.3813 0.8876 0.4061   0.068628
 H 0.6835 0.188 0.4065   0.087565
 H 0.0728 0.2759 0.2412   0.086291
 H 0.1803 0.2316 0.4442   0.104635
 H 0.4558 0.3181 0.4368   0.141162
 H 0.3527 0.9879 0.9329   0.115575
 H 0.7706 0.9688 0.6587   0.110164
 H 0.531 0.7078 0.5393   0.07901
 H 0.1187 0.1124 0.9061   0.068628
 H 0.8165 0.812 0.9065   0.087565
 H 0.4272 0.7241 0.7412   0.086291
 H 0.3197 0.7684 0.9442   0.104635
 H 0.0442 0.6819 0.9368   0.141162
 C 0.2515 0.607 0.47669   0.663961
 C 0.1281 0.5902 0.21586   0.663796
 C 0.1649 0.6537 0.411   -0.205255
 C 0.7434 0.5503 0.0727   -0.144432
 C 0.1918 0.5995 0.34619   0.073969
 C 0.1042 0.6444 0.2882   -0.195863
 C 0.048 0.7533 0.41624   0.195868
 C 0.6037 0.4769 0.0887   0.133506
 C 0.4269 0.6515 0.0881   0.149727
 C 0.9878 0.7442 0.29828   0.193244
 C 0.7239 0.6786 0.065   0.043382
 C 0.5623 0.7297 0.0709   -0.173547
 C 0.2485 0.393 0.97669   0.663961
 C 0.3719 0.4098 0.71586   0.663796
 C 0.3351 0.3463 0.911   -0.205255
 C 0.7566 0.4497 0.5727   -0.144431
 C 0.3082 0.4005 0.84619   0.073969
 C 0.3958 0.3556 0.7882   -0.195863
 C 0.452 0.2467 0.91624   0.195868
 C 0.8963 0.5231 0.5887   0.133507
 C 0.0731 0.3485 0.5881   0.149727
 C 0.5122 0.2558 0.79828   0.193244
 C 0.7761 0.3214 0.565   0.043382
 C 0.9377 0.2703 0.5709   -0.173547
 C 0.7485 0.107 0.02331   0.663961
 C 0.8719 0.0902 0.28414   0.663796
 C 0.8351 0.1537 0.089   -0.205255
 C 0.2566 0.0503 0.4273   -0.144432
 C 0.8082 0.0995 0.15381   0.07397
 C 0.8958 0.1444 0.2118   -0.195863
 C 0.952 0.2533 0.08376   0.195868
 C 0.3963 0.9769 0.4113   0.133506
 C 0.5731 0.1515 0.4119   0.149726
 C 0.0122 0.2442 0.20172   0.193243
 C 0.2761 0.1786 0.435   0.043381
 C 0.4377 0.2297 0.4291   -0.173547
 C 0.7515 0.893 0.52331   0.663961
 C 0.6281 0.9098 0.78414   0.663796
 C 0.6649 0.8463 0.589   -0.205255
 C 0.2434 0.9497 0.9273   -0.144431
 C 0.6918 0.9005 0.65381   0.073969
 C 0.6042 0.8556 0.7118   -0.195863
 C 0.548 0.7467 0.58376   0.195868
 C 0.1037 0.0231 0.9113   0.133506
 C 0.9269 0.8485 0.9119   0.149727
 C 0.4878 0.7558 0.70172   0.193243
 C 0.2239 0.8214 0.935   0.043381
 C 0.0623 0.7703 0.9291   -0.173547
 N 0.4459 0.5262 0.09737   -0.315142
 N 0.9578 0.7971 0.36096   -0.348551
 N 0.0541 0.4738 0.59737   -0.315142
 N 0.5422 0.2029 0.86096   -0.348551
 N 0.5541 0.0262 0.40263   -0.315142
 N 0.0422 0.2971 0.13904   -0.348551
 N 0.9459 0.9738 0.90263   -0.315142
 N 0.4578 0.7029 0.63904   -0.348551
 O 0.2216 0.4895 0.21402   -0.600338
 O 0.214 0.6703 0.53177   -0.602866
 O 0.06 0.6406 0.16499   -0.581709
 O 0.3478 0.5149 0.4738   -0.572021
 O 0.2784 0.5105 0.71402   -0.600338
 O 0.286 0.3297 0.03177   -0.602866
 O 0.44 0.3594 0.66499   -0.581709
 O 0.1522 0.4851 0.9738   -0.572021
 O 0.7784 0.9895 0.28598   -0.600338
 O 0.786 0.1703 0.96823   -0.602866
 O 0.94 0.1406 0.33501   -0.581709
 O 0.6522 0.0149 0.0262   -0.572021
 O 0.7216 0.0105 0.78598   -0.600338
 O 0.714 0.8297 0.46823   -0.602866
 O 0.56 0.8594 0.83501   -0.581709
 O 0.8478 0.9851 0.5262   -0.572021
