{'_ref': 'TBD', '_srcid': 'CAKYAQ_clean', 'submitters': [{'name': 'Dalar Nazarian Jeff Camp and David Sholl', 'email': 'dalar@gatech.edu jcamp6@gatech.edu'}], '_method': 'VASP DFT with PBE;DDEC'}
data_Sr2H14C18O11
_symmetry_space_group_name_H-M   'P 1'
_cell_length_a   7.42959980
_cell_length_b   11.62700016
_cell_length_c   14.07605353
_cell_angle_alpha   114.39358065
_cell_angle_beta   98.77233223
_cell_angle_gamma   89.99999822
_symmetry_Int_Tables_number   1
_chemical_formula_structural   Sr2H14C18O11
_chemical_formula_sum   'Sr4 H28 C36 O22'
_cell_volume   1091.76047018
_cell_formula_units_Z   2
loop_
 _symmetry_equiv_pos_site_id
 _symmetry_equiv_pos_as_xyz
  1  'x, y, z'
loop_
 _atom_site_label
 _atom_site_fract_x
 _atom_site_fract_y
 _atom_site_fract_z
 _atom_site_charge
 Sr 0.43847 0.73105 0.88946   1.672572
 Sr 0.06153 0.84159 0.11054   1.672595
 Sr 0.56153 0.26895 0.11054   1.672583
 Sr 0.93847 0.15841 0.88946   1.672606
 H 0.704 0.9301 0.0402   0.434273
 H 0.9243 0.3405 0.6304   0.096302
 H 0.9553 0.2356 0.4548   0.12225
 H 0.317 0.4999 0.6096   0.124855
 H 0.651 0.6026 0.5658   0.073387
 H 0.1031 0.8728 0.723   0.104194
 H 0.9367 0.7727 0.687   0.120108
 H 0.796 0.8899 0.9598   0.434194
 H 0.5757 0.7101 0.3696   0.096095
 H 0.5447 0.7808 0.5452   0.121977
 H 0.183 0.8903 0.3904   0.124878
 H 0.849 0.0368 0.4342   0.0738
 H 0.3969 0.1498 0.277   0.104717
 H 0.5633 0.0857 0.313   0.120355
 H 0.296 0.0699 0.9598   0.434273
 H 0.0757 0.6595 0.3696   0.096303
 H 0.0447 0.7644 0.5452   0.122251
 H 0.683 0.5001 0.3904   0.124856
 H 0.349 0.3974 0.4342   0.073388
 H 0.8969 0.1272 0.277   0.104194
 H 0.0633 0.2273 0.313   0.120108
 H 0.204 0.1101 0.0402   0.434194
 H 0.4243 0.2899 0.6304   0.096095
 H 0.4553 0.2192 0.4548   0.121977
 H 0.817 0.1097 0.6096   0.124879
 H 0.151 0.9632 0.5658   0.073801
 H 0.6031 0.8502 0.723   0.104717
 H 0.4367 0.9143 0.687   0.120355
 C 0.7605 0.54835 0.7307   0.744873
 C 0.7819 0.48179 0.61658   -0.194392
 C 0.8741 0.37203 0.58206   0.038388
 C 0.8926 0.30884 0.47688   -0.27906
 C 0.1829 0.64438 0.59536   0.295453
 C 0.2705 0.53307 0.56174   -0.233929
 C 0.7116 0.52838 0.54356   0.011572
 C 0.0546 0.80151 0.73242   -0.111816
 C 0.0304 0.84366 0.84592   0.775013
 C 0.7395 0.81765 0.2693   0.744436
 C 0.7181 0.86521 0.38342   -0.195259
 C 0.6259 0.78997 0.41794   0.038918
 C 0.6074 0.83196 0.52312   -0.278196
 C 0.3171 0.04902 0.40464   0.29421
 C 0.2295 0.97133 0.43826   -0.232883
 C 0.7884 0.98482 0.45644   0.011137
 C 0.4454 0.06909 0.26758   -0.11186
 C 0.4696 0.99774 0.15408   0.774247
 C 0.2395 0.45165 0.2693   0.744873
 C 0.2181 0.51821 0.38342   -0.194391
 C 0.1259 0.62797 0.41794   0.038389
 C 0.1074 0.69116 0.52312   -0.279065
 C 0.8171 0.35562 0.40464   0.295449
 C 0.7295 0.46693 0.43826   -0.233936
 C 0.2884 0.47162 0.45644   0.011565
 C 0.9454 0.19849 0.26758   -0.111817
 C 0.9696 0.15634 0.15408   0.775013
 C 0.2605 0.18235 0.7307   0.744436
 C 0.2819 0.13479 0.61658   -0.195258
 C 0.3741 0.21003 0.58206   0.038919
 C 0.3926 0.16804 0.47688   -0.278201
 C 0.6829 0.95098 0.59536   0.294207
 C 0.7705 0.02867 0.56174   -0.232891
 C 0.2116 0.01518 0.54356   0.01113
 C 0.5546 0.93091 0.73242   -0.11186
 C 0.5304 0.00226 0.84592   0.774247
 O 0.6524 0.63373 0.75682   -0.792395
 O 0.8593 0.51181 0.79354   -0.709909
 O 0.1749 0.70195 0.70198   -0.326638
 O 0.1071 0.79292 0.90282   -0.761724
 O 0.9246 0.93232 0.87452   -0.726257
 O 0.8476 0.87691 0.24318   -0.792496
 O 0.6407 0.71827 0.20646   -0.709534
 O 0.3251 0.99997 0.29802   -0.326647
 O 0.3929 0.8901 0.09718   -0.761341
 O 0.5754 0.0578 0.12548   -0.726092
 O 0.3476 0.36627 0.24318   -0.792395
 O 0.1407 0.48819 0.20646   -0.709909
 O 0.8251 0.29805 0.29802   -0.326638
 O 0.8929 0.20708 0.09718   -0.761725
 O 0.0754 0.06768 0.12548   -0.726257
 O 0.1524 0.12309 0.75682   -0.792497
 O 0.3593 0.28173 0.79354   -0.709534
 O 0.6749 3.00000000024e-05 0.70198   -0.326647
 O 0.6071 0.1099 0.90282   -0.761342
 O 0.4246 0.9422 0.87452   -0.726091
 O 0.75 0.8654 0.0   -0.954362
 O 0.25 0.1346 0.0   -0.954363
