{'_ref': 'TBD', '_srcid': 'CAKYAQ_clean', 'submitters': [{'name': 'Dalar Nazarian Jeff Camp and David Sholl', 'email': 'dalar@gatech.edu jcamp6@gatech.edu'}], '_method': 'VASP DFT with PBE;DDEC'}
data_AlH4C8O5
_symmetry_space_group_name_H-M   'P 1'
_cell_length_a   6.61249995
_cell_length_b   11.03369962
_cell_length_c   11.03370000
_cell_angle_alpha   70.36119975
_cell_angle_beta   72.56349567
_cell_angle_gamma   72.56349820
_symmetry_Int_Tables_number   1
_chemical_formula_structural   AlH4C8O5
_chemical_formula_sum   'Al2 H8 C16 O10'
_cell_volume   705.403549004
_cell_formula_units_Z   2
loop_
 _symmetry_equiv_pos_site_id
 _symmetry_equiv_pos_as_xyz
  1  'x, y, z'
loop_
 _atom_site_label
 _atom_site_fract_x
 _atom_site_fract_y
 _atom_site_fract_z
 _atom_site_charge
 Al 0.75 0.75 0.25   1.833838
 Al 0.25 0.75 0.25   1.833843
 H 0.32828 0.36105 0.28793   0.149266
 H 0.46341 0.11839 0.25963   0.152405
 H 0.67172 0.71207 0.63895   0.149266
 H 0.53659 0.74037 0.88161   0.152406
 H 0.97726 0.71207 0.63895   0.148917
 H 0.84143 0.74037 0.88161   0.152086
 H 0.02274 0.36105 0.28793   0.148917
 H 0.15857 0.11839 0.25963   0.152086
 C 0.5067 0.3088 0.2818   -0.097403
 C 0.5837 0.1705 0.2657   -0.089388
 C 0.4933 0.7182 0.6912   -0.097404
 C 0.4163 0.7343 0.8295   -0.08939
 C 0.0973 0.7182 0.6912   -0.097349
 C 0.0199 0.7343 0.8295   -0.087963
 C 0.9027 0.3088 0.2818   -0.09735
 C 0.9801 0.1705 0.2657   -0.087964
 C 0.8054 0.1284 0.2608   -0.053032
 C 0.6814 0.3506 0.2866   -0.054497
 C 0.8789 0.9899 0.2523   0.713355
 C 0.614 0.4942 0.2778   0.676039
 C 0.1946 0.7392 0.8716   -0.053031
 C 0.3186 0.7134 0.6494   -0.054496
 C 0.1211 0.7477 0.0101   0.713357
 C 0.386 0.7222 0.5058   0.67604
 O 0.7276 0.576 0.2716   -0.581065
 O 0.0741 0.923 0.2534   -0.647266
 O 0.2724 0.7284 0.424   -0.581066
 O 0.9259 0.7466 0.077   -0.647266
 O 0.5752 0.7284 0.424   -0.5811
 O 0.2505 0.7466 0.077   -0.647845
 O 0.4248 0.576 0.2716   -0.5811
 O 0.7495 0.923 0.2534   -0.647845
 O 0.0 0.6921 0.3079   -0.896964
 O 0.5 0.8073 0.1927   -0.88104
