{'_ref': 'TBD', '_srcid': 'CAKYAQ_clean', 'submitters': [{'name': 'Dalar Nazarian Jeff Camp and David Sholl', 'email': 'dalar@gatech.edu jcamp6@gatech.edu'}], '_method': 'VASP DFT with PBE;DDEC'}
data_ZnIn5H24(C3O2)24
_symmetry_space_group_name_H-M   'P 1'
_cell_length_a   17.30329981
_cell_length_b   18.24809982
_cell_length_c   18.24810000
_cell_angle_alpha   77.00990000
_cell_angle_beta   61.69850101
_cell_angle_gamma   61.69849906
_symmetry_Int_Tables_number   1
_chemical_formula_structural   ZnIn5H24(C3O2)24
_chemical_formula_sum   'Zn1 In5 H24 C72 O48'
_cell_volume   4466.71629436
_cell_formula_units_Z   1
loop_
 _symmetry_equiv_pos_site_id
 _symmetry_equiv_pos_as_xyz
  1  'x, y, z'
loop_
 _atom_site_label
 _atom_site_fract_x
 _atom_site_fract_y
 _atom_site_fract_z
 _atom_site_charge
 Zn 0.25 0.5 0.5   1.000817
 In 0.39096 0.4008 0.99946   1.454699
 In 0.79122 0.5992 0.000540000000001   1.454696
 In 0.60958 0.99946 0.5992   1.454688
 In 0.20824 0.000540000000001 0.4008   1.454693
 In 0.0 0.0 0.0   1.468395
 H 0.9114 0.7848 0.0216   0.117053
 H 0.1644 0.7052 0.025   0.120762
 H 0.0686 0.5376 0.0336   0.12731
 H 0.4245 0.2845 0.5959   0.121478
 H 0.3632 0.4638 0.7384   0.126625
 H 0.4974 0.218 0.788   0.135989
 H 0.7178 0.2152 0.9784   0.117046
 H 0.8946 0.2948 0.975   0.12076
 H 0.6398 0.4624 0.9664   0.127313
 H 0.3049 0.7155 0.4041   0.121479
 H 0.5654 0.5362 0.2616   0.126623
 H 0.5034 0.782 0.212   0.135987
 H 0.067 0.0216 0.2152   0.117041
 H 0.8106 0.025 0.2948   0.120761
 H 0.8978 0.0336 0.4624   0.127305
 H 0.9796 0.5959 0.7155   0.121477
 H 0.8984 0.7384 0.5362   0.126619
 H 0.7146 0.788 0.782   0.135991
 H 0.3038 0.9784 0.7848   0.117067
 H 0.1304 0.975 0.7052   0.120761
 H 0.3938 0.9664 0.5376   0.127313
 H 0.291 0.4041 0.2845   0.121475
 H 0.173 0.2616 0.4638   0.126621
 H 0.2846 0.212 0.218   0.135987
 C 0.0361 0.7554 0.0254   -0.132674
 C 0.9668 0.7405 0.0241   0.035613
 C 0.2296 0.5342 0.0182   0.613849
 C 0.9786 0.6584 0.0266   -0.135989
 C 0.1177 0.6933 0.0251   0.034964
 C 0.0616 0.592 0.0292   0.010944
 C 0.0227 0.8466 0.012   0.625447
 C 0.1354 0.609 0.0248   -0.127306
 C 0.4666 0.2414 0.6842   -0.140577
 C 0.4248 0.2996 0.6412   0.031069
 C 0.3853 0.4085 0.7269   0.003464
 C 0.4258 0.3457 0.7753   -0.099799
 C 0.3779 0.3891 0.6619   -0.093899
 C 0.4692 0.2597 0.7565   0.039512
 C 0.4309 0.3626 0.8538   0.599137
 C 0.3322 0.4537 0.6095   0.627165
 C 0.5151 0.1539 0.6571   0.602515
 C 0.9073 0.6403 0.0181   0.619304
 C 0.8169 0.2446 0.9746   -0.132681
 C 0.7314 0.2595 0.9759   0.035618
 C 0.782 0.4658 0.9818   0.613842
 C 0.6636 0.3416 0.9734   -0.135978
 C 0.8361 0.3067 0.9749   0.034966
 C 0.6828 0.408 0.9708   0.010934
 C 0.8813 0.1534 0.988   0.625457
 C 0.7692 0.391 0.9752   -0.1273
 C 0.3922 0.7586 0.3158   -0.140575
 C 0.3656 0.7004 0.3588   0.031068
 C 0.5207 0.5915 0.2731   0.00348
 C 0.5468 0.6543 0.2247   -0.099823
 C 0.4289 0.6109 0.3381   -0.093905
 C 0.4854 0.7403 0.2435   0.039516
 C 0.6473 0.6374 0.1462   0.599145
 C 0.3954 0.5463 0.3905   0.627174
 C 0.3261 0.8461 0.3429   0.602515
 C 0.5657 0.3597 0.9819   0.619294
 C 0.9385 0.0254 0.2446   -0.132673
 C 0.0091 0.0241 0.2595   0.035628
 C 0.7522 0.0182 0.4658   0.613847
 C 0.9948 0.0266 0.3416   -0.135994
 C 0.8572 0.0251 0.3067   0.034968
 C 0.9092 0.0292 0.408   0.010951
 C 0.9653 0.012 0.1534   0.625454
 C 0.8398 0.0248 0.391   -0.127315
 C 0.8492 0.6842 0.7586   -0.140577
 C 0.934 0.6412 0.7004   0.031071
 C 0.8878 0.7269 0.5915   0.003472
 C 0.7989 0.7753 0.6543   -0.099811
 C 0.9602 0.6619 0.6109   -0.093901
 C 0.7743 0.7565 0.7403   0.03951
 C 0.7153 0.8538 0.6374   0.599146
 C 0.0583 0.6095 0.5463   0.627177
 C 0.8278 0.6571 0.8461   0.602528
 C 0.0746 0.0181 0.3597   0.619301
 C 0.2085 0.9746 0.7554   -0.132674
 C 0.2927 0.9759 0.7405   0.03559
 C 0.2362 0.9818 0.5342   0.613863
 C 0.363 0.9734 0.6584   -0.13597
 C 0.189 0.9749 0.6933   0.034971
 C 0.3464 0.9708 0.592   0.010937
 C 0.1307 0.988 0.8466   0.62545
 C 0.2556 0.9752 0.609   -0.127314
 C 0.292 0.3158 0.2414   -0.140581
 C 0.2756 0.3588 0.2996   0.031079
 C 0.2062 0.2731 0.4085   0.003476
 C 0.2285 0.2247 0.3457   -0.099803
 C 0.233 0.3381 0.3891   -0.093915
 C 0.2711 0.2435 0.2597   0.039516
 C 0.2065 0.1462 0.3626   0.599135
 C 0.2141 0.3905 0.4537   0.627193
 C 0.331 0.3429 0.1539   0.602517
 C 0.4524 0.9819 0.6403   0.619294
 O 0.235 0.4627 0.0209   -0.52583
 O 0.9139 0.5682 0.029   -0.512485
 O 0.4119 0.4372 0.8614   -0.529101
 O 0.839 0.6991 0.0047   -0.504485
 O 0.52 0.1336 0.5942   -0.493152
 O 0.5648 0.0921 0.6965   -0.477579
 O 0.428 0.3118 0.9078   -0.471377
 O 0.2981 0.5453 0.0117   -0.477441
 O 0.9537 0.9024 0.0088   -0.472222
 O 0.0909 0.858 0.014   -0.541473
 O 0.3164 0.421 0.5652   -0.531921
 O 0.3116 0.5254 0.6166   -0.396885
 O 0.7186 0.5373 0.9791   -0.525828
 O 0.5111 0.4318 0.971   -0.512476
 O 0.7105 0.5628 0.1386   -0.529097
 O 0.5428 0.3009 0.9953   -0.504489
 O 0.2478 0.8664 0.4058   -0.493149
 O 0.3534 0.9079 0.3035   -0.477583
 O 0.6476 0.6882 0.0922   -0.471378
 O 0.8551 0.4547 0.9883   -0.477429
 O 0.8649 0.0976 0.9912   -0.472223
 O 0.9629 0.142 0.986   -0.541481
 O 0.3026 0.579 0.4348   -0.531924
 O 0.4536 0.4746 0.3834   -0.396898
 O 0.7441 0.0209 0.5373   -0.52583
 O 0.0571 0.029 0.4318   -0.512478
 O 0.7267 0.8614 0.5628   -0.529092
 O 0.1563 0.0047 0.3009   -0.50449
 O 0.8858 0.5942 0.8664   -0.493157
 O 0.7387 0.6965 0.9079   -0.477594
 O 0.6642 0.9078 0.6882   -0.471378
 O 0.6902 0.0117 0.4547   -0.477436
 O 0.0375 0.0088 0.0976   -0.472227
 O 0.8951 0.014 0.142   -0.541477
 O 0.1184 0.5652 0.579   -0.531922
 O 0.0718 0.6166 0.4746   -0.396901
 O 0.3023 0.9791 0.4627   -0.52583
 O 0.5179 0.971 0.5682   -0.512478
 O 0.1509 0.1386 0.4372   -0.529097
 O 0.4619 0.9953 0.6991   -0.504486
 O 0.3464 0.4058 0.1336   -0.493151
 O 0.3431 0.3035 0.0921   -0.477581
 O 0.2602 0.0922 0.3118   -0.471376
 O 0.1566 0.9883 0.5453   -0.477449
 O 0.1439 0.9912 0.9024   -0.472226
 O 0.0511 0.986 0.858   -0.541476
 O 0.2626 0.4348 0.421   -0.531921
 O 0.163 0.3834 0.5254   -0.396906
