{'_ref': 'TBD', '_srcid': 'CAKYAQ_clean', 'submitters': [{'name': 'Dalar Nazarian Jeff Camp and David Sholl', 'email': 'dalar@gatech.edu jcamp6@gatech.edu'}], '_method': 'VASP DFT with PBE;DDEC'}
data_ZnH16C25NO6
_symmetry_space_group_name_H-M   'P 1'
_cell_length_a   13.28900000
_cell_length_b   13.71100021
_cell_length_c   16.46700000
_cell_angle_alpha   90.00000000
_cell_angle_beta   90.00000000
_cell_angle_gamma   117.02000070
_symmetry_Int_Tables_number   1
_chemical_formula_structural   ZnH16C25NO6
_chemical_formula_sum   'Zn4 H64 C100 N4 O24'
_cell_volume   2672.88042018
_cell_formula_units_Z   4
loop_
 _symmetry_equiv_pos_site_id
 _symmetry_equiv_pos_as_xyz
  1  'x, y, z'
loop_
 _atom_site_label
 _atom_site_fract_x
 _atom_site_fract_y
 _atom_site_fract_z
 _atom_site_charge
 Zn 0.09252 0.11422 0.50296   0.920488
 Zn 0.90748 0.38578 0.00296   0.920488
 Zn 0.90748 0.88578 0.49704   0.920488
 Zn 0.09252 0.61422 0.99704   0.920488
 H 0.3355 0.1859 0.5203   0.096003
 H 0.5067 0.3402 0.5193   0.120632
 H 0.3418 0.5189 0.4788   0.129669
 H 0.1754 0.359 0.4791   0.101443
 H 0.925 0.2655 0.3469   0.108811
 H 0.8375 0.3074 0.2394   0.105039
 H 0.7057 0.1691 0.1599   0.105132
 H 0.7453 0.9445 0.2956   0.114812
 H 0.5094 0.88 0.2903   0.128754
 H 0.4249 0.6977 0.3319   0.12873
 H 0.5663 0.6211 0.1423   0.132845
 H 0.6515 0.8035 0.1009   0.132075
 H 0.3332 0.3461 0.3211   0.118194
 H 0.1485 0.2202 0.2929   0.107783
 H 0.0418 0.2638 0.2017   0.099158
 H 0.3023 0.5648 0.172   0.115729
 H 0.6645 0.3141 0.0203   0.096004
 H 0.4933 0.1598 0.0193   0.120633
 H 0.6582 0.9811 0.9788   0.129669
 H 0.8246 0.141 0.9791   0.101442
 H 0.075 0.2345 0.8469   0.108811
 H 0.1625 0.1926 0.7394   0.105039
 H 0.2943 0.3309 0.6599   0.105132
 H 0.2547 0.5555 0.7956   0.114812
 H 0.4906 0.62 0.7903   0.128754
 H 0.5751 0.8023 0.8319   0.12873
 H 0.4337 0.8789 0.6423   0.132845
 H 0.3485 0.6965 0.6009   0.132075
 H 0.6668 0.1539 0.8211   0.118194
 H 0.8515 0.2798 0.7929   0.107783
 H 0.9582 0.2362 0.7017   0.099158
 H 0.6977 0.9352 0.672   0.115729
 H 0.6645 0.8141 0.4797   0.096004
 H 0.4933 0.6598 0.4807   0.120633
 H 0.6582 0.4811 0.5212   0.129669
 H 0.8246 0.641 0.5209   0.101442
 H 0.075 0.7345 0.6531   0.10881
 H 0.1625 0.6926 0.7606   0.105039
 H 0.2943 0.8309 0.8401   0.105132
 H 0.2547 0.0555 0.7044   0.114811
 H 0.4906 0.12 0.7097   0.128754
 H 0.5751 0.3023 0.6681   0.128731
 H 0.4337 0.3789 0.8577   0.132845
 H 0.3485 0.1965 0.8991   0.132075
 H 0.6668 0.6539 0.6789   0.118194
 H 0.8515 0.7798 0.7071   0.107783
 H 0.9582 0.7362 0.7983   0.099158
 H 0.6977 0.4352 0.828   0.115729
 H 0.3355 0.6859 0.9797   0.096004
 H 0.5067 0.8402 0.9807   0.120633
 H 0.3418 0.0189 0.0212   0.129669
 H 0.1754 0.859 0.0209   0.101442
 H 0.925 0.7655 0.1531   0.10881
 H 0.8375 0.8074 0.2606   0.105039
 H 0.7057 0.6691 0.3401   0.105132
 H 0.7453 0.4445 0.2044   0.114811
 H 0.5094 0.38 0.2097   0.128754
 H 0.4249 0.1977 0.1681   0.128731
 H 0.5663 0.1211 0.3577   0.132845
 H 0.6515 0.3035 0.3991   0.132074
 H 0.3332 0.8461 0.1789   0.118194
 H 0.1485 0.7202 0.2071   0.107783
 H 0.0418 0.7638 0.2983   0.099158
 H 0.3023 0.0648 0.328   0.115729
 C 0.33711 0.25368 0.51184   0.159814
 C 0.44061 0.34652 0.51153   -0.185342
 C 0.44564 0.44912 0.49961   0.101247
 C 0.34293 0.45234 0.48728   -0.171868
 C 0.24283 0.35546 0.48789   0.170999
 C 0.90274 0.07115 0.39774   0.676118
 C 0.84412 0.10093 0.33153   -0.070518
 C 0.87195 0.20985 0.31512   -0.111368
 C 0.81942 0.23475 0.25048   -0.026924
 C 0.74062 0.15214 0.2027   -0.201347
 C 0.7142 0.0435 0.21936   0.255842
 C 0.76452 0.01721 0.28406   -0.222247
 C 0.58927 0.85822 0.19275   0.242225
 C 0.52117 0.82799 0.2612   -0.158356
 C 0.4707 0.71938 0.28598   -0.167218
 C 0.48981 0.64375 0.24105   0.234259
 C 0.55587 0.67348 0.172   -0.159761
 C 0.60661 0.78217 0.14723   -0.183374
 C 0.33519 0.46737 0.24923   0.250949
 C 0.28978 0.36407 0.28555   -0.236454
 C 0.17966 0.28864 0.26817   -0.039425
 C 0.11538 0.31502 0.21371   -0.102505
 C 0.16128 0.41814 0.17727   -0.071359
 C 0.2717 0.49558 0.19542   -0.227058
 C 0.094 0.44591 0.11665   0.67624
 C 0.66289 0.24632 0.01184   0.159814
 C 0.55939 0.15348 0.01153   -0.185342
 C 0.55436 0.05088 0.99961   0.101247
 C 0.65707 0.04766 0.98728   -0.171868
 C 0.75717 0.14454 0.98789   0.170999
 C 0.09726 0.42885 0.89774   0.676118
 C 0.15588 0.39907 0.83153   -0.070518
 C 0.12805 0.29015 0.81512   -0.111368
 C 0.18058 0.26525 0.75048   -0.026924
 C 0.25938 0.34786 0.7027   -0.201347
 C 0.2858 0.4565 0.71936   0.255842
 C 0.23548 0.48279 0.78406   -0.222247
 C 0.41073 0.64178 0.69275   0.242224
 C 0.47883 0.67201 0.7612   -0.158356
 C 0.5293 0.78062 0.78598   -0.167218
 C 0.51019 0.85625 0.74105   0.234259
 C 0.44413 0.82652 0.672   -0.159762
 C 0.39339 0.71783 0.64723   -0.183374
 C 0.66481 0.03263 0.74923   0.250949
 C 0.71022 0.13593 0.78555   -0.236454
 C 0.82034 0.21136 0.76817   -0.039425
 C 0.88462 0.18498 0.71371   -0.102505
 C 0.83872 0.08186 0.67727   -0.071359
 C 0.7283 0.00442 0.69542   -0.227058
 C 0.906 0.05409 0.61665   0.67624
 C 0.66289 0.74632 0.48816   0.159814
 C 0.55939 0.65348 0.48847   -0.185342
 C 0.55436 0.55088 0.50039   0.101247
 C 0.65707 0.54766 0.51272   -0.171868
 C 0.75717 0.64454 0.51211   0.170999
 C 0.09726 0.92885 0.60226   0.676118
 C 0.15588 0.89907 0.66847   -0.070518
 C 0.12805 0.79015 0.68488   -0.111368
 C 0.18058 0.76525 0.74952   -0.026924
 C 0.25938 0.84786 0.7973   -0.201347
 C 0.2858 0.9565 0.78064   0.255842
 C 0.23548 0.98279 0.71594   -0.222247
 C 0.41073 0.14178 0.80725   0.242224
 C 0.47883 0.17201 0.7388   -0.158356
 C 0.5293 0.28062 0.71402   -0.167218
 C 0.51019 0.35625 0.75895   0.234259
 C 0.44413 0.32652 0.828   -0.159762
 C 0.39339 0.21783 0.85277   -0.183374
 C 0.66481 0.53263 0.75077   0.250949
 C 0.71022 0.63593 0.71445   -0.236455
 C 0.82034 0.71136 0.73183   -0.039425
 C 0.88462 0.68498 0.78629   -0.102505
 C 0.83872 0.58186 0.82273   -0.071359
 C 0.7283 0.50442 0.80458   -0.227057
 C 0.906 0.55409 0.88335   0.67624
 C 0.33711 0.75368 0.98816   0.159814
 C 0.44061 0.84652 0.98847   -0.185342
 C 0.44564 0.94912 0.000390000000003   0.101247
 C 0.34293 0.95234 0.01272   -0.171868
 C 0.24283 0.85546 0.01211   0.170999
 C 0.90274 0.57115 0.10226   0.676118
 C 0.84412 0.60093 0.16847   -0.070518
 C 0.87195 0.70985 0.18488   -0.111368
 C 0.81942 0.73475 0.24952   -0.026924
 C 0.74062 0.65214 0.2973   -0.201347
 C 0.7142 0.5435 0.28064   0.255842
 C 0.76452 0.51721 0.21594   -0.222247
 C 0.58927 0.35822 0.30725   0.242224
 C 0.52117 0.32799 0.2388   -0.158356
 C 0.4707 0.21938 0.21402   -0.167218
 C 0.48981 0.14375 0.25895   0.234259
 C 0.55587 0.17348 0.328   -0.159762
 C 0.60661 0.28217 0.35277   -0.183373
 C 0.33519 0.96737 0.25077   0.250949
 C 0.28978 0.86407 0.21445   -0.236455
 C 0.17966 0.78864 0.23183   -0.039425
 C 0.11538 0.81502 0.28629   -0.102505
 C 0.16128 0.91814 0.32273   -0.071359
 C 0.2717 0.99558 0.30458   -0.227057
 C 0.094 0.94591 0.38335   0.67624
 N 0.23879 0.25781 0.50043   -0.292244
 N 0.76121 0.24219 0.000430000000001   -0.292244
 N 0.76121 0.74219 0.49957   -0.292244
 N 0.23879 0.75781 0.99957   -0.292244
 O 0.99217 0.14679 0.42611   -0.588425
 O 0.85917 0.9723 0.41882   -0.601401
 O 0.63924 0.96613 0.16676   -0.265733
 O 0.44554 0.53576 0.26847   -0.258703
 O 0.13586 0.54299 0.09129   -0.604015
 O 0.000720000000001 0.36927 0.0949   -0.587344
 O 0.00783 0.35321 0.92611   -0.588425
 O 0.14083 0.5277 0.91882   -0.601401
 O 0.36076 0.53387 0.66676   -0.265733
 O 0.55446 0.96424 0.76847   -0.258703
 O 0.86414 0.95701 0.59129   -0.604015
 O 0.99928 0.13073 0.5949   -0.587344
 O 0.00783 0.85321 0.57389   -0.588425
 O 0.14083 0.0277 0.58118   -0.601401
 O 0.36076 0.03387 0.83324   -0.265733
 O 0.55446 0.46424 0.73153   -0.258703
 O 0.86414 0.45701 0.90871   -0.604015
 O 0.99928 0.63073 0.9051   -0.587344
 O 0.99217 0.64679 0.07389   -0.588425
 O 0.85917 0.4723 0.08118   -0.601401
 O 0.63924 0.46613 0.33324   -0.265733
 O 0.44554 0.03576 0.23153   -0.258703
 O 0.13586 0.04299 0.40871   -0.604015
 O 0.000720000000001 0.86927 0.4051   -0.587344
