{'_ref': 'TBD', '_srcid': 'CAKYAQ_clean', 'submitters': [{'name': 'Dalar Nazarian Jeff Camp and David Sholl', 'email': 'dalar@gatech.edu jcamp6@gatech.edu'}], '_method': 'VASP DFT with PBE;DDEC'}
data_ZnH9C16S2NO4
_symmetry_space_group_name_H-M   'P 1'
_cell_length_a   9.93119976
_cell_length_b   13.96109998
_cell_length_c   13.96110000
_cell_angle_alpha   104.07400122
_cell_angle_beta   94.01460036
_cell_angle_gamma   94.01459860
_symmetry_Int_Tables_number   1
_chemical_formula_structural   ZnH9C16S2NO4
_chemical_formula_sum   'Zn4 H36 C64 S8 N4 O16'
_cell_volume   1865.40801875
_cell_formula_units_Z   4
loop_
 _symmetry_equiv_pos_site_id
 _symmetry_equiv_pos_as_xyz
  1  'x, y, z'
loop_
 _atom_site_label
 _atom_site_fract_x
 _atom_site_fract_y
 _atom_site_fract_z
 _atom_site_charge
 Zn 0.60504 0.23651 0.69254   0.93032
 Zn 0.89496 0.30746 0.76349   0.930319
 Zn 0.39496 0.76349 0.30746   0.93032
 Zn 0.10504 0.69254 0.23651   0.93032
 H 0.9864 0.4042 0.4722   0.115414
 H 0.9272 0.4157 0.3027   0.111268
 H 0.5034 0.2647 0.1909   0.101941
 H 0.4645 0.2539 0.0149   0.122023
 H 0.4558 0.0356 0.6244   0.073299
 H 0.3493 0.2926 0.6096   0.078449
 H 0.243 0.9612 0.5582   0.124927
 H 0.1356 0.2278 0.544   0.133744
 H 0.962 0.0907 0.4955   0.107216
 H 0.5136 0.5278 0.5958   0.115415
 H 0.5728 0.6973 0.5843   0.111268
 H 0.9966 0.8091 0.7353   0.10194
 H 0.0355 0.9851 0.7461   0.122027
 H 0.0442 0.3756 0.9644   0.073298
 H 0.1507 0.3904 0.7074   0.078449
 H 0.257 0.4418 0.0388   0.124927
 H 0.3644 0.456 0.7722   0.133743
 H 0.538 0.5045 0.9093   0.107216
 H 0.0136 0.5958 0.5278   0.115416
 H 0.0728 0.5843 0.6973   0.111269
 H 0.4966 0.7353 0.8091   0.101941
 H 0.5355 0.7461 0.9851   0.122022
 H 0.5442 0.9644 0.3756   0.073298
 H 0.6507 0.7074 0.3904   0.07845
 H 0.757 0.0388 0.4418   0.124926
 H 0.8644 0.7722 0.456   0.133743
 H 0.038 0.9093 0.5045   0.107211
 H 0.4864 0.4722 0.4042   0.115417
 H 0.4272 0.3027 0.4157   0.11127
 H 0.0034 0.1909 0.2647   0.10194
 H 0.9645 0.0149 0.2539   0.122026
 H 0.9558 0.6244 0.0356   0.073298
 H 0.8493 0.6096 0.2926   0.07845
 H 0.743 0.5582 0.9612   0.124926
 H 0.6356 0.544 0.2278   0.133743
 H 0.462 0.4955 0.0907   0.107211
 C 0.8206 0.27949 0.55725   0.68212
 C 0.8281 0.29993 0.45961   -0.225377
 C 0.9136 0.36688 0.4313   -0.028155
 C 0.8795 0.37337 0.33307   -0.173509
 C 0.7683 0.31054 0.28732   0.000987
 C 0.7052 0.29578 0.18682   -0.016279
 C 0.5723 0.27411 0.15147   -0.142647
 C 0.5497 0.26745 0.04983   -0.036211
 C 0.667 0.28303 0.00761   -0.205884
 C 0.69 0.28182 0.90358   0.694104
 C 0.3897 0.07524 0.60976   0.17359
 C 0.327 0.22508 0.60102   0.151568
 C 0.2609 0.02948 0.56992   -0.196808
 C 0.1977 0.18691 0.56157   -0.195809
 C 0.1618 0.08631 0.54849   0.146394
 C 0.0222 0.0465 0.50882   -0.089072
 C 0.6794 0.44275 0.72051   0.682121
 C 0.6719 0.54039 0.70007   -0.225375
 C 0.5864 0.5687 0.63312   -0.028154
 C 0.6205 0.66693 0.62663   -0.173509
 C 0.7317 0.71268 0.68946   0.000987
 C 0.7948 0.81318 0.70422   -0.016279
 C 0.9277 0.84853 0.72589   -0.142647
 C 0.9503 0.95017 0.73255   -0.036212
 C 0.833 0.99239 0.71697   -0.205883
 C 0.81 0.09642 0.71818   0.694105
 C 0.1103 0.39024 0.92476   0.17359
 C 0.173 0.39898 0.77492   0.151567
 C 0.2391 0.43008 0.97052   -0.196808
 C 0.3023 0.43843 0.81309   -0.195809
 C 0.3382 0.45151 0.91369   0.146394
 C 0.4778 0.49118 0.9535   -0.089072
 C 0.1794 0.72051 0.44275   0.68212
 C 0.1719 0.70007 0.54039   -0.225377
 C 0.0864 0.63312 0.5687   -0.028156
 C 0.1205 0.62663 0.66693   -0.173509
 C 0.2317 0.68946 0.71268   0.000987
 C 0.2948 0.70422 0.81318   -0.016279
 C 0.4277 0.72589 0.84853   -0.142647
 C 0.4503 0.73255 0.95017   -0.036203
 C 0.333 0.71697 0.99239   -0.205886
 C 0.31 0.71818 0.09642   0.694104
 C 0.6103 0.92476 0.39024   0.17359
 C 0.673 0.77492 0.39898   0.151568
 C 0.7391 0.97052 0.43008   -0.196807
 C 0.8023 0.81309 0.43843   -0.195809
 C 0.8382 0.91369 0.45151   0.146388
 C 0.9778 0.9535 0.49118   -0.089033
 C 0.3206 0.55725 0.27949   0.682121
 C 0.3281 0.45961 0.29993   -0.225375
 C 0.4136 0.4313 0.36688   -0.028154
 C 0.3795 0.33307 0.37337   -0.17351
 C 0.2683 0.28732 0.31054   0.000987
 C 0.2052 0.18682 0.29578   -0.01628
 C 0.0723 0.15147 0.27411   -0.142647
 C 0.0497 0.04983 0.26745   -0.036205
 C 0.167 0.00761 0.28303   -0.205885
 C 0.19 0.90358 0.28182   0.694105
 C 0.8897 0.60976 0.07524   0.17359
 C 0.827 0.60102 0.22508   0.151567
 C 0.7609 0.56992 0.02948   -0.196807
 C 0.6977 0.56157 0.18691   -0.195809
 C 0.6618 0.54849 0.08631   0.146388
 C 0.5222 0.50882 0.0465   -0.089033
 S 0.70493 0.2432 0.3652   0.131535
 S 0.80592 0.30664 0.0938   0.110304
 S 0.79507 0.6348 0.7568   0.131534
 S 0.69408 0.9062 0.69336   0.110305
 S 0.29507 0.7568 0.6348   0.131538
 S 0.19408 0.69336 0.9062   0.110308
 S 0.20493 0.3652 0.2432   0.131538
 S 0.30592 0.0938 0.30664   0.110309
 N 0.4218 0.1718 0.62756   -0.31066
 N 0.0782 0.37244 0.8282   -0.31066
 N 0.5782 0.8282 0.37244   -0.31066
 N 0.9218 0.62756 0.1718   -0.31066
 O 0.58778 0.27224 0.842   -0.585527
 O 0.81241 0.2904 0.88656   -0.589065
 O 0.71782 0.22704 0.56978   -0.611077
 O 0.91753 0.31717 0.62249   -0.583145
 O 0.91222 0.158 0.72776   -0.585527
 O 0.68759 0.11344 0.7096   -0.589066
 O 0.78218 0.43022 0.77296   -0.611078
 O 0.58247 0.37751 0.68283   -0.583145
 O 0.41222 0.72776 0.158   -0.585528
 O 0.18759 0.7096 0.11344   -0.589065
 O 0.28218 0.77296 0.43022   -0.611077
 O 0.08247 0.68283 0.37751   -0.583145
 O 0.08778 0.842 0.27224   -0.585528
 O 0.31241 0.88656 0.2904   -0.589066
 O 0.21782 0.56978 0.22704   -0.611078
 O 0.41753 0.62249 0.31717   -0.583145
