{'_ref': 'TBD', '_srcid': 'CAKYAQ_clean', 'submitters': [{'name': 'Dalar Nazarian Jeff Camp and David Sholl', 'email': 'dalar@gatech.edu jcamp6@gatech.edu'}], '_method': 'VASP DFT with PBE;DDEC'}
data_NiH18C24S2(N4O3)2
_symmetry_space_group_name_H-M   'P 1'
_cell_length_a   7.45300038
_cell_length_b   15.00320000
_cell_length_c   17.61200000
_cell_angle_alpha   90.00000000
_cell_angle_beta   91.29219734
_cell_angle_gamma   90.00000000
_symmetry_Int_Tables_number   1
_chemical_formula_structural   NiH18C24S2(N4O3)2
_chemical_formula_sum   'Ni2 H36 C48 S4 N16 O12'
_cell_volume   1968.85285126
_cell_formula_units_Z   2
loop_
 _symmetry_equiv_pos_site_id
 _symmetry_equiv_pos_as_xyz
  1  'x, y, z'
loop_
 _atom_site_label
 _atom_site_fract_x
 _atom_site_fract_y
 _atom_site_fract_z
 _atom_site_charge
 Ni 0.0 0.0 0.0   0.723515
 Ni 0.0 0.5 0.5   0.723515
 H 0.10563 0.86654 0.28209   0.107305
 H 0.47719 0.66993 0.29964   0.122283
 H 0.63383 0.73294 0.19925   0.124601
 H 0.41175 0.84021 0.02306   0.123419
 H 0.63892 0.9226 0.95029   0.272849
 H 0.77563 0.93946 0.1712   0.134941
 H 0.25616 0.59087 0.36233   0.118746
 H 0.91987 0.71962 0.49879   0.310267
 H 0.03538 0.82842 0.40609   0.128602
 H 0.89437 0.36654 0.21791   0.107305
 H 0.52281 0.16993 0.20036   0.122283
 H 0.36617 0.23294 0.30075   0.124601
 H 0.58825 0.34021 0.47694   0.123419
 H 0.36108 0.4226 0.54971   0.272849
 H 0.22437 0.43946 0.3288   0.134941
 H 0.74384 0.09087 0.13767   0.118746
 H 0.08013 0.21962 0.00121   0.310267
 H 0.96462 0.32842 0.09391   0.128602
 H 0.89437 0.13346 0.71791   0.107305
 H 0.52281 0.33007 0.70036   0.122283
 H 0.36617 0.26706 0.80075   0.1246
 H 0.58825 0.15979 0.97694   0.123419
 H 0.36108 0.0774 0.04971   0.272849
 H 0.22437 0.06054 0.8288   0.134941
 H 0.74384 0.40913 0.63767   0.118746
 H 0.08013 0.28038 0.50121   0.310266
 H 0.96462 0.17158 0.59391   0.1286
 H 0.10563 0.63346 0.78209   0.107305
 H 0.47719 0.83007 0.79964   0.122283
 H 0.63383 0.76706 0.69925   0.1246
 H 0.41175 0.65979 0.52306   0.123419
 H 0.63892 0.5774 0.45029   0.272849
 H 0.77563 0.56054 0.6712   0.134941
 H 0.25616 0.90913 0.86233   0.118746
 H 0.91987 0.78038 0.99879   0.310266
 H 0.03538 0.67158 0.90609   0.1286
 C 0.46277 0.83717 0.18104   0.129494
 C 0.30589 0.87685 0.20564   -0.228757
 C 0.21285 0.83942 0.26528   -0.062277
 C 0.27669 0.76231 0.3003   0.052562
 C 0.43357 0.72263 0.2757   -0.088502
 C 0.52661 0.76006 0.21606   -0.138254
 C 0.55983 0.87622 0.11883   -0.126523
 C 0.51344 0.87049 0.04386   -0.03125
 C 0.71324 0.92499 0.12521   0.043836
 C 0.17963 0.72326 0.36251   -0.084737
 C 0.18674 0.63652 0.38479   0.076926
 C 0.0655 0.76696 0.40882   -0.060704
 C 0.53723 0.33717 0.31896   0.129494
 C 0.69411 0.37685 0.29436   -0.228757
 C 0.78715 0.33942 0.23472   -0.062277
 C 0.72331 0.26231 0.1997   0.052562
 C 0.56643 0.22263 0.2243   -0.088502
 C 0.47339 0.26006 0.28394   -0.138254
 C 0.44017 0.37622 0.38117   -0.126523
 C 0.48656 0.37049 0.45614   -0.03125
 C 0.28676 0.42499 0.37479   0.043836
 C 0.82037 0.22326 0.13749   -0.084737
 C 0.81326 0.13652 0.11521   0.076926
 C 0.9345 0.26696 0.09118   -0.060704
 C 0.53723 0.16283 0.81896   0.129494
 C 0.69411 0.12315 0.79436   -0.228757
 C 0.78715 0.16058 0.73472   -0.062277
 C 0.72331 0.23769 0.6997   0.052562
 C 0.56643 0.27737 0.7243   -0.088502
 C 0.47339 0.23994 0.78394   -0.138255
 C 0.44017 0.12378 0.88117   -0.126523
 C 0.48656 0.12951 0.95614   -0.03125
 C 0.28676 0.07501 0.87479   0.043836
 C 0.82037 0.27674 0.63749   -0.084737
 C 0.81326 0.36348 0.61521   0.076926
 C 0.9345 0.23304 0.59118   -0.060704
 C 0.46277 0.66283 0.68104   0.129494
 C 0.30589 0.62315 0.70564   -0.228757
 C 0.21285 0.66058 0.76528   -0.062277
 C 0.27669 0.73769 0.8003   0.052562
 C 0.43357 0.77737 0.7757   -0.088502
 C 0.52661 0.73994 0.71606   -0.138255
 C 0.55983 0.62378 0.61883   -0.126523
 C 0.51344 0.62951 0.54386   -0.03125
 C 0.71324 0.57501 0.62521   0.043836
 C 0.17963 0.77674 0.86251   -0.084738
 C 0.18674 0.86348 0.88479   0.076926
 C 0.0655 0.73304 0.90882   -0.060704
 S 0.22461 0.97504 0.16104   1.274723
 S 0.77539 0.47504 0.33896   1.274723
 S 0.77539 0.02496 0.83896   1.274723
 S 0.22461 0.52496 0.66104   1.274723
 N 0.63817 0.91573 0.00391   -0.052201
 N 0.76166 0.94941 0.05418   -0.245113
 N 0.077 0.6266 0.44487   -0.21376
 N 0.00208 0.70721 0.45972   -0.089105
 N 0.36183 0.41573 0.49609   -0.052201
 N 0.23834 0.44941 0.44582   -0.245114
 N 0.923 0.1266 0.05513   -0.21376
 N 0.99792 0.20721 0.04028   -0.089105
 N 0.36183 0.08427 0.99609   -0.052201
 N 0.23834 0.05059 0.94582   -0.245113
 N 0.923 0.3734 0.55513   -0.21376
 N 0.99792 0.29279 0.54028   -0.089105
 N 0.63817 0.58427 0.50391   -0.052201
 N 0.76166 0.55059 0.55418   -0.245114
 N 0.077 0.8734 0.94487   -0.21376
 N 0.00208 0.79279 0.95972   -0.089105
 O 0.17871 0.95559 0.07816   -0.671212
 O 0.05743 0.00687 0.20081   -0.646906
 O 0.36794 0.04701 0.16596   -0.643007
 O 0.82129 0.45559 0.42184   -0.671212
 O 0.94257 0.50687 0.29919   -0.646906
 O 0.63206 0.54701 0.33404   -0.643007
 O 0.82129 0.04441 0.92184   -0.671212
 O 0.94257 0.99313 0.79919   -0.646906
 O 0.63206 0.95299 0.83404   -0.643007
 O 0.17871 0.54441 0.57816   -0.671212
 O 0.05743 0.49313 0.70081   -0.646906
 O 0.36794 0.45299 0.66596   -0.643007
