{'_ref': 'TBD', '_srcid': 'CAKYAQ_clean', 'submitters': [{'name': 'Dalar Nazarian Jeff Camp and David Sholl', 'email': 'dalar@gatech.edu jcamp6@gatech.edu'}], '_method': 'VASP DFT with PBE;DDEC'}
data_CuH12C11N2O3
_symmetry_space_group_name_H-M   'P 1'
_cell_length_a   14.52611733
_cell_length_b   14.52620005
_cell_length_c   14.52620000
_cell_angle_alpha   105.87870182
_cell_angle_beta   105.87875362
_cell_angle_gamma   116.92310022
_symmetry_Int_Tables_number   1
_chemical_formula_structural   CuH12C11N2O3
_chemical_formula_sum   'Cu8 H96 C88 N16 O24'
_cell_volume   2329.26275797
_cell_formula_units_Z   8
loop_
 _symmetry_equiv_pos_site_id
 _symmetry_equiv_pos_as_xyz
  1  'x, y, z'
loop_
 _atom_site_label
 _atom_site_fract_x
 _atom_site_fract_y
 _atom_site_fract_z
 _atom_site_charge
 Cu 0.09232 0.50452 0.58317   0.831125
 Cu 0.42135 0.50915 0.91683   0.831031
 Cu 0.90768 0.49548 0.41683   0.831126
 Cu 0.57865 0.49085 0.08317   0.831031
 Cu 0.50915 0.09232 0.0878   0.831049
 Cu 0.50452 0.42135 0.4122   0.831081
 Cu 0.49085 0.90768 0.9122   0.831049
 Cu 0.49548 0.57865 0.5878   0.831082
 H 0.119 0.7601 0.6041   0.085827
 H 0.2557 0.9328 0.5963   0.102133
 H 0.3566 0.0104 0.5096   0.086242
 H 0.3883 0.9008 0.3943   0.079566
 H 0.3265 0.7164 0.3675   0.101319
 H 0.2221 0.6342 0.4527   0.111247
 H 0.2662 0.5635 0.7921   0.093282
 H 0.0943 0.287 0.5707   0.069909
 H 0.9734 0.2551 0.5647   0.05945
 H 0.9648 0.395 0.6962   0.061256
 H 0.0802 0.5154 0.7854   0.061495
 H 0.0165 0.2245 0.7974   0.062931
 H 0.656 0.5149 0.8959   0.08581
 H 0.8365 0.6594 0.9037   0.102139
 H 0.000799999999998 0.847 0.9904   0.086232
 H 0.0065 0.994 0.1057   0.079569
 H 0.8489 0.959 0.1325   0.101319
 H 0.6815 0.7694 0.0473   0.111237
 H 0.2714 0.4741 0.7079   0.093302
 H 0.2163 0.5236 0.9293   0.069873
 H 0.1904 0.4087 0.9353   0.059444
 H 0.1988 0.2686 0.8038   0.061259
 H 0.23 0.2948 0.7146   0.061495
 H 0.9271 0.2191 0.7026   0.062926
 H 0.881 0.2399 0.3959   0.085828
 H 0.7443 0.0672 0.4037   0.102134
 H 0.6434 0.9896 0.4904   0.086243
 H 0.6117 0.0992 0.6057   0.079566
 H 0.6735 0.2836 0.6325   0.101322
 H 0.7779 0.3658 0.5473   0.111248
 H 0.7338 0.4365 0.2079   0.093282
 H 0.9057 0.713 0.4293   0.069909
 H 0.0266 0.7449 0.4353   0.05945
 H 0.0352 0.605 0.3038   0.061257
 H 0.9198 0.4846 0.2146   0.061495
 H 0.9835 0.7755 0.2026   0.062931
 H 0.344 0.4851 0.1041   0.085811
 H 0.1635 0.3406 0.0963   0.10214
 H 0.9992 0.153 0.0096   0.086233
 H 0.9935 0.006 0.8943   0.07957
 H 0.1511 0.041 0.8675   0.101322
 H 0.3185 0.2306 0.9527   0.111237
 H 0.7286 0.5259 0.2921   0.093302
 H 0.7837 0.4764 0.0707   0.069873
 H 0.8096 0.5913 0.0647   0.059444
 H 0.8012 0.7314 0.1962   0.061259
 H 0.77 0.7052 0.2854   0.061495
 H 0.0729 0.7809 0.2974   0.062926
 H 0.5149 0.119 0.8589   0.085815
 H 0.6594 0.2557 0.8229   0.102168
 H 0.847 0.3566 0.8462   0.086231
 H 0.994 0.3883 0.9875   0.079572
 H 0.959 0.3265 0.1101   0.101322
 H 0.7694 0.2221 0.0879   0.111248
 H 0.4741 0.2662 0.2027   0.093318
 H 0.5236 0.0943 0.3073   0.069902
 H 0.4087 0.9734 0.2183   0.059454
 H 0.2686 0.9648 0.0698   0.061269
 H 0.2948 0.0802 0.0648   0.061497
 H 0.2191 0.0165 0.292   0.062922
 H 0.7601 0.656 0.6411   0.085824
 H 0.9328 0.8365 0.6771   0.102143
 H 0.0104 0.000799999999998 0.6538   0.086221
 H 0.9008 0.0065 0.5125   0.079575
 H 0.7164 0.8489 0.3899   0.101325
 H 0.6342 0.6815 0.4121   0.111234
 H 0.5635 0.2714 0.2973   0.093322
 H 0.287 0.2163 0.1927   0.069883
 H 0.2551 0.1904 0.2817   0.059448
 H 0.395 0.1988 0.4302   0.061266
 H 0.5154 0.23 0.4352   0.061492
 H 0.2245 0.9271 0.208   0.06293
 H 0.4851 0.881 0.1411   0.085816
 H 0.3406 0.7443 0.1771   0.102169
 H 0.153 0.6434 0.1538   0.086232
 H 0.006 0.6117 0.0125   0.079573
 H 0.041 0.6735 0.8899   0.101325
 H 0.2306 0.7779 0.9121   0.111248
 H 0.5259 0.7338 0.7973   0.093318
 H 0.4764 0.9057 0.6927   0.069902
 H 0.5913 0.0266 0.7817   0.059454
 H 0.7314 0.0352 0.9302   0.061269
 H 0.7052 0.9198 0.9352   0.061497
 H 0.7809 0.9835 0.708   0.062922
 H 0.2399 0.344 0.3589   0.085825
 H 0.0672 0.1635 0.3229   0.102145
 H 0.9896 0.9992 0.3462   0.086223
 H 0.0992 0.9935 0.4875   0.079576
 H 0.2836 0.1511 0.6101   0.101328
 H 0.3658 0.3185 0.5879   0.111234
 H 0.4365 0.7286 0.7027   0.093322
 H 0.713 0.7837 0.8073   0.069883
 H 0.7449 0.8096 0.7183   0.059448
 H 0.605 0.8012 0.5698   0.061267
 H 0.4846 0.77 0.5648   0.061492
 H 0.7755 0.0729 0.792   0.06293
 C 0.24332 0.74299 0.69519   0.62495
 C 0.15747 0.72161 0.58806   0.070654
 C 0.22648 0.77458 0.5327   0.026467
 C 0.2686 0.8878 0.5494   -0.142107
 C 0.3291 0.9345 0.4978   -0.071363
 C 0.3485 0.8695 0.43   -0.086095
 C 0.3109 0.7593 0.4132   -0.085668
 C 0.24841 0.7099 0.46451   -0.120436
 C 0.0554 0.29598 0.61366   0.140357
 C 0.04697 0.4336 0.74299   0.12338
 C 0.5478 0.54813 0.80481   0.624982
 C 0.63355 0.56941 0.91194   0.070664
 C 0.74188 0.69378 0.9673   0.026443
 C 0.8384 0.7192 0.9506   -0.142116
 C 0.9367 0.8313 0.0022   -0.07135
 C 0.9395 0.9185 0.07   -0.086102
 C 0.8461 0.8977 0.0868   -0.085677
 C 0.74539 0.7839 0.03549   -0.1204
 C 0.18232 0.44174 0.88634   0.140442
 C 0.19061 0.30398 0.75701   0.123363
 C 0.75668 0.25701 0.30481   0.62495
 C 0.84253 0.27839 0.41194   0.070654
 C 0.77352 0.22542 0.4673   0.026467
 C 0.7314 0.1122 0.4506   -0.142107
 C 0.6709 0.0655 0.5022   -0.071364
 C 0.6515 0.1305 0.57   -0.086094
 C 0.6891 0.2407 0.5868   -0.085669
 C 0.75159 0.2901 0.53549   -0.120436
 C 0.9446 0.70402 0.38634   0.140357
 C 0.95303 0.5664 0.25701   0.12338
 C 0.4522 0.45187 0.19519   0.624982
 C 0.36645 0.43059 0.08806   0.070663
 C 0.25812 0.30622 0.0327   0.026443
 C 0.1616 0.2808 0.0494   -0.142116
 C 0.0633 0.1687 0.9978   -0.07135
 C 0.0605 0.0815 0.93   -0.086102
 C 0.1539 0.1023 0.9132   -0.085678
 C 0.25461 0.2161 0.96451   -0.1204
 C 0.81768 0.55826 0.11366   0.140442
 C 0.80939 0.69602 0.24299   0.123363
 C 0.2312 0.4812 0.75   0.103495
 C 0.0093 0.2593 0.75   0.154585
 C 0.7688 0.5188 0.25   0.103495
 C 0.9907 0.7407 0.25   0.154585
 C 0.54813 0.24332 0.000329999999998   0.624986
 C 0.56941 0.15747 0.93586   0.070656
 C 0.69378 0.22648 0.9519   0.026451
 C 0.7192 0.2686 0.8808   -0.142153
 C 0.8313 0.3291 0.8946   -0.071328
 C 0.9185 0.3485 0.979   -0.086119
 C 0.8977 0.3109 0.0516   -0.085626
 C 0.7839 0.24841 0.03851   -0.12045
 C 0.44174 0.0554 0.25942   0.140379
 C 0.30398 0.04697 0.11337   0.123381
 C 0.74299 0.5478 0.49967   0.624987
 C 0.72161 0.63355 0.56414   0.070637
 C 0.77458 0.74188 0.5481   0.026453
 C 0.8878 0.8384 0.6192   -0.142139
 C 0.9345 0.9367 0.6054   -0.071317
 C 0.8695 0.9395 0.521   -0.086129
 C 0.7593 0.8461 0.4484   -0.085668
 C 0.7099 0.74539 0.46149   -0.120396
 C 0.29598 0.18232 0.24058   0.140412
 C 0.4336 0.19061 0.38663   0.123392
 C 0.45187 0.75668 0.99967   0.624986
 C 0.43059 0.84253 0.06414   0.070656
 C 0.30622 0.77352 0.0481   0.026452
 C 0.2808 0.7314 0.1192   -0.142154
 C 0.1687 0.6709 0.1054   -0.071328
 C 0.0815 0.6515 0.021   -0.086118
 C 0.1023 0.6891 0.9484   -0.085627
 C 0.2161 0.75159 0.96149   -0.12045
 C 0.55826 0.9446 0.74058   0.140379
 C 0.69602 0.95303 0.88663   0.123381
 C 0.25701 0.4522 0.50033   0.624987
 C 0.27839 0.36645 0.43586   0.070637
 C 0.22542 0.25812 0.4519   0.026453
 C 0.1122 0.1616 0.3808   -0.142139
 C 0.0655 0.0633 0.3946   -0.071317
 C 0.1305 0.0605 0.479   -0.086129
 C 0.2407 0.1539 0.5516   -0.085669
 C 0.2901 0.25461 0.53851   -0.120396
 C 0.70402 0.81768 0.75942   0.140412
 C 0.5664 0.80939 0.61337   0.123392
 C 0.4812 0.2312 0.25   0.103431
 C 0.2593 0.0093 0.25   0.154618
 C 0.5188 0.7688 0.75   0.103431
 C 0.7407 0.9907 0.75   0.154618
 N 0.1061 0.42231 0.67545   -0.308822
 N 0.06763 0.24423 0.68494   -0.35026
 N 0.24686 0.43065 0.82455   -0.308792
 N 0.05929 0.38269 0.81506   -0.350321
 N 0.8939 0.57769 0.32455   -0.308822
 N 0.93237 0.75577 0.31506   -0.35026
 N 0.75314 0.56935 0.17545   -0.308792
 N 0.94071 0.61731 0.18494   -0.350321
 N 0.43065 0.1061 0.18379   -0.308801
 N 0.38269 0.06763 0.3234   -0.350311
 N 0.42231 0.24686 0.31621   -0.308836
 N 0.24423 0.05929 0.1766   -0.350302
 N 0.56935 0.8939 0.81621   -0.308801
 N 0.61731 0.93237 0.6766   -0.350311
 N 0.57769 0.75314 0.68379   -0.308836
 N 0.75577 0.94071 0.8234   -0.350302
 O 0.22651 0.65388 0.70405   -0.556088
 O 0.32437 0.8444 0.76483   -0.587797
 O 0.07312 0.60199 0.52309   -0.611996
 O 0.44983 0.52246 0.79595   -0.556078
 O 0.57957 0.55954 0.73517   -0.587835
 O 0.5789 0.55003 0.97691   -0.611928
 O 0.77349 0.34612 0.29595   -0.556088
 O 0.67563 0.1556 0.23517   -0.587797
 O 0.92688 0.39801 0.47691   -0.611996
 O 0.55017 0.47754 0.20405   -0.556078
 O 0.42043 0.44046 0.26483   -0.587835
 O 0.4211 0.44997 0.02309   -0.611928
 O 0.52246 0.22651 0.07263   -0.556075
 O 0.55954 0.32437 0.97997   -0.587822
 O 0.55003 0.07312 0.97113   -0.61194
 O 0.65388 0.44983 0.42737   -0.556096
 O 0.8444 0.57957 0.52003   -0.587828
 O 0.60199 0.5789 0.52887   -0.611943
 O 0.47754 0.77349 0.92737   -0.556075
 O 0.44046 0.67563 0.02003   -0.587822
 O 0.44997 0.92688 0.02887   -0.61194
 O 0.34612 0.55017 0.57263   -0.556096
 O 0.1556 0.42043 0.47997   -0.587828
 O 0.39801 0.4211 0.47113   -0.611943
