{'_ref': 'TBD', '_srcid': 'CAKYAQ_clean', 'submitters': [{'name': 'Dalar Nazarian Jeff Camp and David Sholl', 'email': 'dalar@gatech.edu jcamp6@gatech.edu'}], '_method': 'VASP DFT with PBE;DDEC'}
data_Yb(CO2)4
_symmetry_space_group_name_H-M   'P 1'
_cell_length_a   9.59150007
_cell_length_b   11.45200000
_cell_length_c   12.17800000
_cell_angle_alpha   90.00000000
_cell_angle_beta   98.95999923
_cell_angle_gamma   90.00000000
_symmetry_Int_Tables_number   1
_chemical_formula_structural   Yb(CO2)4
_chemical_formula_sum   'Yb4 C16 O32'
_cell_volume   1321.33118195
_cell_formula_units_Z   4
loop_
 _symmetry_equiv_pos_site_id
 _symmetry_equiv_pos_as_xyz
  1  'x, y, z'
loop_
 _atom_site_label
 _atom_site_fract_x
 _atom_site_fract_y
 _atom_site_fract_z
 _atom_site_charge
 Yb 0.78426 0.99016 0.16649   1.318616
 Yb 0.71574 0.49016 0.33351   1.318616
 Yb 0.21574 0.00984 0.83351   1.318617
 Yb 0.28426 0.50984 0.66649   1.318617
 C 0.8049 0.7164 0.2087   0.525468
 C 0.7 0.7607 0.284   0.536116
 C 0.9354 0.9993 0.9533   0.538931
 C 0.5029 0.0666 0.9987   0.533272
 C 0.6951 0.2164 0.2913   0.525468
 C 0.8 0.2607 0.216   0.536116
 C 0.5646 0.4993 0.5467   0.53893
 C 0.9971 0.5666 0.5013   0.533272
 C 0.1951 0.2836 0.7913   0.525467
 C 0.3 0.2393 0.716   0.536115
 C 0.0646 0.000700000000002 0.0467   0.538925
 C 0.4971 0.9334 0.0013   0.533266
 C 0.3049 0.7836 0.7087   0.525467
 C 0.2 0.7393 0.784   0.536114
 C 0.4354 0.5007 0.4533   0.538924
 C 0.0029 0.4334 0.4987   0.533266
 O 0.8628 0.7935 0.1578   -0.437805
 O 0.8247 0.6083 0.208   -0.414306
 O 0.687 0.8684 0.291   -0.419382
 O 0.637 0.6841 0.3312   -0.448343
 O 0.8175 0.9902 0.9791   -0.446091
 O 0.9673 0.006 0.8553   -0.405898
 O 0.6022 0.1137 0.0615   -0.430987
 O 0.4102 0.1178 0.9314   -0.449586
 O 0.6372 0.2935 0.3422   -0.437805
 O 0.6753 0.1083 0.292   -0.414305
 O 0.813 0.3684 0.209   -0.419381
 O 0.863 0.1841 0.1688   -0.448343
 O 0.6825 0.4902 0.5209   -0.446091
 O 0.5327 0.506 0.6447   -0.405898
 O 0.8978 0.6137 0.4385   -0.430987
 O 0.0898 0.6178 0.5686   -0.449586
 O 0.1372 0.2065 0.8422   -0.437805
 O 0.1753 0.3917 0.792   -0.414306
 O 0.313 0.1316 0.709   -0.419382
 O 0.363 0.3159 0.6688   -0.448343
 O 0.1825 0.0098 0.0209   -0.446091
 O 0.0327 0.994 0.1447   -0.405897
 O 0.3978 0.8863 0.9385   -0.430987
 O 0.5898 0.8822 0.0686   -0.449585
 O 0.3628 0.7065 0.6578   -0.437805
 O 0.3247 0.8917 0.708   -0.414305
 O 0.187 0.6316 0.791   -0.419381
 O 0.137 0.8159 0.8312   -0.448343
 O 0.3175 0.5098 0.4791   -0.446091
 O 0.4673 0.494 0.3553   -0.405897
 O 0.1022 0.3863 0.5615   -0.430987
 O 0.9102 0.3822 0.4314   -0.449585
