{'_ref': 'TBD', '_srcid': 'CAKYAQ_clean', 'submitters': [{'name': 'Dalar Nazarian Jeff Camp and David Sholl', 'email': 'dalar@gatech.edu jcamp6@gatech.edu'}], '_method': 'VASP DFT with PBE;DDEC'}
data_SmHC5(NO2)2
_symmetry_space_group_name_H-M   'P 1'
_cell_length_a   16.22599964
_cell_length_b   16.56410005
_cell_length_c   16.56410000
_cell_angle_alpha   76.11949918
_cell_angle_beta   60.67299889
_cell_angle_gamma   60.67299911
_symmetry_Int_Tables_number   1
_chemical_formula_structural   SmHC5(NO2)2
_chemical_formula_sum   'Sm16 H16 C80 N32 O64'
_cell_volume   3383.91377476
_cell_formula_units_Z   16
loop_
 _symmetry_equiv_pos_site_id
 _symmetry_equiv_pos_as_xyz
  1  'x, y, z'
loop_
 _atom_site_label
 _atom_site_fract_x
 _atom_site_fract_y
 _atom_site_fract_z
 _atom_site_charge
 Sm 0.70511 0.53254 0.3798   2.246882
 Sm 0.62595 0.88674 0.02394   2.268802
 Sm 0.11745 0.96746 0.12021   2.246892
 Sm 0.03663 0.61326 0.47606   2.2688
 Sm 0.08492 0.6202 0.03253   2.246927
 Sm 0.64989 0.97606 0.38674   2.268803
 Sm 0.23765 0.8798 0.46746   2.246884
 Sm 0.51269 0.52394 0.11326   2.268797
 Sm 0.29489 0.46746 0.6202   2.246868
 Sm 0.37405 0.11326 0.97606   2.268802
 Sm 0.88255 0.03254 0.87979   2.246878
 Sm 0.96337 0.38674 0.52394   2.268798
 Sm 0.91509 0.37979 0.96747   2.246885
 Sm 0.35011 0.02394 0.61326   2.268799
 Sm 0.76234 0.12021 0.53254   2.246878
 Sm 0.48731 0.47606 0.88674   2.268798
 H 0.5586 0.7486 0.2532   0.033309
 H 0.5834 0.7823 0.4003   0.037874
 H 0.0604 0.7514 0.2468   0.033311
 H 0.266 0.7177 0.0997   0.037872
 H 0.8118 0.7468 0.2486   0.033308
 H 0.9837 0.5997 0.2823   0.037879
 H 0.3072 0.7532 0.2514   0.033308
 H 0.3657 0.9003 0.2177   0.03787
 H 0.4414 0.2514 0.7468   0.033306
 H 0.4166 0.2177 0.5997   0.037872
 H 0.9396 0.2486 0.7532   0.033309
 H 0.734 0.2823 0.9003   0.037873
 H 0.1882 0.2532 0.7514   0.03331
 H 0.0163 0.4003 0.7177   0.037876
 H 0.6928 0.2468 0.7486   0.033311
 H 0.6343 0.0997 0.7823   0.03787
 C 0.6312 0.7226 0.2172   0.400884
 C 0.7826 0.7027 0.1063   0.014624
 C 0.7948 0.6325 0.1705   -0.030822
 C 0.8555 0.7239 0.0159   0.778237
 C 0.8868 0.5524 0.179   0.752427
 C 0.6397 0.7591 0.4147   0.427837
 C 0.7721 0.6637 0.4429   0.026027
 C 0.7519 0.7535 0.4517   0.042383
 C 0.8489 0.5705 0.4531   0.735373
 C 0.8054 0.794 0.4694   0.750636
 C 0.071 0.7774 0.2828   0.400901
 C 0.0916 0.7973 0.3937   0.014613
 C 0.0978 0.8675 0.3295   -0.030853
 C 0.0953 0.7761 0.4841   0.778241
 C 0.1182 0.9476 0.321   0.752435
 C 0.3135 0.7409 0.0853   0.427829
 C 0.3787 0.8363 0.0571   0.026041
 C 0.4571 0.7465 0.0483   0.042373
 C 0.3725 0.9295 0.0469   0.735373
 C 0.5688 0.706 0.0306   0.750638
 C 0.8484 0.7828 0.2226   0.40089
 C 0.8889 0.8937 0.2027   0.014612
 C 0.9653 0.8295 0.1325   -0.030842
 C 0.8714 0.9841 0.2239   0.778239
 C 0.0658 0.821 0.0524   0.752439
 C 0.0544 0.5853 0.2591   0.427843
 C 0.215 0.5571 0.1637   0.026032
 C 0.2036 0.5483 0.2535   0.042379
 C 0.302 0.5469 0.0705   0.735375
 C 0.2748 0.5306 0.294   0.75064
 C 0.3538 0.7172 0.2774   0.400884
 C 0.4853 0.6063 0.2973   0.014624
 C 0.4273 0.6705 0.3675   -0.030845
 C 0.5794 0.5159 0.2761   0.778224
 C 0.4392 0.679 0.4476   0.752424
 C 0.3988 0.9147 0.2409   0.427838
 C 0.4358 0.9429 0.3363   0.02603
 C 0.5054 0.9517 0.2465   0.042381
 C 0.4194 0.9531 0.4295   0.735372
 C 0.5994 0.9694 0.206   0.750641
 C 0.3688 0.2774 0.7828   0.400885
 C 0.2174 0.2973 0.8937   0.014614
 C 0.2052 0.3675 0.8295   -0.030825
 C 0.1445 0.2761 0.9841   0.778226
 C 0.1132 0.4476 0.821   0.752419
 C 0.3603 0.2409 0.5853   0.427835
 C 0.2279 0.3363 0.5571   0.026031
 C 0.2481 0.2465 0.5483   0.042381
 C 0.1511 0.4295 0.5469   0.735372
 C 0.1946 0.206 0.5306   0.750639
 C 0.929 0.2226 0.7172   0.400899
 C 0.9084 0.2027 0.6063   0.014606
 C 0.9022 0.1325 0.6705   -0.030852
 C 0.9047 0.2239 0.5159   0.778238
 C 0.8818 0.0524 0.679   0.752417
 C 0.6865 0.2591 0.9147   0.42783
 C 0.6213 0.1637 0.9429   0.026044
 C 0.5429 0.2535 0.9517   0.042367
 C 0.6275 0.0705 0.9531   0.735371
 C 0.4312 0.294 0.9694   0.750645
 C 0.1516 0.2172 0.7774   0.400893
 C 0.1111 0.1063 0.7973   0.014621
 C 0.0347 0.1705 0.8675   -0.030845
 C 0.1286 0.0159 0.7761   0.778236
 C 0.9342 0.179 0.9476   0.75243
 C 0.9456 0.4147 0.7409   0.427825
 C 0.785 0.4429 0.8363   0.026031
 C 0.7964 0.4517 0.7465   0.042371
 C 0.698 0.4531 0.9295   0.735381
 C 0.7252 0.4694 0.706   0.750645
 C 0.6462 0.2828 0.7226   0.400894
 C 0.5147 0.3937 0.7027   0.014634
 C 0.5727 0.3295 0.6325   -0.030859
 C 0.4206 0.4841 0.7239   0.778221
 C 0.5608 0.321 0.5524   0.752426
 C 0.6012 0.0853 0.7591   0.427839
 C 0.5642 0.0571 0.6637   0.02603
 C 0.4946 0.0483 0.7535   0.04238
 C 0.5806 0.0469 0.5705   0.735375
 C 0.4006 0.0306 0.794   0.750642
 N 0.6971 0.6453 0.2417   -0.612703
 N 0.6772 0.7603 0.1365   -0.577551
 N 0.6681 0.8133 0.4329   -0.616911
 N 0.6995 0.6681 0.4189   -0.648068
 N 0.0841 0.8547 0.2583   -0.612698
 N 0.074 0.7397 0.3635   -0.577538
 N 0.4143 0.6867 0.0671   -0.616901
 N 0.2865 0.8319 0.0811   -0.648073
 N 0.9388 0.7583 0.1453   -0.612684
 N 0.8137 0.8635 0.2603   -0.577554
 N 0.101 0.5671 0.3133   -0.61691
 N 0.1184 0.5811 0.1681   -0.648077
 N 0.3424 0.7417 0.3547   -0.612688
 N 0.4375 0.6365 0.2397   -0.577538
 N 0.4814 0.9329 0.1867   -0.61691
 N 0.3676 0.9189 0.3319   -0.648074
 N 0.3029 0.3547 0.7583   -0.612702
 N 0.3228 0.2397 0.8635   -0.577547
 N 0.3319 0.1867 0.5671   -0.616909
 N 0.3005 0.3319 0.5811   -0.648071
 N 0.9159 0.1453 0.7417   -0.612702
 N 0.926 0.2603 0.6365   -0.577537
 N 0.5857 0.3133 0.9329   -0.616899
 N 0.7135 0.1681 0.9189   -0.64807
 N 0.0612 0.2417 0.8547   -0.612706
 N 0.1863 0.1365 0.7397   -0.577549
 N 0.899 0.4329 0.6867   -0.616915
 N 0.8816 0.4189 0.8319   -0.648038
 N 0.6576 0.2583 0.6453   -0.612693
 N 0.5625 0.3635 0.7603   -0.577533
 N 0.5186 0.0671 0.8133   -0.616909
 N 0.6324 0.0811 0.6681   -0.648074
 O 0.8674 0.4928 0.2412   -0.719813
 O 0.977 0.5457 0.1289   -0.747928
 O 0.9531 0.6784 0.9834   -0.776501
 O 0.8119 0.79239 0.97201   -0.731262
 O 0.84746 0.50223 0.43245   -0.765517
 O 0.91268 0.55585 0.48499   -0.84625
 O 0.8761 0.7439 0.4945   -0.752484
 O 0.7729 0.8808 0.4576   -0.689493
 O 0.1014 0.0072 0.2588   -0.719812
 O 0.1516 0.9543 0.3711   -0.747911
 O 0.1149 0.8216 0.5166   -0.776495
 O 0.0763 0.70761 0.52799   -0.731256
 O 0.28214 0.99777 0.06755   -0.765545
 O 0.45352 0.94415 0.01501   -0.846245
 O 0.6145 0.7561 0.0055   -0.752481
 O 0.6113 0.6192 0.0424   -0.689493
 O 0.1086 0.7588 0.9928   -0.71983
 O 0.1059 0.8711 0.0457   -0.747895
 O 0.9365 0.0166 0.1784   -0.776498
 O 0.78391 0.02799 0.29239   -0.73127
 O 0.27991 0.56755 0.00223   -0.765544
 O 0.39767 0.51501 0.05585   -0.846245
 O 0.3706 0.5055 0.2439   -0.752485
 O 0.2305 0.5424 0.3808   -0.689505
 O 0.3602 0.7412 0.5072   -0.719795
 O 0.5227 0.6289 0.4543   -0.747922
 O 0.6315 0.4834 0.3216   -0.776493
 O 0.60429 0.47201 0.20761   -0.73126
 O 0.34969 0.93245 0.49777   -0.765523
 O 0.46853 0.98499 0.44415   -0.846247
 O 0.62 0.9945 0.2561   -0.752483
 O 0.6537 0.9576 0.1192   -0.689492
 O 0.1326 0.5072 0.7588   -0.719807
 O 0.023 0.4543 0.8711   -0.747911
 O 0.0469 0.3216 0.0166   -0.776493
 O 0.1881 0.20761 0.02799   -0.731251
 O 0.15254 0.49777 0.56755   -0.765515
 O 0.08732 0.44415 0.51501   -0.846248
 O 0.1239 0.2561 0.5055   -0.752483
 O 0.2271 0.1192 0.5424   -0.689502
 O 0.8986 0.9928 0.7412   -0.719818
 O 0.8484 0.0457 0.6289   -0.747889
 O 0.8851 0.1784 0.4834   -0.7765
 O 0.9237 0.29239 0.47201   -0.731262
 O 0.71786 0.00223 0.93245   -0.765537
 O 0.54648 0.05585 0.98499   -0.846245
 O 0.3855 0.2439 0.9945   -0.752483
 O 0.3887 0.3808 0.9576   -0.689508
 O 0.8914 0.2412 0.0072   -0.719822
 O 0.8941 0.1289 0.9543   -0.747885
 O 0.0635 0.9834 0.8216   -0.776491
 O 0.21609 0.97201 0.70761   -0.731267
 O 0.72009 0.43245 0.99777   -0.765546
 O 0.60233 0.48499 0.94415   -0.846258
 O 0.6294 0.4945 0.7561   -0.75249
 O 0.7695 0.4576 0.6192   -0.689509
 O 0.6398 0.2588 0.4928   -0.719809
 O 0.4773 0.3711 0.5457   -0.747906
 O 0.3685 0.5166 0.6784   -0.776485
 O 0.39571 0.52799 0.79239   -0.73126
 O 0.65031 0.06755 0.50223   -0.765545
 O 0.53147 0.01501 0.55585   -0.846243
 O 0.38 0.0055 0.7439   -0.75248
 O 0.3463 0.0424 0.8808   -0.689493
