{'_ref': 'TBD', '_srcid': 'CAKYAQ_clean', 'submitters': [{'name': 'Dalar Nazarian Jeff Camp and David Sholl', 'email': 'dalar@gatech.edu jcamp6@gatech.edu'}], '_method': 'VASP DFT with PBE;DDEC'}
data_Dy(CO2)4
_symmetry_space_group_name_H-M   'P 1'
_cell_length_a   9.63149986
_cell_length_b   11.61300000
_cell_length_c   12.21700000
_cell_angle_alpha   90.00000000
_cell_angle_beta   99.13000143
_cell_angle_gamma   90.00000000
_symmetry_Int_Tables_number   1
_chemical_formula_structural   Dy(CO2)4
_chemical_formula_sum   'Dy4 C16 O32'
_cell_volume   1349.16675855
_cell_formula_units_Z   4
loop_
 _symmetry_equiv_pos_site_id
 _symmetry_equiv_pos_as_xyz
  1  'x, y, z'
loop_
 _atom_site_label
 _atom_site_fract_x
 _atom_site_fract_y
 _atom_site_fract_z
 _atom_site_charge
 Dy 0.7853 0.48689 0.1676   2.156129
 Dy 0.7147 0.98689 0.3324   2.156131
 Dy 0.2147 0.51311 0.8324   2.156123
 Dy 0.2853 0.01312 0.6676   2.156109
 C 0.7004 0.257 0.283   0.581793
 C 0.8029 0.2129 0.2069   0.562353
 C 0.5044 0.5664 0.9989   0.580767
 C 0.063 0.4999 0.0478   0.59423
 C 0.7996 0.757 0.217   0.581792
 C 0.6971 0.7129 0.2931   0.562351
 C 0.9956 0.0664 0.5011   0.580784
 C 0.437 0.9999 0.4522   0.59424
 C 0.2996 0.743 0.717   0.58179
 C 0.1971 0.7871 0.7931   0.562357
 C 0.4956 0.4336 0.0011   0.580765
 C 0.937 0.5001 0.9522   0.594229
 C 0.2004 0.243 0.783   0.581767
 C 0.3029 0.2871 0.7069   0.562348
 C 0.0044 0.9336 0.4989   0.580755
 C 0.563 0.000100000000003 0.5478   0.594233
 O 0.6901 0.3632 0.2928   -0.560529
 O 0.6352 0.1818 0.3288   -0.568744
 O 0.8613 0.2878 0.156   -0.549745
 O 0.8203 0.1062 0.2036   -0.55137
 O 0.6027 0.6115 0.064   -0.553952
 O 0.4132 0.618 0.9328   -0.567372
 O 0.0328 0.4897 0.1434   -0.556888
 O 0.1822 0.5116 0.0223   -0.566677
 O 0.8099 0.8632 0.2072   -0.560525
 O 0.8648 0.6818 0.1712   -0.568738
 O 0.6387 0.7878 0.344   -0.549739
 O 0.6797 0.6062 0.2964   -0.551364
 O 0.8973 0.1115 0.436   -0.553948
 O 0.0868 0.118 0.5672   -0.567405
 O 0.4672 0.9897 0.3566   -0.556886
 O 0.3178 0.0116 0.4777   -0.566699
 O 0.3099 0.6368 0.7072   -0.56052
 O 0.3648 0.8182 0.6712   -0.568719
 O 0.1387 0.7122 0.844   -0.549736
 O 0.1797 0.8938 0.7964   -0.551354
 O 0.3973 0.3885 0.936   -0.553948
 O 0.5868 0.382 0.0672   -0.567373
 O 0.9672 0.5103 0.8566   -0.556886
 O 0.8178 0.4884 0.9777   -0.566677
 O 0.1901 0.1368 0.7928   -0.5605
 O 0.1352 0.3182 0.8288   -0.568747
 O 0.3613 0.2122 0.656   -0.549759
 O 0.3203 0.3938 0.7036   -0.551377
 O 0.1027 0.8885 0.564   -0.553933
 O 0.9132 0.882 0.4328   -0.567375
 O 0.5328 0.0103 0.6434   -0.556881
 O 0.6822 0.9884 0.5223   -0.566685
