{'_ref': 'TBD', '_srcid': 'CAKYAQ_clean', 'submitters': [{'name': 'Dalar Nazarian Jeff Camp and David Sholl', 'email': 'dalar@gatech.edu jcamp6@gatech.edu'}], '_method': 'VASP DFT with PBE;DDEC'}
data_Ho(CO2)4
_symmetry_space_group_name_H-M   'P 1'
_cell_length_a   9.62050029
_cell_length_b   11.56400000
_cell_length_c   12.22900000
_cell_angle_alpha   90.00000000
_cell_angle_beta   99.03999918
_cell_angle_gamma   90.00000000
_symmetry_Int_Tables_number   1
_chemical_formula_structural   Ho(CO2)4
_chemical_formula_sum   'Ho4 C16 O32'
_cell_volume   1343.5953224
_cell_formula_units_Z   4
loop_
 _symmetry_equiv_pos_site_id
 _symmetry_equiv_pos_as_xyz
  1  'x, y, z'
loop_
 _atom_site_label
 _atom_site_fract_x
 _atom_site_fract_y
 _atom_site_fract_z
 _atom_site_charge
 Ho 0.78498 0.51238 0.16715   2.13524
 Ho 0.71502 0.01238 0.33285   2.13524
 Ho 0.21502 0.48762 0.83285   2.135239
 Ho 0.28498 0.98762 0.66715   2.135239
 C 0.701 0.7429 0.283   0.566278
 C 0.5042 0.4338 0.9986   0.572961
 C 0.8033 0.786 0.2077   0.553004
 C 0.0627 0.4999 0.0477   0.58481
 C 0.799 0.2429 0.217   0.566278
 C 0.9958 0.9338 0.5014   0.572961
 C 0.6967 0.286 0.2923   0.553004
 C 0.4373 0.9999 0.4523   0.58481
 C 0.299 0.2571 0.717   0.566278
 C 0.4958 0.5662 0.0014   0.572948
 C 0.1967 0.214 0.7923   0.553004
 C 0.9373 0.5001 0.9523   0.584813
 C 0.201 0.7571 0.783   0.566278
 C 0.0042 0.0662 0.4986   0.572948
 C 0.3033 0.714 0.7077   0.553004
 C 0.5627 0.000100000000003 0.5477   0.584812
 O 0.6887 0.6354 0.2925   -0.550966
 O 0.6356 0.8179 0.3293   -0.55822
 O 0.603 0.3878 0.0627   -0.5521
 O 0.4122 0.3821 0.9329   -0.559596
 O 0.8213 0.8934 0.2045   -0.541615
 O 0.8618 0.7108 0.1563   -0.547533
 O 0.1821 0.4887 0.0221   -0.549632
 O 0.0326 0.5093 0.1435   -0.552626
 O 0.8113 0.1354 0.2075   -0.550966
 O 0.8644 0.3179 0.1707   -0.55822
 O 0.897 0.8878 0.4373   -0.5521
 O 0.0878 0.8821 0.5671   -0.559596
 O 0.6787 0.3934 0.2955   -0.541615
 O 0.6382 0.2108 0.3437   -0.547533
 O 0.3179 0.9887 0.4779   -0.549632
 O 0.4674 0.0093 0.3565   -0.552626
 O 0.3113 0.3646 0.7075   -0.550966
 O 0.3644 0.1821 0.6707   -0.55822
 O 0.397 0.6122 0.9373   -0.552099
 O 0.5878 0.6179 0.0671   -0.559595
 O 0.1787 0.1066 0.7955   -0.541615
 O 0.1382 0.2892 0.8437   -0.547533
 O 0.8179 0.5113 0.9779   -0.549632
 O 0.9674 0.4907 0.8565   -0.552627
 O 0.1887 0.8646 0.7925   -0.550966
 O 0.1356 0.6821 0.8293   -0.55822
 O 0.103 0.1122 0.5627   -0.552099
 O 0.9122 0.1179 0.4329   -0.559595
 O 0.3213 0.6066 0.7045   -0.541615
 O 0.3618 0.7892 0.6563   -0.547533
 O 0.6821 0.0113 0.5221   -0.549632
 O 0.5326 0.9907 0.6435   -0.552627
