{'_ref': 'TBD', '_srcid': 'CAKYAQ_clean', 'submitters': [{'name': 'Dalar Nazarian Jeff Camp and David Sholl', 'email': 'dalar@gatech.edu jcamp6@gatech.edu'}], '_method': 'VASP DFT with PBE;DDEC'}
data_Zn3H26C28S2(N3O2)6
_symmetry_space_group_name_H-M   'P 1'
_cell_length_a   8.91000001
_cell_length_b   12.00700004
_cell_length_c   12.52600000
_cell_angle_alpha   77.70799912
_cell_angle_beta   76.62899720
_cell_angle_gamma   76.37799927
_symmetry_Int_Tables_number   1
_chemical_formula_structural   Zn3H26C28S2(N3O2)6
_chemical_formula_sum   'Zn3 H26 C28 S2 N18 O12'
_cell_volume   1249.14962861
_cell_formula_units_Z   1
loop_
 _symmetry_equiv_pos_site_id
 _symmetry_equiv_pos_as_xyz
  1  'x, y, z'
loop_
 _atom_site_label
 _atom_site_fract_x
 _atom_site_fract_y
 _atom_site_fract_z
 _atom_site_charge
 Zn 0.28638 0.74675 0.90393   0.922008
 Zn 0.71362 0.25325 0.09607   0.922008
 Zn 0.0 0.0 0.0   1.047692
 H 0.0204 0.4001 0.2641   0.112433
 H 0.8947 0.516 0.2549   0.108979
 H 0.0232 0.6047 0.0551   0.110838
 H 0.4272 0.6112 0.1178   0.098408
 H 0.7663 0.6493 0.3217   0.112705
 H 0.7284 0.7264 0.4148   0.105316
 H 0.8011 0.8235 0.1594   0.122547
 H 0.1572 0.9074 0.2245   0.103458
 H 0.1099 0.2709 0.3652   0.13237
 H 0.1765 0.2246 0.4753   0.120358
 H 0.3444 0.2542 0.2009   0.119071
 H 0.6529 0.3385 0.3266   0.097203
 H 0.3504 0.0652 0.0075   0.133623
 H 0.9796 0.5999 0.7359   0.112433
 H 0.1053 0.484 0.7451   0.108979
 H 0.9768 0.3953 0.9449   0.110839
 H 0.5728 0.3888 0.8822   0.098408
 H 0.2337 0.3507 0.6783   0.112705
 H 0.2716 0.2736 0.5852   0.105319
 H 0.1989 0.1765 0.8406   0.122548
 H 0.8428 0.0926 0.7755   0.103458
 H 0.8901 0.7291 0.6348   0.13237
 H 0.8235 0.7754 0.5247   0.120361
 H 0.6556 0.7458 0.7991   0.119071
 H 0.3471 0.6615 0.6734   0.097203
 H 0.6496 0.9348 0.9925   0.133618
 C 0.9983 0.4901 0.3908   -0.015516
 C 0.913 0.5897 0.4346   -0.002461
 C 0.0831 0.3995 0.4569   0.013421
 C 0.9982 0.4813 0.2719   -0.075823
 C 0.1083 0.5946 0.0898   0.179593
 C 0.3269 0.5967 0.1255   0.281847
 C 0.813 0.6845 0.3655   -0.080686
 C 0.8807 0.8278 0.1942   0.130506
 C 0.0723 0.8724 0.2306   0.301558
 C 0.1698 0.2883 0.4131   -0.086663
 C 0.3942 0.2758 0.2487   0.193421
 C 0.5595 0.3218 0.3188   0.29567
 C 0.3853 0.8974 0.9718   0.661171
 C 0.4281 0.9996 0.9965   -0.17476
 C 0.0017 0.5099 0.6092   -0.015517
 C 0.087 0.4103 0.5654   -0.002455
 C 0.9169 0.6005 0.5431   0.013426
 C 0.0018 0.5187 0.7281   -0.075823
 C 0.8917 0.4054 0.9102   0.179593
 C 0.6731 0.4033 0.8745   0.281847
 C 0.187 0.3155 0.6345   -0.080688
 C 0.1193 0.1722 0.8058   0.130506
 C 0.9277 0.1276 0.7694   0.301558
 C 0.8302 0.7117 0.5869   -0.086665
 C 0.6058 0.7242 0.7513   0.193422
 C 0.4405 0.6782 0.6812   0.29567
 C 0.6147 0.1026 0.0282   0.661165
 C 0.5719 0.000399999999999 0.0035   -0.174697
 S 0.94677 0.7998 0.85999   1.682528
 S 0.05323 0.2002 0.14001   1.682527
 N 0.242 0.6328 0.0436   -0.438628
 N 0.1161 0.5403 0.1923   0.17235
 N 0.2564 0.5398 0.2162   -0.367395
 N 0.9841 0.8963 0.153   -0.399925
 N 0.9056 0.7666 0.2908   0.164959
 N 0.0284 0.7943 0.3173   -0.393166
 N 0.5418 0.2907 0.2253   -0.440023
 N 0.3286 0.2962 0.3505   0.170518
 N 0.4337 0.3262 0.3972   -0.397162
 N 0.758 0.3672 0.9564   -0.438628
 N 0.8839 0.4597 0.8077   0.17235
 N 0.7436 0.4602 0.7838   -0.367395
 N 0.0159 0.1037 0.847   -0.399925
 N 0.0944 0.2334 0.7092   0.164959
 N 0.9716 0.2057 0.6827   -0.393166
 N 0.4582 0.7093 0.7747   -0.440023
 N 0.6714 0.7038 0.6495   0.170518
 N 0.5663 0.6738 0.6028   -0.397162
 O 0.1183 0.7607 0.8203   -0.788873
 O 0.9268 0.8686 0.9474   -0.796442
 O 0.8749 0.6989 0.9045   -0.769098
 O 0.8783 0.8686 0.7663   -0.758302
 O 0.2486 0.9086 0.9474   -0.632061
 O 0.4786 0.8028 0.9713   -0.553754
 O 0.8817 0.2393 0.1797   -0.788873
 O 0.0732 0.1314 0.0526   -0.796442
 O 0.1251 0.3011 0.0955   -0.769098
 O 0.1217 0.1314 0.2337   -0.758302
 O 0.7514 0.0914 0.0526   -0.632061
 O 0.5214 0.1972 0.0287   -0.553753
