{'_ref': 'TBD', '_srcid': 'CAKYAQ_clean', 'submitters': [{'name': 'Dalar Nazarian Jeff Camp and David Sholl', 'email': 'dalar@gatech.edu jcamp6@gatech.edu'}], '_method': 'VASP DFT with PBE;DDEC'}
data_CuH8(C2O)5
_symmetry_space_group_name_H-M   'P 1'
_cell_length_a   8.72120000
_cell_length_b   21.76960000
_cell_length_c   21.76960032
_cell_angle_alpha   119.99999951
_cell_angle_beta   90.00000000
_cell_angle_gamma   90.00000000
_symmetry_Int_Tables_number   1
_chemical_formula_structural   CuH8(C2O)5
_chemical_formula_sum   'Cu12 H96 C120 O60'
_cell_volume   3579.3798168
_cell_formula_units_Z   12
loop_
 _symmetry_equiv_pos_site_id
 _symmetry_equiv_pos_as_xyz
  1  'x, y, z'
loop_
 _atom_site_label
 _atom_site_fract_x
 _atom_site_fract_y
 _atom_site_fract_z
 _atom_site_charge
 Cu 0.3989 0.46932 0.41708   1.021655
 Cu 0.3989 0.58292 0.05224   1.021655
 Cu 0.3989 0.94776 0.53068   1.021655
 Cu 0.1011 0.41708 0.46932   1.021655
 Cu 0.1011 0.53068 0.94776   1.021655
 Cu 0.1011 0.05224 0.58292   1.021655
 Cu 0.6011 0.53068 0.58292   1.021655
 Cu 0.6011 0.41708 0.94776   1.021655
 Cu 0.6011 0.05224 0.46932   1.021655
 Cu 0.8989 0.58292 0.53068   1.021655
 Cu 0.8989 0.46932 0.05224   1.021655
 Cu 0.8989 0.94776 0.41708   1.021655
 H 0.8907 0.3353 0.0877   0.136684
 H 0.8907 0.9123 0.2476   0.136684
 H 0.8907 0.7524 0.6647   0.136684
 H 0.6093 0.0877 0.3353   0.136684
 H 0.6093 0.6647 0.7524   0.136684
 H 0.6093 0.2476 0.9123   0.136684
 H 0.1093 0.6647 0.9123   0.136684
 H 0.1093 0.0877 0.7524   0.136684
 H 0.1093 0.2476 0.3353   0.136684
 H 0.3907 0.9123 0.6647   0.136684
 H 0.3907 0.3353 0.2476   0.136684
 H 0.3907 0.7524 0.0877   0.136684
 H 0.265 0.4601 0.1537   0.093547
 H 0.265 0.8463 0.3064   0.093547
 H 0.265 0.6936 0.5399   0.093547
 H 0.235 0.1537 0.4601   0.093547
 H 0.235 0.5399 0.6936   0.093547
 H 0.235 0.3064 0.8463   0.093547
 H 0.735 0.5399 0.8463   0.093547
 H 0.735 0.1537 0.6936   0.093547
 H 0.735 0.3064 0.4601   0.093547
 H 0.765 0.8463 0.5399   0.093547
 H 0.765 0.4601 0.3064   0.093547
 H 0.765 0.6936 0.1537   0.093547
 H 0.1652 0.5282 0.1993   0.105353
 H 0.1652 0.8007 0.3289   0.105353
 H 0.1652 0.6711 0.4718   0.105354
 H 0.3348 0.1993 0.5282   0.105353
 H 0.3348 0.4718 0.6711   0.105353
 H 0.3348 0.3289 0.8007   0.105354
 H 0.8348 0.4718 0.8007   0.105354
 H 0.8348 0.1993 0.6711   0.105354
 H 0.8348 0.3289 0.5282   0.105354
 H 0.6652 0.8007 0.4718   0.105354
 H 0.6652 0.5282 0.3289   0.105354
 H 0.6652 0.6711 0.1993   0.105354
 H 0.9125 0.305 0.2547   0.121758
 H 0.9125 0.7453 0.0503   0.121758
 H 0.9125 0.9497 0.695   0.121758
 H 0.5875 0.2547 0.305   0.121757
 H 0.5875 0.695 0.9497   0.121758
 H 0.5875 0.0503 0.7453   0.121758
 H 0.0875 0.695 0.7453   0.121758
 H 0.0875 0.2547 0.9497   0.121758
 H 0.0875 0.0503 0.305   0.121758
 H 0.4125 0.7453 0.695   0.121757
 H 0.4125 0.305 0.0503   0.121758
 H 0.4125 0.9497 0.2547   0.121758
 H 0.7876 0.227 0.0757   0.115
 H 0.7876 0.9243 0.1513   0.115
 H 0.7876 0.8487 0.773   0.115
 H 0.7124 0.0757 0.227   0.115
 H 0.7124 0.773 0.8487   0.115
 H 0.7124 0.1513 0.9243   0.115
 H 0.2124 0.773 0.9243   0.115
 H 0.2124 0.0757 0.8487   0.115
 H 0.2124 0.1513 0.227   0.115
 H 0.2876 0.9243 0.773   0.115
 H 0.2876 0.227 0.1513   0.115
 H 0.2876 0.8487 0.0757   0.115
 H 0.6847 0.2536 0.1433   0.114113
 H 0.6847 0.8567 0.1103   0.114113
 H 0.6847 0.8897 0.7464   0.114113
 H 0.8153 0.1433 0.2536   0.114113
 H 0.8153 0.7464 0.8897   0.114113
 H 0.8153 0.1103 0.8567   0.114113
 H 0.3153 0.7464 0.8567   0.114113
 H 0.3153 0.1433 0.8897   0.114113
 H 0.3153 0.1103 0.2536   0.114113
 H 0.1847 0.8567 0.7464   0.114113
 H 0.1847 0.2536 0.1103   0.114113
 H 0.1847 0.8897 0.1433   0.114113
 H 0.828 0.2058 0.1328   0.113618
 H 0.828 0.8672 0.073   0.113618
 H 0.828 0.927 0.7942   0.113618
 H 0.672 0.1328 0.2058   0.113616
 H 0.672 0.7942 0.927   0.113616
 H 0.672 0.073 0.8672   0.113616
 H 0.172 0.7942 0.8672   0.113617
 H 0.172 0.1328 0.927   0.113617
 H 0.172 0.073 0.2058   0.113617
 H 0.328 0.8672 0.7942   0.113615
 H 0.328 0.2058 0.073   0.113615
 H 0.328 0.927 0.1328   0.113615
 H 0.1412 0.4666 0.2566   0.134626
 H 0.1412 0.7434 0.21   0.134626
 H 0.1412 0.79 0.5334   0.134626
 H 0.3588 0.2566 0.4666   0.134626
 H 0.3588 0.5334 0.79   0.134626
 H 0.3588 0.21 0.7434   0.134626
 H 0.8588 0.5334 0.7434   0.134626
 H 0.8588 0.2566 0.79   0.134626
 H 0.8588 0.21 0.4666   0.134626
 H 0.6412 0.7434 0.5334   0.134626
 H 0.6412 0.4666 0.21   0.134626
 H 0.6412 0.79 0.2566   0.134626
 C 0.9265 0.3486 0.1329   -0.264999
 C 0.9265 0.8671 0.2157   -0.264999
 C 0.9265 0.7843 0.6514   -0.264999
 C 0.5735 0.1329 0.3486   -0.264999
 C 0.5735 0.6514 0.7843   -0.264999
 C 0.5735 0.2157 0.8671   -0.264999
 C 0.0735 0.6514 0.8671   -0.264999
 C 0.0735 0.1329 0.7843   -0.264999
 C 0.0735 0.2157 0.3486   -0.264999
 C 0.4265 0.8671 0.6514   -0.264999
 C 0.4265 0.3486 0.2157   -0.264999
 C 0.4265 0.7843 0.1329   -0.264999
 C 0.1066 0.4078 0.3363   0.677995
 C 0.1066 0.6637 0.0715   0.677994
 C 0.1066 0.9285 0.5922   0.677995
 C 0.3934 0.3363 0.4078   0.677995
 C 0.3934 0.5922 0.9285   0.677995
 C 0.3934 0.0715 0.6637   0.677994
 C 0.8934 0.5922 0.6637   0.677995
 C 0.8934 0.3363 0.9285   0.677994
 C 0.8934 0.0715 0.4078   0.677995
 C 0.6066 0.6637 0.5922   0.677995
 C 0.6066 0.4078 0.0715   0.677995
 C 0.6066 0.9285 0.3363   0.677994
 C 0.1782 0.4873 0.1523   -0.073323
 C 0.1782 0.8477 0.335   -0.073323
 C 0.1782 0.665 0.5127   -0.073323
 C 0.3218 0.1523 0.4873   -0.073323
 C 0.3218 0.5127 0.665   -0.073323
 C 0.3218 0.335 0.8477   -0.073323
 C 0.8218 0.5127 0.8477   -0.073323
 C 0.8218 0.1523 0.665   -0.073323
 C 0.8218 0.335 0.4873   -0.073323
 C 0.6782 0.8477 0.5127   -0.073323
 C 0.6782 0.4873 0.335   -0.073323
 C 0.6782 0.665 0.1523   -0.073323
 C 0.9412 0.3298 0.2321   -0.184665
 C 0.9412 0.7679 0.0977   -0.184666
 C 0.9412 0.9023 0.6702   -0.184665
 C 0.5588 0.2321 0.3298   -0.184665
 C 0.5588 0.6702 0.9023   -0.184665
 C 0.5588 0.0977 0.7679   -0.184666
 C 0.0588 0.6702 0.7679   -0.184665
 C 0.0588 0.2321 0.9023   -0.184666
 C 0.0588 0.0977 0.3298   -0.184665
 C 0.4412 0.7679 0.6702   -0.184665
 C 0.4412 0.3298 0.0977   -0.184665
 C 0.4412 0.9023 0.2321   -0.184665
 C 0.0181 0.4076 0.168   0.295571
 C 0.0181 0.832 0.2396   0.295571
 C 0.0181 0.7604 0.5924   0.295571
 C 0.4819 0.168 0.4076   0.295571
 C 0.4819 0.5924 0.7604   0.295571
 C 0.4819 0.2396 0.832   0.295571
 C 0.9819 0.5924 0.832   0.295571
 C 0.9819 0.168 0.7604   0.295571
 C 0.9819 0.2396 0.4076   0.295571
 C 0.5181 0.832 0.5924   0.295571
 C 0.5181 0.4076 0.2396   0.295571
 C 0.5181 0.7604 0.168   0.295571
 C 0.7876 0.2427 0.1255   -0.343194
 C 0.7876 0.8745 0.1172   -0.343195
 C 0.7876 0.8828 0.7573   -0.343194
 C 0.7124 0.1255 0.2427   -0.343194
 C 0.7124 0.7573 0.8828   -0.343194
 C 0.7124 0.1172 0.8745   -0.343194
 C 0.2124 0.7573 0.8745   -0.343194
 C 0.2124 0.1255 0.8828   -0.343194
 C 0.2124 0.1172 0.2427   -0.343194
 C 0.2876 0.8745 0.7573   -0.343193
 C 0.2876 0.2427 0.1172   -0.343193
 C 0.2876 0.8828 0.1255   -0.343193
 C 0.0768 0.4275 0.2338   -0.241022
 C 0.0768 0.7662 0.1937   -0.241022
 C 0.0768 0.8063 0.5725   -0.241022
 C 0.4232 0.2338 0.4275   -0.241022
 C 0.4232 0.5725 0.8063   -0.241022
 C 0.4232 0.1937 0.7662   -0.241022
 C 0.9232 0.5725 0.7662   -0.241022
 C 0.9232 0.2338 0.8063   -0.241022
 C 0.9232 0.1937 0.4275   -0.241022
 C 0.5768 0.7662 0.5725   -0.241022
 C 0.5768 0.4275 0.1937   -0.241022
 C 0.5768 0.8063 0.2338   -0.241022
 C 0.0382 0.388 0.2663   -0.04138
 C 0.0382 0.7337 0.1217   -0.041379
 C 0.0382 0.8783 0.612   -0.041379
 C 0.4618 0.2663 0.388   -0.04138
 C 0.4618 0.612 0.8783   -0.041379
 C 0.4618 0.1217 0.7337   -0.041379
 C 0.9618 0.612 0.7337   -0.04138
 C 0.9618 0.2663 0.8783   -0.041379
 C 0.9618 0.1217 0.388   -0.041379
 C 0.5382 0.7337 0.612   -0.04138
 C 0.5382 0.388 0.1217   -0.041379
 C 0.5382 0.8783 0.2663   -0.041379
 C 0.8866 0.3085 0.1643   0.146008
 C 0.8866 0.8357 0.1442   0.146009
 C 0.8866 0.8558 0.6915   0.146009
 C 0.6134 0.1643 0.3085   0.146008
 C 0.6134 0.6915 0.8558   0.146008
 C 0.6134 0.1442 0.8357   0.146009
 C 0.1134 0.6915 0.8357   0.146008
 C 0.1134 0.1643 0.8558   0.146009
 C 0.1134 0.1442 0.3085   0.146008
 C 0.3866 0.8357 0.6915   0.146008
 C 0.3866 0.3085 0.1442   0.146008
 C 0.3866 0.8558 0.1643   0.146008
 C 0.2094 0.5119 0.0997   0.694246
 C 0.2094 0.9003 0.4122   0.694246
 C 0.2094 0.5878 0.4881   0.694246
 C 0.2906 0.0997 0.5119   0.694246
 C 0.2906 0.4881 0.5878   0.694246
 C 0.2906 0.4122 0.9003   0.694246
 C 0.7906 0.4881 0.9003   0.694246
 C 0.7906 0.0997 0.5878   0.694246
 C 0.7906 0.4122 0.5119   0.694246
 C 0.7094 0.9003 0.4881   0.694246
 C 0.7094 0.5119 0.4122   0.694246
 C 0.7094 0.5878 0.0997   0.694246
 O 0.2256 0.44483 0.35264   -0.607219
 O 0.2256 0.64736 0.09219   -0.607218
 O 0.2256 0.90781 0.55517   -0.607219
 O 0.2744 0.35264 0.44483   -0.607219
 O 0.2744 0.55517 0.90781   -0.607219
 O 0.2744 0.09219 0.64736   -0.607218
 O 0.7744 0.55517 0.64736   -0.607219
 O 0.7744 0.35264 0.90781   -0.607218
 O 0.7744 0.09219 0.44483   -0.607219
 O 0.7256 0.64736 0.55517   -0.607219
 O 0.7256 0.44483 0.09219   -0.607219
 O 0.7256 0.90781 0.35264   -0.607218
 O 0.0458 0.44523 0.13332   -0.258096
 O 0.0458 0.86668 0.31191   -0.258097
 O 0.0458 0.68809 0.55477   -0.258096
 O 0.4542 0.13332 0.44523   -0.258096
 O 0.4542 0.55477 0.68809   -0.258096
 O 0.4542 0.31191 0.86668   -0.258097
 O 0.9542 0.55477 0.86668   -0.258096
 O 0.9542 0.13332 0.68809   -0.258097
 O 0.9542 0.31191 0.44523   -0.258096
 O 0.5458 0.86668 0.55477   -0.258096
 O 0.5458 0.44523 0.31191   -0.258096
 O 0.5458 0.68809 0.13332   -0.258097
 O 0.3394 0.54066 0.10786   -0.569472
 O 0.3394 0.89214 0.4328   -0.569472
 O 0.3394 0.5672 0.45934   -0.569472
 O 0.1606 0.10786 0.54066   -0.569472
 O 0.1606 0.45934 0.5672   -0.569472
 O 0.1606 0.4328 0.89214   -0.569472
 O 0.6606 0.45934 0.89214   -0.569472
 O 0.6606 0.10786 0.5672   -0.569472
 O 0.6606 0.4328 0.54066   -0.569472
 O 0.8394 0.89214 0.45934   -0.569472
 O 0.8394 0.54066 0.4328   -0.569472
 O 0.8394 0.5672 0.10786   -0.569472
 O 0.0424 0.38602 0.37304   -0.575738
 O 0.0424 0.62696 0.01298   -0.575737
 O 0.0424 0.98702 0.61398   -0.575738
 O 0.4576 0.37304 0.38602   -0.575738
 O 0.4576 0.61398 0.98702   -0.575737
 O 0.4576 0.01298 0.62696   -0.575737
 O 0.9576 0.61398 0.62696   -0.575738
 O 0.9576 0.37304 0.98702   -0.575737
 O 0.9576 0.01298 0.38602   -0.575738
 O 0.5424 0.62696 0.61398   -0.575738
 O 0.5424 0.38602 0.01298   -0.575738
 O 0.5424 0.98702 0.37304   -0.575737
 O 0.1128 0.50307 0.05336   -0.611066
 O 0.1128 0.94664 0.44971   -0.611066
 O 0.1128 0.55029 0.49693   -0.611066
 O 0.3872 0.05336 0.50307   -0.611066
 O 0.3872 0.49693 0.55029   -0.611066
 O 0.3872 0.44971 0.94664   -0.611066
 O 0.8872 0.49693 0.94664   -0.611066
 O 0.8872 0.05336 0.55029   -0.611066
 O 0.8872 0.44971 0.50307   -0.611066
 O 0.6128 0.94664 0.49693   -0.611066
 O 0.6128 0.50307 0.44971   -0.611066
 O 0.6128 0.55029 0.05336   -0.611066
