{'_ref': 'TBD', '_srcid': 'CAKYAQ_clean', 'submitters': [{'name': 'Dalar Nazarian Jeff Camp and David Sholl', 'email': 'dalar@gatech.edu jcamp6@gatech.edu'}], '_method': 'VASP DFT with PBE;DDEC'}
data_Pr2H32C45S3O25
_symmetry_space_group_name_H-M   'P 1'
_cell_length_a   9.33789988
_cell_length_b   15.71000021
_cell_length_c   22.43100000
_cell_angle_alpha   102.46999940
_cell_angle_beta   101.70999786
_cell_angle_gamma   104.89999898
_symmetry_Int_Tables_number   1
_chemical_formula_structural   Pr2H32C45S3O25
_chemical_formula_sum   'Pr4 H64 C90 S6 O50'
_cell_volume   2986.16150128
_cell_formula_units_Z   2
loop_
 _symmetry_equiv_pos_site_id
 _symmetry_equiv_pos_as_xyz
  1  'x, y, z'
loop_
 _atom_site_label
 _atom_site_fract_x
 _atom_site_fract_y
 _atom_site_fract_z
 _atom_site_charge
 Pr 0.52254 0.86191 0.8019   2.200441
 Pr 0.03597 0.91253 0.85751   2.192746
 Pr 0.47746 0.13809 0.1981   2.200439
 Pr 0.96403 0.08747 0.14249   2.192742
 H 0.8756 0.8362 0.6673   0.097978
 H 0.7473 0.8351 0.5685   0.132621
 H 0.2786 0.9112 0.6255   0.122019
 H 0.6646 0.787 0.4498   0.092787
 H 0.6705 0.8857 0.4858   0.068547
 H 0.6797 0.8644 0.4153   0.090447
 H 0.9774 0.8484 0.3704   0.109611
 H 0.9607 0.9042 0.2826   0.095855
 H 0.4168 0.0066 0.3293   0.090786
 H 0.4395 0.9533 0.4192   0.111847
 H 0.0093 0.6615 0.9076   0.106678
 H 0.9536 0.5202 0.9257   0.099626
 H 0.2837 0.4664 0.849   0.100424
 H 0.3418 0.6094 0.8321   0.118661
 H 0.134 0.2753 0.0231   0.135742
 H 0.5033 0.1884 0.0299   0.111541
 H 0.5959 0.2872 0.974   0.140139
 H 0.6979 0.4283 0.9613   0.071499
 H 0.6169 0.3606 0.8931   0.073716
 H 0.6437 0.4662 0.9044   0.094298
 H 0.5947 0.5604 0.8011   0.137734
 H 0.9918 0.5656 0.7061   0.140889
 H 0.9278 0.697 0.7361   0.104393
 H 0.9606 0.4125 0.6539   0.080584
 H 0.0817 0.4368 0.7196   0.067403
 H 0.985 0.3342 0.6839   0.092427
 H 0.2658 0.2716 0.7906   0.106361
 H 0.2394 0.1595 0.8422   0.109978
 H 0.5943 0.0959 0.7882   0.105986
 H 0.6185 0.2097 0.7376   0.105125
 H 0.5191 0.7372 0.6963   0.443363
 H 0.4789 0.8159 0.6905   0.386201
 H 0.1244 0.1638 0.3327   0.097978
 H 0.2527 0.1649 0.4315   0.132621
 H 0.7214 0.0888 0.3745   0.122015
 H 0.3354 0.213 0.5502   0.092784
 H 0.3295 0.1143 0.5142   0.068547
 H 0.3203 0.1356 0.5847   0.090447
 H 0.0226 0.1516 0.6296   0.10961
 H 0.0393 0.0958 0.7174   0.095854
 H 0.5832 0.9934 0.6707   0.090783
 H 0.5605 0.0467 0.5808   0.111846
 H 0.9907 0.3385 0.0924   0.106674
 H 0.0464 0.4798 0.0743   0.099625
 H 0.7163 0.5336 0.151   0.100424
 H 0.6582 0.3906 0.1679   0.118661
 H 0.866 0.7247 0.9769   0.135738
 H 0.4967 0.8116 0.9701   0.111541
 H 0.4041 0.7128 0.026   0.140139
 H 0.3021 0.5717 0.0387   0.071499
 H 0.3831 0.6394 0.1069   0.073716
 H 0.3563 0.5338 0.0956   0.094298
 H 0.4053 0.4396 0.1989   0.137734
 H 0.0082 0.4344 0.2939   0.140889
 H 0.0722 0.303 0.2639   0.104393
 H 0.0394 0.5875 0.3461   0.08058
 H 0.9183 0.5632 0.2804   0.067402
 H 0.015 0.6658 0.3161   0.092426
 H 0.7342 0.7284 0.2094   0.10636
 H 0.7606 0.8405 0.1578   0.109977
 H 0.4057 0.9041 0.2118   0.105986
 H 0.3815 0.7903 0.2624   0.105125
 H 0.4809 0.2628 0.3037   0.443361
 H 0.5211 0.1841 0.3095   0.3862
 C 0.1738 0.8754 0.7219   0.788668
 C 0.0921 0.8765 0.6579   -0.189314
 C 0.9313 0.8522 0.6391   0.014878
 C 0.8542 0.8514 0.5798   -0.243365
 C 0.9335 0.8746 0.5365   0.222785
 C 0.0937 0.8993 0.5557   0.124281
 C 0.1721 0.8978 0.6149   -0.098096
 C 0.7084 0.8515 0.4552   -0.015371
 C 0.208 0.8943 0.4019   -0.203099
 C 0.0665 0.8804 0.3622   -0.030666
 C 0.0566 0.9141 0.3098   -0.012535
 C 0.1882 0.962 0.2981   -0.141616
 C 0.3282 0.9751 0.3381   -0.034332
 C 0.3436 0.9428 0.3917   -0.034285
 C 0.175 0.9988 0.2416   0.797312
 C 0.2128 0.7414 0.8543   0.784734
 C 0.1811 0.6499 0.8677   -0.143327
 C 0.065 0.6224 0.896   -0.035007
 C 0.0318 0.5382 0.9068   -0.024094
 C 0.1142 0.4792 0.8898   -0.232351
 C 0.2292 0.5059 0.8612   -0.010955
 C 0.2631 0.5912 0.8507   -0.03739
 C 0.2848 0.3372 0.9821   0.130405
 C 0.2275 0.278 0.0139   -0.10955
 C 0.3093 0.222 0.0324   -0.182254
 C 0.4479 0.226 0.0174   0.027376
 C 0.5038 0.2854 0.9843   -0.245036
 C 0.4228 0.3424 0.9663   0.215056
 C 0.2475 0.1598 0.0696   0.760565
 C 0.62 0.4159 0.9225   -0.010699
 C 0.7014 0.7248 0.7883   0.686248
 C 0.7547 0.6428 0.7719   -0.179226
 C 0.6756 0.5622 0.7825   -0.11008
 C 0.7185 0.4855 0.7653   0.125505
 C 0.8364 0.485 0.7375   0.220162
 C 0.9133 0.565 0.7258   -0.235245
 C 0.8742 0.6432 0.7434   0.014092
 C 0.9831 0.3964 0.6929   0.003047
 C 0.4478 0.2522 0.7613   -0.233445
 C 0.3323 0.2366 0.7911   -0.022422
 C 0.316 0.1696 0.8213   -0.030572
 C 0.4147 0.1162 0.8208   -0.13451
 C 0.5287 0.1316 0.7891   -0.036264
 C 0.5435 0.1995 0.7592   -0.025873
 C 0.4013 0.041 0.8551   0.783967
 C 0.8262 0.1246 0.2781   0.788668
 C 0.9079 0.1235 0.3421   -0.189315
 C 0.0687 0.1478 0.3609   0.014879
 C 0.1458 0.1486 0.4202   -0.243365
 C 0.0665 0.1254 0.4635   0.222785
 C 0.9063 0.1007 0.4443   0.12428
 C 0.8279 0.1022 0.3851   -0.098095
 C 0.2916 0.1485 0.5448   -0.01537
 C 0.792 0.1057 0.5981   -0.203099
 C 0.9335 0.1196 0.6378   -0.030666
 C 0.9434 0.0859 0.6902   -0.012534
 C 0.8118 0.038 0.7019   -0.141616
 C 0.6718 0.0249 0.6619   -0.034331
 C 0.6564 0.0572 0.6083   -0.034285
 C 0.825 0.0012 0.7584   0.797312
 C 0.7872 0.2586 0.1457   0.784734
 C 0.8189 0.3501 0.1323   -0.143328
 C 0.935 0.3776 0.104   -0.035005
 C 0.9682 0.4618 0.0932   -0.024095
 C 0.8858 0.5208 0.1102   -0.232351
 C 0.7708 0.4941 0.1388   -0.010957
 C 0.7369 0.4088 0.1493   -0.037391
 C 0.7152 0.6628 0.0179   0.130404
 C 0.7725 0.722 0.9861   -0.10955
 C 0.6907 0.778 0.9676   -0.182255
 C 0.5521 0.774 0.9826   0.027376
 C 0.4962 0.7146 0.0157   -0.245037
 C 0.5772 0.6576 0.0337   0.215056
 C 0.7525 0.8402 0.9304   0.760566
 C 0.38 0.5841 0.0775   -0.010699
 C 0.2986 0.2752 0.2117   0.686248
 C 0.2453 0.3572 0.2281   -0.179226
 C 0.3244 0.4378 0.2175   -0.110081
 C 0.2815 0.5145 0.2347   0.125505
 C 0.1636 0.515 0.2625   0.220162
 C 0.0867 0.435 0.2742   -0.235245
 C 0.1258 0.3568 0.2566   0.014092
 C 0.0169 0.6036 0.3071   0.003049
 C 0.5522 0.7478 0.2387   -0.233445
 C 0.6677 0.7634 0.2089   -0.022422
 C 0.684 0.8304 0.1787   -0.030572
 C 0.5853 0.8838 0.1792   -0.13451
 C 0.4713 0.8684 0.2109   -0.036264
 C 0.4565 0.8005 0.2408   -0.025874
 C 0.5987 0.959 0.1449   0.783967
 S 0.2224 0.84961 0.46792   1.249435
 S 0.0742 0.37221 0.90464   1.271579
 S 0.4785 0.34373 0.72817   1.261221
 S 0.7776 0.15039 0.53208   1.249435
 S 0.9258 0.62779 0.09536   1.271579
 S 0.5215 0.65627 0.27183   1.261221
 O 0.0951 0.8597 0.7608   -0.72999
 O 0.3176 0.8909 0.7341   -0.736232
 O 0.8724 0.8773 0.477   -0.229802
 O 0.1773 0.9253 0.5137   -0.351075
 O 0.1063 0.7631 0.4527   -0.549881
 O 0.3792 0.8583 0.4949   -0.563035
 O 0.048 0.9962 0.2114   -0.693265
 O 0.2997 0.031 0.2279   -0.802919
 O 0.1405 0.7919 0.8742   -0.734019
 O 0.3097 0.7603 0.8235   -0.727892
 O 0.9338 0.3506 0.9212   -0.566504
 O 0.097 0.3051 0.8573   -0.555415
 O 0.2109 0.4 0.9679   -0.355058
 O 0.5075 0.0074 0.8636   -0.669676
 O 0.2823 0.0199 0.8737   -0.794102
 O 0.1169 0.1542 0.0762   -0.742448
 O 0.3311 0.115 0.0924   -0.763637
 O 0.3668 0.3893 0.7355   -0.565183
 O 0.6387 0.4049 0.7778   -0.353698
 O 0.4457 0.7594 0.6882   -0.794551
 O 0.573 0.7133 0.8004   -0.637123
 O 0.4707 0.4046 0.9355   -0.244954
 O 0.7822 0.8046 0.7891   -0.818811
 O 0.8681 0.4048 0.7242   -0.237305
 O 0.5041 0.3177 0.6678   -0.562196
 O 0.9049 0.1403 0.2392   -0.72999
 O 0.6824 0.1091 0.2659   -0.736232
 O 0.1276 0.1227 0.523   -0.229802
 O 0.8227 0.0747 0.4863   -0.351074
 O 0.8937 0.2369 0.5473   -0.549881
 O 0.6208 0.1417 0.5051   -0.563035
 O 0.952 0.0038 0.7886   -0.693265
 O 0.7003 0.969 0.7721   -0.802919
 O 0.8595 0.2081 0.1258   -0.734019
 O 0.6903 0.2397 0.1765   -0.727892
 O 0.0662 0.6494 0.0788   -0.566504
 O 0.903 0.6949 0.1427   -0.555415
 O 0.7891 0.6 0.0321   -0.355058
 O 0.4925 0.9926 0.1364   -0.669676
 O 0.7177 0.9801 0.1263   -0.794102
 O 0.8831 0.8458 0.9238   -0.742448
 O 0.6689 0.885 0.9076   -0.763637
 O 0.6332 0.6107 0.2645   -0.565183
 O 0.3613 0.5951 0.2222   -0.353698
 O 0.5543 0.2406 0.3118   -0.79455
 O 0.427 0.2867 0.1996   -0.637123
 O 0.5293 0.5954 0.0645   -0.244954
 O 0.2178 0.1954 0.2109   -0.818811
 O 0.1319 0.5952 0.2758   -0.237305
 O 0.4959 0.6823 0.3322   -0.562196
