{'_ref': 'TBD', '_srcid': 'CAKYAQ_clean', 'submitters': [{'name': 'Dalar Nazarian Jeff Camp and David Sholl', 'email': 'dalar@gatech.edu jcamp6@gatech.edu'}], '_method': 'VASP DFT with PBE;DDEC'}
data_HoH9(C2O)6
_symmetry_space_group_name_H-M   'P 1'
_cell_length_a   7.62100001
_cell_length_b   9.63399990
_cell_length_c   10.50000000
_cell_angle_alpha   106.40899834
_cell_angle_beta   105.27299792
_cell_angle_gamma   100.88000267
_symmetry_Int_Tables_number   1
_chemical_formula_structural   HoH9(C2O)6
_chemical_formula_sum   'Ho2 H18 C24 O12'
_cell_volume   683.94320325
_cell_formula_units_Z   2
loop_
 _symmetry_equiv_pos_site_id
 _symmetry_equiv_pos_as_xyz
  1  'x, y, z'
loop_
 _atom_site_label
 _atom_site_fract_x
 _atom_site_fract_y
 _atom_site_fract_z
 _atom_site_charge
 Ho 0.75333 0.96738 0.54823   2.25478
 Ho 0.24667 0.03262 0.45177   2.254783
 H 0.5379 0.8004 0.0482   0.12063
 H 0.8158 0.4888 0.9638   0.120763
 H 0.5484 0.6228 0.654   0.118179
 H 0.3638 0.876 0.8775   0.154095
 H 0.2614 0.7367 0.7329   0.14973
 H 0.6355 0.6773 0.2159   0.139707
 H 0.7674 0.5684 0.1908   0.150143
 H 0.8504 0.3975 0.7356   0.144428
 H 0.7753 0.4707 0.6201   0.156539
 H 0.4621 0.1996 0.9518   0.12063
 H 0.1842 0.5112 0.0362   0.120764
 H 0.4516 0.3772 0.346   0.118179
 H 0.6362 0.124 0.1225   0.154095
 H 0.7386 0.2633 0.2671   0.14973
 H 0.3645 0.3227 0.7841   0.139707
 H 0.2326 0.4316 0.8092   0.150144
 H 0.1496 0.6025 0.2644   0.144429
 H 0.2247 0.5293 0.3799   0.156538
 C 0.5222 0.7261 0.8448   0.163229
 C 0.5775 0.7342 0.983   -0.239775
 C 0.6885 0.6493 0.0297   0.177858
 C 0.7426 0.5504 0.9335   -0.237824
 C 0.6914 0.5404 0.7943   0.149499
 C 0.5825 0.6285 0.7494   -0.226151
 C 0.3847 0.8114 0.7942   -0.405969
 C 0.4436 0.9091 0.7148   0.839001
 C 0.743 0.6633 0.1823   -0.390872
 C 0.9172 0.7938 0.275   0.783695
 C 0.7399 0.4253 0.6867   -0.382634
 C 0.5754 0.2858 0.6059   0.817418
 C 0.4778 0.2739 0.1552   0.163229
 C 0.4225 0.2658 0.017   -0.239775
 C 0.3115 0.3507 0.9703   0.177859
 C 0.2574 0.4496 0.0665   -0.237824
 C 0.3086 0.4596 0.2057   0.149499
 C 0.4175 0.3715 0.2506   -0.226151
 C 0.6153 0.1886 0.2058   -0.405969
 C 0.5564 0.0909 0.2852   0.839001
 C 0.257 0.3367 0.8177   -0.390872
 C 0.0828 0.2062 0.725   0.783695
 C 0.2601 0.5747 0.3133   -0.382634
 C 0.4246 0.7142 0.3941   0.817418
 O 0.6077 0.9318 0.7084   -0.733276
 O 0.3147 0.9608 0.6554   -0.758898
 O 0.0439 0.8338 0.2277   -0.643493
 O 0.9367 0.8622 0.4041   -0.867437
 O 0.4115 0.2962 0.5585   -0.69469
 O 0.6007 0.155 0.5834   -0.858677
 O 0.3923 0.0682 0.2916   -0.733277
 O 0.6853 0.0392 0.3446   -0.758898
 O 0.9561 0.1662 0.7723   -0.643493
 O 0.0633 0.1378 0.5959   -0.867437
 O 0.5885 0.7038 0.4415   -0.69469
 O 0.3993 0.845 0.4166   -0.858677
