{'_ref': 'TBD', '_srcid': 'CAKYAQ_clean', 'submitters': [{'name': 'Dalar Nazarian Jeff Camp and David Sholl', 'email': 'dalar@gatech.edu jcamp6@gatech.edu'}], '_method': 'VASP DFT with PBE;DDEC'}
data_Co2MoH2C8(N4O)2
_symmetry_space_group_name_H-M   'P 1'
_cell_length_a   10.62594736
_cell_length_b   10.62610000
_cell_length_c   10.62609993
_cell_angle_alpha   103.64500258
_cell_angle_beta   112.46044885
_cell_angle_gamma   112.46044697
_symmetry_Int_Tables_number   1
_chemical_formula_structural   Co2MoH2C8(N4O)2
_chemical_formula_sum   'Co4 Mo2 H4 C16 N16 O4'
_cell_volume   916.559045186
_cell_formula_units_Z   2
loop_
 _symmetry_equiv_pos_site_id
 _symmetry_equiv_pos_as_xyz
  1  'x, y, z'
loop_
 _atom_site_label
 _atom_site_fract_x
 _atom_site_fract_y
 _atom_site_fract_z
 _atom_site_charge
 Co 0.49422 0.69464 0.79958   1.077484
 Co 0.50578 0.30536 0.20042   1.077505
 Co 0.10494 0.79958 0.30536   1.077623
 Co 0.89506 0.20042 0.69464   1.077644
 Mo 0.0 0.25004 0.25004   0.08885
 Mo 0.0 0.74996 0.74996   0.088848
 H 0.3401 0.7531 0.587   0.368955
 H 0.6599 0.2469 0.413   0.368956
 H 0.8339 0.587 0.2469   0.368999
 H 0.1661 0.413 0.7531   0.368999
 C 0.19654 0.39175 0.48605   0.168584
 C 0.78741 0.70805 0.76002   0.169239
 C 0.80346 0.28951 0.19521   0.168582
 C 0.21259 0.97261 0.92064   0.169192
 C 0.0943 0.48605 0.28951   0.168584
 C 0.05197 0.76002 0.97261   0.169164
 C 0.9057 0.19521 0.39175   0.168598
 C 0.94803 0.92064 0.70805   0.169149
 C 0.80346 0.60825 0.51395   0.168585
 C 0.21259 0.29195 0.23998   0.169239
 C 0.19654 0.71049 0.80479   0.168582
 C 0.78741 0.02739 0.07936   0.16919
 C 0.9057 0.51395 0.71049   0.168585
 C 0.94803 0.23998 0.02739   0.169164
 C 0.0943 0.80479 0.60825   0.168598
 C 0.05197 0.07936 0.29195   0.169148
 N 0.30638 0.47477 0.60775   -0.396735
 N 0.6717 0.68666 0.7575   -0.369943
 N 0.69362 0.30137 0.16839   -0.396705
 N 0.3283 0.0858 0.01496   -0.369944
 N 0.13298 0.60775 0.30137   -0.396719
 N 0.07084 0.7575 0.0858   -0.369916
 N 0.86702 0.16839 0.47477   -0.396731
 N 0.92916 0.01496 0.68666   -0.369895
 N 0.69362 0.52523 0.39225   -0.396737
 N 0.3283 0.31334 0.2425   -0.369946
 N 0.30638 0.69863 0.83161   -0.396704
 N 0.6717 0.9142 0.98504   -0.369944
 N 0.86702 0.39225 0.69863   -0.39672
 N 0.92916 0.2425 0.9142   -0.369919
 N 0.13298 0.83161 0.52523   -0.396731
 N 0.07084 0.98504 0.31334   -0.369895
 O 0.43941 0.79121 0.6482   -0.633202
 O 0.56059 0.20879 0.3518   -0.633202
 O 0.85699 0.6482 0.20879   -0.633227
 O 0.14301 0.3518 0.79121   -0.633228
