{'_ref': 'TBD', '_srcid': 'CAKYAQ_clean', 'submitters': [{'name': 'Dalar Nazarian Jeff Camp and David Sholl', 'email': 'dalar@gatech.edu jcamp6@gatech.edu'}], '_method': 'VASP DFT with PBE;DDEC'}
data_La2Co3H24(C4O5)6
_symmetry_space_group_name_H-M   'P 1'
_cell_length_a   15.17970000
_cell_length_b   15.30900008
_cell_length_c   15.30900000
_cell_angle_alpha   119.99999983
_cell_angle_beta   90.00000000
_cell_angle_gamma   90.00000000
_symmetry_Int_Tables_number   1
_chemical_formula_structural   La2Co3H24(C4O5)6
_chemical_formula_sum   'La4 Co6 H48 C48 O60'
_cell_volume   3080.96999938
_cell_formula_units_Z   2
loop_
 _symmetry_equiv_pos_site_id
 _symmetry_equiv_pos_as_xyz
  1  'x, y, z'
loop_
 _atom_site_label
 _atom_site_fract_x
 _atom_site_fract_y
 _atom_site_fract_z
 _atom_site_charge
 La 0.75 0.66667 0.33334   2.085522
 La 0.75 0.33333 0.66666   2.085522
 La 0.25 0.33333 0.66666   2.08551
 La 0.25 0.66667 0.33334   2.08551
 Co 0.0 0.5 0.0   1.143697
 Co 0.0 0.5 0.5   1.141814
 Co 0.0 0.0 0.5   1.14347
 Co 0.5 0.5 0.0   1.143682
 Co 0.5 0.0 0.5   1.141814
 Co 0.5 0.5 0.5   1.143481
 H 0.8353 0.7894 0.1537   0.098176
 H 0.7608 0.7126 0.0896   0.086589
 H 0.8353 0.3643 0.2106   0.09791
 H 0.7608 0.377 0.2874   0.08655
 H 0.8353 0.8463 0.6357   0.097894
 H 0.7608 0.9104 0.623   0.086508
 H 0.8353 0.2106 0.8463   0.098175
 H 0.7608 0.2874 0.9104   0.086589
 H 0.8353 0.6357 0.7894   0.097909
 H 0.7608 0.623 0.7126   0.08655
 H 0.8353 0.1537 0.3643   0.097895
 H 0.7608 0.0896 0.377   0.086508
 H 0.6647 0.6357 0.8463   0.098175
 H 0.7392 0.623 0.9104   0.086585
 H 0.6647 0.1537 0.7894   0.097907
 H 0.7392 0.0896 0.7126   0.086551
 H 0.6647 0.2106 0.3643   0.097897
 H 0.7392 0.2874 0.377   0.086509
 H 0.6647 0.3643 0.1537   0.098175
 H 0.7392 0.377 0.0896   0.086585
 H 0.6647 0.8463 0.2106   0.097906
 H 0.7392 0.9104 0.2874   0.08655
 H 0.6647 0.7894 0.6357   0.097897
 H 0.7392 0.7126 0.623   0.086509
 H 0.1647 0.2106 0.8463   0.098176
 H 0.2392 0.2874 0.9104   0.086589
 H 0.1647 0.6357 0.7894   0.097912
 H 0.2392 0.623 0.7126   0.08655
 H 0.1647 0.1537 0.3643   0.097898
 H 0.2392 0.0896 0.377   0.086508
 H 0.1647 0.7894 0.1537   0.098175
 H 0.2392 0.7126 0.0896   0.086589
 H 0.1647 0.3643 0.2106   0.097912
 H 0.2392 0.377 0.2874   0.08655
 H 0.1647 0.8463 0.6357   0.097898
 H 0.2392 0.9104 0.623   0.086508
 H 0.3353 0.3643 0.1537   0.098175
 H 0.2608 0.377 0.0896   0.086585
 H 0.3353 0.8463 0.2106   0.097909
 H 0.2608 0.9104 0.2874   0.086551
 H 0.3353 0.7894 0.6357   0.0979
 H 0.2608 0.7126 0.623   0.086509
 H 0.3353 0.6357 0.8463   0.098174
 H 0.2608 0.623 0.9104   0.086585
 H 0.3353 0.1537 0.7894   0.097909
 H 0.2608 0.0896 0.7126   0.086551
 H 0.3353 0.2106 0.3643   0.0979
 H 0.2608 0.2874 0.377   0.086509
 C 0.8587 0.6476 0.1288   0.724046
 C 0.8 0.7335 0.1468   -0.058353
 C 0.8587 0.4812 0.3524   0.723779
 C 0.8 0.4133 0.2665   -0.058275
 C 0.8587 0.8712 0.5188   0.724017
 C 0.8 0.8532 0.5867   -0.058297
 C 0.8587 0.3524 0.8712   0.724045
 C 0.8 0.2665 0.8532   -0.058353
 C 0.8587 0.5188 0.6476   0.723779
 C 0.8 0.5867 0.7335   -0.058275
 C 0.8587 0.1288 0.4812   0.724017
 C 0.8 0.1468 0.4133   -0.058297
 C 0.6413 0.5188 0.8712   0.724039
 C 0.7 0.5867 0.8532   -0.05835
 C 0.6413 0.1288 0.6476   0.723783
 C 0.7 0.1468 0.7335   -0.058275
 C 0.6413 0.3524 0.4812   0.724017
 C 0.7 0.2665 0.4133   -0.058298
 C 0.6413 0.4812 0.1288   0.724039
 C 0.7 0.4133 0.1468   -0.05835
 C 0.6413 0.8712 0.3524   0.723783
 C 0.7 0.8532 0.2665   -0.058275
 C 0.6413 0.6476 0.5188   0.724017
 C 0.7 0.7335 0.5867   -0.058298
 C 0.1413 0.3524 0.8712   0.724042
 C 0.2 0.2665 0.8532   -0.058353
 C 0.1413 0.5188 0.6476   0.723779
 C 0.2 0.5867 0.7335   -0.058276
 C 0.1413 0.1288 0.4812   0.724016
 C 0.2 0.1468 0.4133   -0.058298
 C 0.1413 0.6476 0.1288   0.724042
 C 0.2 0.7335 0.1468   -0.058352
 C 0.1413 0.4812 0.3524   0.723778
 C 0.2 0.4133 0.2665   -0.058276
 C 0.1413 0.8712 0.5188   0.724016
 C 0.2 0.8532 0.5867   -0.058298
 C 0.3587 0.4812 0.1288   0.724035
 C 0.3 0.4133 0.1468   -0.05835
 C 0.3587 0.8712 0.3524   0.723782
 C 0.3 0.8532 0.2665   -0.058276
 C 0.3587 0.6476 0.5188   0.724016
 C 0.3 0.7335 0.5867   -0.058299
 C 0.3587 0.5188 0.8712   0.724035
 C 0.3 0.5867 0.8532   -0.05835
 C 0.3587 0.1288 0.6476   0.723782
 C 0.3 0.1468 0.7335   -0.058276
 C 0.3587 0.3524 0.4812   0.724016
 C 0.3 0.2665 0.4133   -0.058299
 O 0.9046 0.6116 0.0517   -0.633898
 O 0.8582 0.6188 0.1931   -0.684161
 O 0.9046 0.4401 0.3884   -0.633774
 O 0.8582 0.5743 0.3812   -0.684417
 O 0.9046 0.9483 0.5599   -0.634192
 O 0.8582 0.8069 0.4257   -0.684433
 O 0.9046 0.3884 0.9483   -0.633898
 O 0.8582 0.3812 0.8069   -0.684161
 O 0.9046 0.5599 0.6116   -0.633773
 O 0.8582 0.4257 0.6188   -0.684417
 O 0.9046 0.0517 0.4401   -0.634192
 O 0.8582 0.1931 0.5743   -0.684433
 O 0.5954 0.5599 0.9483   -0.633898
 O 0.6418 0.4257 0.8069   -0.68416
 O 0.5954 0.0517 0.6116   -0.633774
 O 0.6418 0.1931 0.6188   -0.684417
 O 0.5954 0.3884 0.4401   -0.634192
 O 0.6418 0.3812 0.5743   -0.684433
 O 0.5954 0.4401 0.0517   -0.633898
 O 0.6418 0.5743 0.1931   -0.68416
 O 0.5954 0.9483 0.3884   -0.633774
 O 0.6418 0.8069 0.3812   -0.684417
 O 0.5954 0.6116 0.5599   -0.634191
 O 0.6418 0.6188 0.4257   -0.684433
 O 0.0954 0.3884 0.9483   -0.6339
 O 0.1418 0.3812 0.8069   -0.684161
 O 0.0954 0.5599 0.6116   -0.633773
 O 0.1418 0.4257 0.6188   -0.684416
 O 0.0954 0.0517 0.4401   -0.634191
 O 0.1418 0.1931 0.5743   -0.684433
 O 0.0954 0.6116 0.0517   -0.6339
 O 0.1418 0.6188 0.1931   -0.684161
 O 0.0954 0.4401 0.3884   -0.633773
 O 0.1418 0.5743 0.3812   -0.684416
 O 0.0954 0.9483 0.5599   -0.634191
 O 0.1418 0.8069 0.4257   -0.684433
 O 0.4046 0.4401 0.0517   -0.633899
 O 0.3582 0.5743 0.1931   -0.684159
 O 0.4046 0.9483 0.3884   -0.633773
 O 0.3582 0.8069 0.3812   -0.684416
 O 0.4046 0.6116 0.5599   -0.634191
 O 0.3582 0.6188 0.4257   -0.684432
 O 0.4046 0.5599 0.9483   -0.6339
 O 0.3582 0.4257 0.8069   -0.684159
 O 0.4046 0.0517 0.6116   -0.633773
 O 0.3582 0.1931 0.6188   -0.684416
 O 0.4046 0.3884 0.4401   -0.634191
 O 0.3582 0.3812 0.5743   -0.684432
 O 0.75 0.76455 0.23545   -0.330442
 O 0.75 0.4709 0.23545   -0.330442
 O 0.75 0.76455 0.5291   -0.330459
 O 0.75 0.23545 0.76455   -0.330442
 O 0.75 0.5291 0.76455   -0.330442
 O 0.75 0.23545 0.4709   -0.330458
 O 0.25 0.23545 0.76455   -0.330441
 O 0.25 0.5291 0.76455   -0.330441
 O 0.25 0.23545 0.4709   -0.330457
 O 0.25 0.76455 0.23545   -0.330441
 O 0.25 0.4709 0.23545   -0.330441
 O 0.25 0.76455 0.5291   -0.330457
