{'_ref': 'TBD', '_srcid': 'CAKYAQ_clean', 'submitters': [{'name': 'Dalar Nazarian Jeff Camp and David Sholl', 'email': 'dalar@gatech.edu jcamp6@gatech.edu'}], '_method': 'VASP DFT with PBE;DDEC'}
data_MnH2(CO2)2
_symmetry_space_group_name_H-M   'P 1'
_cell_length_a   10.19790000
_cell_length_b   11.78429976
_cell_length_c   14.91990000
_cell_angle_alpha   91.80029770
_cell_angle_beta   90.00000000
_cell_angle_gamma   90.00000000
_symmetry_Int_Tables_number   1
_chemical_formula_structural   MnH2(CO2)2
_chemical_formula_sum   'Mn12 H24 C24 O48'
_cell_volume   1792.11560186
_cell_formula_units_Z   12
loop_
 _symmetry_equiv_pos_site_id
 _symmetry_equiv_pos_as_xyz
  1  'x, y, z'
loop_
 _atom_site_label
 _atom_site_fract_x
 _atom_site_fract_y
 _atom_site_fract_z
 _atom_site_charge
 Mn 0.93295 0.98981 0.56268   1.134505
 Mn 0.62082 0.99027 0.61891   1.16987
 Mn 0.54158 0.74474 0.7478   1.177518
 Mn 0.45685 0.50345 0.88127   1.159317
 Mn 0.1436 0.51266 0.93548   1.157618
 Mn 0.53958 0.24499 0.75237   1.157538
 Mn 0.43295 0.01019 0.43732   1.134505
 Mn 0.12082 0.00973 0.38109   1.16987
 Mn 0.04158 0.25526 0.2522   1.177518
 Mn 0.95685 0.49655 0.11873   1.159317
 Mn 0.6436 0.48734 0.06452   1.157617
 Mn 0.03958 0.75501 0.24763   1.157538
 H 0.783 0.9028 0.3804   -0.015384
 H 0.9183 0.1811 0.711   0.009063
 H 0.9938 0.734 0.5077   0.014018
 H 0.836 0.7454 0.7217   0.009234
 H 0.3924 0.0469 0.8267   0.011232
 H 0.8305 0.2138 0.4719   0.005006
 H 0.2547 0.7507 0.7747   -0.002812
 H 0.6958 0.4419 0.6784   -0.002819
 H 0.7483 0.7036 0.9686   -0.009359
 H 0.2932 0.6031 0.1144   0.000982
 H 0.1649 0.3069 0.7891   -0.006168
 H 0.566 0.2293 0.0143   0.004514
 H 0.283 0.0972 0.6196   -0.015384
 H 0.4183 0.8189 0.289   0.009063
 H 0.4938 0.266 0.4923   0.014018
 H 0.336 0.2546 0.2783   0.009234
 H 0.8924 0.9531 0.1733   0.011234
 H 0.3305 0.7862 0.5281   0.005007
 H 0.7547 0.2493 0.2253   -0.002812
 H 0.1958 0.5581 0.3216   -0.002819
 H 0.2483 0.2964 0.0314   -0.009358
 H 0.7932 0.3969 0.8856   0.000982
 H 0.6649 0.6931 0.2109   -0.006168
 H 0.066 0.7707 0.9857   0.004516
 C 0.7145 0.9279 0.4171   0.711942
 C 0.8294 0.1667 0.7029   0.683456
 C 0.0192 0.7728 0.4572   0.683821
 C 0.8191 0.8086 0.6878   0.7023
 C 0.4462 0.0051 0.7876   0.693708
 C 0.899 0.1936 0.4335   0.682662
 C 0.268 0.6869 0.8087   0.706311
 C 0.6398 0.4856 0.7146   0.711957
 C 0.682 0.6838 0.9284   0.699132
 C 0.3617 0.5745 0.0793   0.688365
 C 0.2531 0.3233 0.7987   0.711538
 C 0.5502 0.2674 0.9617   0.693394
 C 0.2145 0.0721 0.5829   0.711943
 C 0.3294 0.8333 0.2971   0.683456
 C 0.5192 0.2272 0.5428   0.683821
 C 0.3191 0.1914 0.3122   0.7023
 C 0.9462 0.9949 0.2124   0.693709
 C 0.399 0.8064 0.5665   0.682663
 C 0.768 0.3131 0.1913   0.706311
 C 0.1398 0.5144 0.2854   0.711956
 C 0.182 0.3162 0.0716   0.699131
 C 0.8617 0.4255 0.9207   0.688363
 C 0.7531 0.6767 0.2013   0.711537
 C 0.0502 0.7326 0.0383   0.693393
 O 0.7423 0.9462 0.5   -0.689545
 O 0.6094 0.9396 0.3812   -0.588583
 O 0.7972 0.0925 0.6448   -0.660519
 O 0.7486 0.2232 0.7512   -0.606586
 O 0.0319 0.8804 0.4651   -0.675201
 O 0.0385 0.7164 0.3867   -0.601474
 O 0.913 0.8529 0.6513   -0.596702
 O 0.6988 0.8422 0.6833   -0.680312
 O 0.5146 0.0592 0.7317   -0.669569
 O 0.4466 0.8987 0.7935   -0.618035
 O 0.9586 0.1015 0.4474   -0.666569
 O 0.9259 0.2598 0.3716   -0.606803
 O 0.3829 0.6496 0.8121   -0.659087
 O 0.1695 0.6473 0.8463   -0.617449
 O 0.6389 0.5872 0.7028   -0.599813
 O 0.5712 0.4325 0.7722   -0.695154
 O 0.6659 0.7473 0.8656   -0.600513
 O 0.6184 0.5943 0.9445   -0.677377
 O 0.3387 0.554 0.997   -0.656576
 O 0.4714 0.5591 0.1177   -0.620638
 O 0.2777 0.4048 0.8572   -0.707386
 O 0.3287 0.2673 0.756   -0.570298
 O 0.5416 0.3758 0.9689   -0.683454
 O 0.5399 0.2087 0.8931   -0.594817
 O 0.2423 0.0538 0.5   -0.689545
 O 0.1094 0.0604 0.6188   -0.588583
 O 0.2972 0.9075 0.3552   -0.660519
 O 0.2486 0.7768 0.2488   -0.606586
 O 0.5319 0.1196 0.5349   -0.675201
 O 0.5385 0.2836 0.6133   -0.601474
 O 0.413 0.1471 0.3487   -0.596702
 O 0.1988 0.1578 0.3167   -0.680312
 O 0.0146 0.9408 0.2683   -0.669569
 O 0.9466 0.1013 0.2065   -0.618035
 O 0.4586 0.8985 0.5526   -0.666569
 O 0.4259 0.7402 0.6284   -0.606803
 O 0.8829 0.3504 0.1879   -0.659087
 O 0.6695 0.3527 0.1537   -0.617449
 O 0.1389 0.4128 0.2972   -0.599812
 O 0.0712 0.5675 0.2278   -0.695153
 O 0.1659 0.2527 0.1344   -0.600513
 O 0.1184 0.4057 0.0555   -0.677377
 O 0.8387 0.446 0.003   -0.656576
 O 0.9714 0.4409 0.8823   -0.620638
 O 0.7777 0.5952 0.1428   -0.707386
 O 0.8287 0.7327 0.244   -0.570298
 O 0.0416 0.6242 0.0311   -0.683453
 O 0.0399 0.7913 0.1069   -0.594817
