{'_ref': 'TBD', '_srcid': 'CAKYAQ_clean', 'submitters': [{'name': 'Dalar Nazarian Jeff Camp and David Sholl', 'email': 'dalar@gatech.edu jcamp6@gatech.edu'}], '_method': 'VASP DFT with PBE;DDEC'}
data_CdH18C18(NO)4
_symmetry_space_group_name_H-M   'P 1'
_cell_length_a   12.12290000
_cell_length_b   12.60989957
_cell_length_c   14.28190000
_cell_angle_alpha   98.41000219
_cell_angle_beta   90.00000000
_cell_angle_gamma   90.00000000
_symmetry_Int_Tables_number   1
_chemical_formula_structural   CdH18C18(NO)4
_chemical_formula_sum   'Cd4 H72 C72 N16 O16'
_cell_volume   2159.77644052
_cell_formula_units_Z   4
loop_
 _symmetry_equiv_pos_site_id
 _symmetry_equiv_pos_as_xyz
  1  'x, y, z'
loop_
 _atom_site_label
 _atom_site_fract_x
 _atom_site_fract_y
 _atom_site_fract_z
 _atom_site_charge
 Cd 0.95366 0.46525 0.11954   0.977807
 Cd 0.45366 0.53475 0.38046   0.977807
 Cd 0.04634 0.53475 0.88046   0.977807
 Cd 0.54634 0.46525 0.61954   0.977807
 H 0.6968 0.5172 0.1423   0.096464
 H 0.5671 0.6504 0.1506   0.135258
 H 0.6228 0.8264 0.1525   0.094896
 H 0.9347 0.7229 0.134   0.0623
 H 0.7854 0.0618 0.147   0.143517
 H 0.7029 0.9991 0.2033   0.140177
 H 0.7 0.9822 0.0924   0.13612
 H 0.1003 0.8646 0.0899   0.148622
 H 0.2057 0.9314 0.1237   0.136437
 H 0.1639 0.927 0.0194   0.148738
 H 0.2798 0.0962 0.1067   0.09498
 H 0.3424 0.2691 0.1043   0.14059
 H 0.2178 0.406 0.1059   0.079755
 H 0.9717 0.2083 0.1115   0.065555
 H 0.8379 0.2277 0.3109   0.103937
 H 0.722 0.2403 0.2653   0.105761
 H 0.7281 0.2858 0.435   0.121212
 H 0.7969 0.3872 0.4202   0.12739
 H 0.1968 0.4828 0.3577   0.096464
 H 0.0671 0.3496 0.3494   0.135254
 H 0.1228 0.1736 0.3475   0.094897
 H 0.4347 0.2771 0.366   0.0623
 H 0.2854 0.9382 0.353   0.143518
 H 0.2029 0.000900000000001 0.2967   0.140178
 H 0.2 0.0178 0.4076   0.13612
 H 0.6003 0.1354 0.4101   0.148623
 H 0.7057 0.0686 0.3763   0.136439
 H 0.6639 0.073 0.4806   0.148739
 H 0.7798 0.9038 0.3933   0.09498
 H 0.8424 0.7309 0.3957   0.14059
 H 0.7178 0.594 0.3941   0.079755
 H 0.4717 0.7917 0.3885   0.065555
 H 0.3379 0.7723 0.1891   0.103939
 H 0.222 0.7597 0.2347   0.105763
 H 0.2281 0.7142 0.065   0.121213
 H 0.2969 0.6128 0.0798   0.127386
 H 0.3032 0.4828 0.8577   0.096462
 H 0.4329 0.3496 0.8494   0.135257
 H 0.3772 0.1736 0.8475   0.094895
 H 0.0653 0.2771 0.866   0.0623
 H 0.2146 0.9382 0.853   0.143519
 H 0.2971 0.000900000000001 0.7967   0.140177
 H 0.3 0.0178 0.9076   0.13612
 H 0.8997 0.1354 0.9101   0.148622
 H 0.7943 0.0686 0.8763   0.136437
 H 0.8361 0.073 0.9806   0.14874
 H 0.7202 0.9038 0.8933   0.094981
 H 0.6576 0.7309 0.8957   0.140587
 H 0.7822 0.594 0.8941   0.079755
 H 0.0283 0.7917 0.8885   0.065556
 H 0.1621 0.7723 0.6891   0.103937
 H 0.278 0.7597 0.7347   0.105761
 H 0.2719 0.7142 0.565   0.12121
 H 0.2031 0.6128 0.5798   0.127386
 H 0.8032 0.5172 0.6423   0.096462
 H 0.9329 0.6504 0.6506   0.135253
 H 0.8772 0.8264 0.6525   0.094896
 H 0.5653 0.7229 0.634   0.0623
 H 0.7146 0.0618 0.647   0.143519
 H 0.7971 0.9991 0.7033   0.140178
 H 0.8 0.9822 0.5924   0.13612
 H 0.3997 0.8646 0.5899   0.148624
 H 0.2943 0.9314 0.6237   0.136439
 H 0.3361 0.927 0.5194   0.148741
 H 0.2202 0.0962 0.6067   0.094981
 H 0.1576 0.2691 0.6043   0.140587
 H 0.2822 0.406 0.6059   0.079755
 H 0.5283 0.2083 0.6115   0.065556
 H 0.6621 0.2277 0.8109   0.103939
 H 0.778 0.2403 0.7653   0.105763
 H 0.7719 0.2858 0.935   0.121212
 H 0.7031 0.3872 0.9202   0.127382
 C 0.71979 0.5875 0.14193   0.176972
 C 0.64165 0.66701 0.14758   -0.156692
 C 0.67479 0.77171 0.14869   -0.003287
 C 0.78651 0.79481 0.14401   -0.191977
 C 0.85963 0.70875 0.13745   0.190712
 C 0.82875 0.90589 0.14452   0.330635
 C 0.7469 0.9953 0.147   -0.426154
 C 0.07118 0.02478 0.11386   0.337413
 C 0.1416 0.92829 0.0841   -0.435036
 C 0.11731 0.13353 0.11103   -0.170107
 C 0.22998 0.15245 0.10772   0.004612
 C 0.26719 0.25502 0.10602   -0.169117
 C 0.19181 0.33675 0.10695   0.177465
 C 0.04733 0.22045 0.11071   0.195266
 C 0.83262 0.35196 0.23415   0.692253
 C 0.78276 0.2796 0.29833   -0.277474
 C 0.74063 0.33775 0.39232   -0.286724
 C 0.63544 0.39908 0.38312   0.690545
 C 0.21979 0.4125 0.35807   0.176972
 C 0.14165 0.33299 0.35242   -0.15669
 C 0.17479 0.22829 0.35131   -0.003288
 C 0.28651 0.20519 0.35599   -0.191977
 C 0.35963 0.29125 0.36255   0.190712
 C 0.32875 0.09411 0.35548   0.330635
 C 0.2469 0.0047 0.353   -0.426154
 C 0.57118 0.97522 0.38614   0.337414
 C 0.6416 0.07171 0.4159   -0.435038
 C 0.61731 0.86647 0.38897   -0.170108
 C 0.72998 0.84755 0.39228   0.004613
 C 0.76719 0.74498 0.39398   -0.169116
 C 0.69181 0.66325 0.39305   0.177465
 C 0.54733 0.77955 0.38929   0.195267
 C 0.33262 0.64804 0.26585   0.692253
 C 0.28276 0.7204 0.20167   -0.277476
 C 0.24063 0.66225 0.10768   -0.286723
 C 0.13544 0.60092 0.11688   0.690544
 C 0.28021 0.4125 0.85807   0.176973
 C 0.35835 0.33299 0.85242   -0.156692
 C 0.32521 0.22829 0.85131   -0.003286
 C 0.21349 0.20519 0.85599   -0.191978
 C 0.14037 0.29125 0.86255   0.190712
 C 0.17125 0.09411 0.85548   0.330635
 C 0.2531 0.0047 0.853   -0.426154
 C 0.92882 0.97522 0.88614   0.337413
 C 0.8584 0.07171 0.9159   -0.435037
 C 0.88269 0.86647 0.88897   -0.170107
 C 0.77002 0.84755 0.89228   0.004612
 C 0.73281 0.74498 0.89398   -0.169115
 C 0.80819 0.66325 0.89305   0.177464
 C 0.95267 0.77955 0.88929   0.195266
 C 0.16738 0.64804 0.76585   0.692253
 C 0.21724 0.7204 0.70167   -0.277475
 C 0.25937 0.66225 0.60768   -0.286722
 C 0.36456 0.60092 0.61688   0.690544
 C 0.78021 0.5875 0.64193   0.176973
 C 0.85835 0.66701 0.64758   -0.15669
 C 0.82521 0.77171 0.64869   -0.003287
 C 0.71349 0.79481 0.64401   -0.191977
 C 0.64037 0.70875 0.63745   0.190712
 C 0.67125 0.90589 0.64452   0.330635
 C 0.7531 0.9953 0.647   -0.426155
 C 0.42882 0.02478 0.61386   0.337414
 C 0.3584 0.92829 0.5841   -0.435039
 C 0.38269 0.13353 0.61103   -0.170107
 C 0.27002 0.15245 0.60772   0.004612
 C 0.23281 0.25502 0.60602   -0.169115
 C 0.30819 0.33675 0.60695   0.177464
 C 0.45267 0.22045 0.61071   0.195266
 C 0.66738 0.35196 0.73415   0.692253
 C 0.71724 0.2796 0.79833   -0.277476
 C 0.75937 0.33775 0.89232   -0.286721
 C 0.86456 0.39908 0.88312   0.690544
 N 0.82805 0.60733 0.1359   -0.341093
 N 0.93246 0.91558 0.14046   -0.258453
 N 0.97068 0.02097 0.14017   -0.281481
 N 0.08232 0.32089 0.10925   -0.342289
 N 0.32805 0.39267 0.3641   -0.341093
 N 0.43246 0.08442 0.35954   -0.258453
 N 0.47068 0.97903 0.35983   -0.281481
 N 0.58232 0.67911 0.39075   -0.342289
 N 0.17195 0.39267 0.8641   -0.341093
 N 0.06754 0.08442 0.85954   -0.258453
 N 0.02932 0.97903 0.85983   -0.281481
 N 0.91768 0.67911 0.89075   -0.342289
 N 0.67195 0.60733 0.6359   -0.341093
 N 0.56754 0.91558 0.64046   -0.258453
 N 0.52932 0.02097 0.64017   -0.281481
 N 0.41768 0.32089 0.60925   -0.342289
 O 0.8964 0.42585 0.26897   -0.636067
 O 0.81484 0.33332 0.14658   -0.64277
 O 0.60204 0.41657 0.30449   -0.583399
 O 0.58304 0.43552 0.45745   -0.653267
 O 0.3964 0.57415 0.23103   -0.636067
 O 0.31484 0.66668 0.35342   -0.64277
 O 0.10204 0.58343 0.19551   -0.583399
 O 0.08304 0.56448 0.04255   -0.653267
 O 0.1036 0.57415 0.73103   -0.636067
 O 0.18516 0.66668 0.85342   -0.64277
 O 0.39796 0.58343 0.69551   -0.583399
 O 0.41696 0.56448 0.54255   -0.653267
 O 0.6036 0.42585 0.76897   -0.636067
 O 0.68516 0.33332 0.64658   -0.64277
 O 0.89796 0.41657 0.80449   -0.583399
 O 0.91696 0.43552 0.95745   -0.653267
