{'_ref': 'TBD', '_srcid': 'CAKYAQ_clean', 'submitters': [{'name': 'Dalar Nazarian Jeff Camp and David Sholl', 'email': 'dalar@gatech.edu jcamp6@gatech.edu'}], '_method': 'VASP DFT with PBE;DDEC'}
data_CdH3C2N4Cl
_symmetry_space_group_name_H-M   'P 1'
_cell_length_a   18.28675633
_cell_length_b   18.28700000
_cell_length_c   18.28699988
_cell_angle_alpha   105.11200132
_cell_angle_beta   105.11141319
_cell_angle_gamma   118.59354685
_symmetry_Int_Tables_number   1
_chemical_formula_structural   CdH3C2N4Cl
_chemical_formula_sum   'Cd24 H72 C48 N96 Cl24'
_cell_volume   4616.83874467
_cell_formula_units_Z   24
loop_
 _symmetry_equiv_pos_site_id
 _symmetry_equiv_pos_as_xyz
  1  'x, y, z'
loop_
 _atom_site_label
 _atom_site_fract_x
 _atom_site_fract_y
 _atom_site_fract_z
 _atom_site_charge
 Cd 0.70111 0.57864 0.49009   0.683071
 Cd 0.52891 0.3143 0.38273   0.794846
 Cd 0.32907 0.07123 0.20572   0.66967
 Cd 0.13467 0.92876 0.25785   0.660278
 Cd 0.06857 0.68574 0.21471   0.788933
 Cd 0.91152 0.42144 0.12262   0.679568
 Cd 0.08855 0.21102 0.50991   0.683039
 Cd 0.93157 0.14618 0.61727   0.794829
 Cd 0.86551 0.12335 0.79428   0.669684
 Cd 0.67091 0.87682 0.74215   0.660277
 Cd 0.47103 0.85386 0.78529   0.788902
 Cd 0.29882 0.7889 0.87738   0.679554
 Cd 0.42136 0.91145 0.12247   0.683023
 Cd 0.6857 0.06843 0.21461   0.794807
 Cd 0.92877 0.13449 0.25784   0.669688
 Cd 0.07124 0.32909 0.20591   0.660284
 Cd 0.31426 0.52897 0.38283   0.788928
 Cd 0.57856 0.70118 0.49008   0.679564
 Cd 0.78898 0.29889 0.87753   0.68308
 Cd 0.85382 0.47109 0.78539   0.79484
 Cd 0.87665 0.67093 0.74216   0.669682
 Cd 0.12318 0.86533 0.79409   0.660225
 Cd 0.14614 0.93143 0.61717   0.788933
 Cd 0.2111 0.08848 0.50992   0.679553
 H 0.9478 0.7731 0.4367   0.146888
 H 0.8798 0.6638 0.3964   0.163192
 H 0.8433 0.7242 0.4197   0.16352
 H 0.5878 0.222 0.5044   0.13992
 H 0.6875 0.2482 0.5543   0.131014
 H 0.6294 0.2536 0.6024   0.148767
 H 0.2562 0.3149 0.3679   0.139763
 H 0.2897 0.265 0.3173   0.160426
 H 0.3069 0.2766 0.4095   0.139723
 H 0.8767 0.9149 0.139   0.159677
 H 0.9626 0.9812 0.1278   0.157684
 H 0.9485 0.8922 0.1349   0.150992
 H 0.2765 0.7784 0.3841   0.137659
 H 0.3218 0.7441 0.4383   0.138495
 H 0.3407 0.7528 0.3611   0.152509
 H 0.7296 0.3339 0.2187   0.16211
 H 0.7014 0.2852 0.1218   0.161356
 H 0.6594 0.2247 0.1663   0.147575
 H 0.3364 0.5111 0.5633   0.146883
 H 0.2674 0.4834 0.6036   0.163182
 H 0.3045 0.4236 0.5803   0.163512
 H 0.7176 0.0834 0.4956   0.139895
 H 0.6939 0.1332 0.4457   0.131006
 H 0.6512 0.027 0.3976   0.148752
 H 0.947 0.8883 0.6321   0.13972
 H 0.9477 0.9724 0.6827   0.16042
 H 0.8671 0.8974 0.5905   0.139687
 H 0.7759 0.7377 0.861   0.159704
 H 0.8534 0.8348 0.8722   0.157689
 H 0.7573 0.8136 0.8651   0.151003
 H 0.3943 0.8924 0.6159   0.137658
 H 0.3058 0.8835 0.5617   0.138496
 H 0.3917 0.9796 0.6389   0.152499
 H 0.1152 0.5109 0.7813   0.162137
 H 0.1634 0.5796 0.8782   0.161342
 H 0.0584 0.4931 0.8337   0.147582
 H 0.2269 0.6636 0.1747   0.14688
 H 0.3362 0.7326 0.216   0.163183
 H 0.2758 0.6955 0.1191   0.163518
 H 0.778 0.2824 0.3658   0.139915
 H 0.7518 0.3061 0.4393   0.131008
 H 0.7464 0.3488 0.3758   0.148765
 H 0.6851 0.053 0.9413   0.139761
 H 0.735 0.0523 0.0247   0.16045
 H 0.7234 0.1329 0.0303   0.139725
 H 0.0851 0.2241 0.9618   0.159699
 H 0.0188 0.1466 0.9814   0.157698
 H 0.1078 0.2427 0.0563   0.151023
 H 0.2216 0.6057 0.4981   0.137655
 H 0.2559 0.6942 0.5777   0.138482
 H 0.2472 0.6083 0.5879   0.15249
 H 0.6661 0.8848 0.3957   0.162125
 H 0.7148 0.8366 0.4162   0.161299
 H 0.7753 0.9416 0.4347   0.147559
 H 0.4889 0.0522 0.8253   0.146903
 H 0.5166 0.1202 0.784   0.163194
 H 0.5764 0.1567 0.8809   0.163527
 H 0.9166 0.4122 0.6342   0.139896
 H 0.8668 0.3125 0.5607   0.131004
 H 0.973 0.3706 0.6242   0.148748
 H 0.1117 0.7438 0.0587   0.139734
 H 0.0276 0.7103 0.9753   0.160453
 H 0.1026 0.6931 0.9697   0.139702
 H 0.2623 0.1233 0.0382   0.159696
 H 0.1652 0.0374 0.0186   0.157686
 H 0.1864 0.0515 0.9437   0.151019
 H 0.1076 0.7235 0.5019   0.137661
 H 0.1165 0.6782 0.4223   0.138496
 H 0.0204 0.6593 0.4121   0.15249
 H 0.4891 0.2704 0.6043   0.162113
 H 0.4204 0.2986 0.5838   0.161348
 H 0.5069 0.3406 0.5653   0.147581
 C 0.9216 0.7272 0.5202   0.42229
 C 0.896 0.7216 0.4362   -0.443904
 C 0.6882 0.3662 0.575   0.373713
 C 0.644 0.2625 0.5573   -0.407587
 C 0.3956 0.3965 0.4083   0.442439
 C 0.304 0.3052 0.3726   -0.441198
 C 0.0002 0.9999 0.2525   0.412409
 C 0.9413 0.9414 0.1541   -0.428959
 C 0.209 0.6352 0.3226   0.367256
 C 0.2951 0.7372 0.3821   -0.411409
 C 0.7922 0.2722 0.1954   0.408621
 C 0.7139 0.2796 0.1737   -0.437185
 C 0.207 0.4014 0.4798   0.422296
 C 0.2854 0.4598 0.5638   -0.443894
 C 0.7912 0.1132 0.425   0.373718
 C 0.7052 0.0867 0.4427   -0.407552
 C 0.9882 0.9873 0.5917   0.442426
 C 0.9326 0.9314 0.6274   -0.441091
 C 0.7474 0.7477 0.7475   0.412432
 C 0.7873 0.7872 0.8459   -0.428997
 C 0.3126 0.8864 0.6774   0.367211
 C 0.3551 0.913 0.6179   -0.411402
 C 0.0768 0.5968 0.8046   0.408565
 C 0.1059 0.5402 0.8263   -0.437198
 C 0.2728 0.793 0.1944   0.422265
 C 0.2784 0.7146 0.1744   -0.443867
 C 0.6338 0.2088 0.322   0.373716
 C 0.7375 0.2948 0.3815   -0.407571
 C 0.6035 0.0118 0.9991   0.442403
 C 0.6948 0.0674 0.9988   -0.441211
 C 0.000100000000003 0.2526 0.000300000000003   0.412417
 C 0.0586 0.2127 0.9999   -0.429051
 C 0.3648 0.6874 0.5738   0.367224
 C 0.2628 0.6449 0.5579   -0.411384
 C 0.7278 0.9232 0.52   0.408584
 C 0.7204 0.8941 0.4343   -0.437099
 C 0.5986 0.0784 0.8056   0.422314
 C 0.5402 0.104 0.8256   -0.443953
 C 0.8868 0.3118 0.678   0.373737
 C 0.9133 0.356 0.6185   -0.407539
 C 0.0127 0.6044 0.000900000000001   0.442456
 C 0.0686 0.696 0.0012   -0.441188
 C 0.2523 0.9998 0.9997   0.41244
 C 0.2128 0.0587 0.000100000000003   -0.42903
 C 0.1136 0.791 0.4262   0.367216
 C 0.087 0.7049 0.4421   -0.411387
 C 0.4032 0.2078 0.48   0.408608
 C 0.4598 0.2861 0.5657   -0.437173
 N 0.8627 0.6756 0.5469   -0.286408
 N 0.9154 0.7048 0.6292   -0.050087
 N 0.0033 0.7708 0.6513   -0.03617
 N 0.0092 0.7861 0.5841   -0.332872
 N 0.6532 0.3892 0.5194   -0.304635
 N 0.7104 0.4843 0.5589   -0.052132
 N 0.7741 0.5129 0.6334   -0.000147
 N 0.7643 0.4424 0.6471   -0.298383
 N 0.4786 0.4083 0.4281   -0.320215
 N 0.5406 0.4999 0.4585   -0.025771
 N 0.5004 0.5411 0.4595   -0.02137
 N 0.409 0.479 0.4278   -0.319421
 N 0.0648 0.9951 0.2997   -0.279057
 N 0.1008 0.06 0.3782   -0.029116
 N 0.0594 0.1002 0.379   -0.049234
 N 0.9933 0.063 0.2981   -0.284147
 N 0.1297 0.6096 0.2637   -0.289308
 N 0.0756 0.517 0.2264   -0.051251
 N 0.1211 0.4867 0.2614   -0.010095
 N 0.2046 0.5587 0.3225   -0.29914
 N 0.8716 0.3249 0.1867   -0.281108
 N 0.9239 0.2952 0.2095   -0.043661
 N 0.8801 0.228 0.2319   -0.052474
 N 0.7977 0.214 0.2227   -0.319279
 N 0.1287 0.3158 0.4531   -0.286434
 N 0.0756 0.2862 0.3708   -0.050068
 N 0.1195 0.352 0.3487   -0.036157
 N 0.202 0.4251 0.4159   -0.332895
 N 0.8698 0.1338 0.4806   -0.304595
 N 0.9254 0.1515 0.4411   -0.052178
 N 0.8795 0.1407 0.3666   -9.3e-05
 N 0.7953 0.1172 0.3529   -0.298392
 N 0.9802 0.0505 0.5719   -0.320253
 N 0.0414 0.0821 0.5415   -0.025716
 N 0.0816 0.0409 0.5405   -0.021346
 N 0.0512 0.9812 0.5722   -0.319452
 N 0.6954 0.7651 0.7003   -0.279093
 N 0.6818 0.7226 0.6218   -0.029056
 N 0.7212 0.6804 0.621   -0.049261
 N 0.7649 0.6952 0.7019   -0.284169
 N 0.3459 0.866 0.7363   -0.289275
 N 0.2906 0.8492 0.7736   -0.05123
 N 0.2253 0.8597 0.7386   -0.010106
 N 0.2362 0.8821 0.6775   -0.299099
 N 0.1382 0.6849 0.8133   -0.281102
 N 0.0857 0.7144 0.7905   -0.043644
 N 0.9961 0.6482 0.7681   -0.052465
 N 0.9913 0.575 0.7773   -0.319227
 N 0.3244 0.8713 0.1871   -0.286441
 N 0.2952 0.9244 0.2106   -0.050048
 N 0.2292 0.8805 0.2325   -0.036217
 N 0.2139 0.798 0.2231   -0.332827
 N 0.6108 0.1302 0.264   -0.304644
 N 0.5157 0.0746 0.2261   -0.052089
 N 0.4871 0.1205 0.2612   -0.000146
 N 0.5576 0.2047 0.3219   -0.298371
 N 0.5917 0.0198 0.0703   -0.320218
 N 0.5001 0.9586 0.0407   -0.025715
 N 0.4589 0.9184 0.9593   -0.021402
 N 0.521 0.9488 0.93   -0.319408
 N 0.0049 0.3046 0.0697   -0.279051
 N 0.94 0.3182 0.0408   -0.029089
 N 0.8998 0.2788 0.9592   -0.049321
 N 0.937 0.2351 0.9303   -0.284092
 N 0.3904 0.6541 0.5201   -0.289249
 N 0.483 0.7094 0.5586   -0.051307
 N 0.5133 0.7747 0.6344   -0.010093
 N 0.4413 0.7638 0.6459   -0.299099
 N 0.6751 0.8618 0.5467   -0.281127
 N 0.7048 0.9143 0.6287   -0.043634
 N 0.772 0.0039 0.6521   -0.052484
 N 0.786 0.0087 0.5837   -0.319263
 N 0.6842 0.1373 0.8129   -0.286421
 N 0.7138 0.0846 0.7894   -0.050082
 N 0.648 0.9967 0.7675   -0.036156
 N 0.5749 0.9908 0.7769   -0.332898
 N 0.8662 0.3468 0.736   -0.304627
 N 0.8485 0.2896 0.7739   -0.052155
 N 0.8593 0.2259 0.7388   -9.8e-05
 N 0.8828 0.2357 0.6781   -0.298417
 N 0.9495 0.5214 0.9297   -0.320278
 N 0.9179 0.4594 0.9593   -0.025641
 N 0.9591 0.4996 0.0407   -0.021488
 N 0.0188 0.591 0.07   -0.319405
 N 0.2349 0.9352 0.9303   -0.279039
 N 0.2774 0.8992 0.9592   -0.029124
 N 0.3196 0.9406 0.0408   -0.049249
 N 0.3048 0.0067 0.0697   -0.284148
 N 0.134 0.8703 0.4799   -0.289269
 N 0.1508 0.9244 0.4414   -0.051274
 N 0.1403 0.8789 0.3656   -0.010083
 N 0.1179 0.7954 0.3541   -0.299145
 N 0.3151 0.1284 0.4533   -0.281125
 N 0.2856 0.0761 0.3713   -0.04365
 N 0.3518 0.1199 0.3479   -0.052431
 N 0.425 0.2023 0.4163   -0.319306
 Cl 0.6537 0.44255 0.35845   -0.485657
 Cl 0.39764 0.2392 0.23284   -0.461711
 Cl 0.15603 0.9998 0.15603   -0.441814
 Cl 0.99356 0.7608 0.15856   -0.456904
 Cl 0.9162 0.55757 0.21157   -0.485196
 Cl 0.74588 0.31909 0.000109999999999   -0.467344
 Cl 0.0841 0.29525 0.64155   -0.485646
 Cl 0.00636 0.1648 0.76716   -0.461701
 Cl 0.84377 0.0 0.84397   -0.441832
 Cl 0.60224 0.835 0.84144   -0.456888
 Cl 0.346 0.70463 0.78843   -0.485201
 Cl 0.31898 0.74577 0.99989   -0.467342
 Cl 0.55745 0.9159 0.21115   -0.485641
 Cl 0.7608 0.99364 0.15844   -0.461698
 Cl 0.0002 0.15623 0.15623   -0.441828
 Cl 0.2392 0.39776 0.23276   -0.456908
 Cl 0.44243 0.654 0.35863   -0.485201
 Cl 0.68091 0.68102 0.42679   -0.467351
 Cl 0.70475 0.3463 0.78885   -0.48565
 Cl 0.8352 0.60236 0.84156   -0.4617
 Cl 0.0 0.84397 0.84377   -0.441809
 Cl 0.165 0.00644 0.76724   -0.456901
 Cl 0.29537 0.0838 0.64137   -0.485208
 Cl 0.25423 0.25412 0.57321   -0.467345
