{'_ref': 'TBD', '_srcid': 'CAKYAQ_clean', 'submitters': [{'name': 'Dalar Nazarian Jeff Camp and David Sholl', 'email': 'dalar@gatech.edu jcamp6@gatech.edu'}], '_method': 'VASP DFT with PBE;DDEC'}
data_MnH2(CO2)2
_symmetry_space_group_name_H-M   'P 1'
_cell_length_a   10.19590000
_cell_length_b   11.78560026
_cell_length_c   14.92240000
_cell_angle_alpha   91.85589859
_cell_angle_beta   90.00000000
_cell_angle_gamma   90.00000000
_symmetry_Int_Tables_number   1
_chemical_formula_structural   MnH2(CO2)2
_chemical_formula_sum   'Mn12 H24 C24 O48'
_cell_volume   1792.2066226
_cell_formula_units_Z   12
loop_
 _symmetry_equiv_pos_site_id
 _symmetry_equiv_pos_as_xyz
  1  'x, y, z'
loop_
 _atom_site_label
 _atom_site_fract_x
 _atom_site_fract_y
 _atom_site_fract_z
 _atom_site_charge
 Mn 0.06693 0.01017 0.43727   1.138274
 Mn 0.37925 0.00971 0.38115   1.169994
 Mn 0.45846 0.25526 0.25221   1.177479
 Mn 0.54323 0.49648 0.11876   1.162971
 Mn 0.85653 0.48743 0.06444   1.156263
 Mn 0.45996 0.75494 0.24799   1.158138
 Mn 0.56693 0.98983 0.56273   1.138274
 Mn 0.87925 0.99029 0.61885   1.169994
 Mn 0.95846 0.74474 0.74779   1.177479
 Mn 0.04323 0.50352 0.88124   1.16297
 Mn 0.35653 0.51257 0.93556   1.156262
 Mn 0.95996 0.24506 0.75201   1.158138
 H 0.2173 0.0983 0.6196   -0.011538
 H 0.0824 0.8179 0.2885   0.006613
 H 0.0033 0.2662 0.4909   0.018052
 H 0.1624 0.2535 0.2771   0.012138
 H 0.6089 0.9528 0.174   0.012566
 H 0.168 0.7851 0.5274   0.001244
 H 0.7429 0.2493 0.2258   -0.002462
 H 0.3072 0.5583 0.3239   -0.001022
 H 0.2508 0.2959 0.032   -0.008897
 H 0.7066 0.3957 0.8857   -0.001564
 H 0.8361 0.6933 0.2087   -0.005713
 H 0.4327 0.7709 0.9866   0.003998
 H 0.7173 0.9017 0.3804   -0.011538
 H 0.5824 0.1821 0.7115   0.006613
 H 0.5033 0.7338 0.5091   0.018052
 H 0.6624 0.7465 0.7229   0.012138
 H 0.1089 0.0472 0.826   0.012567
 H 0.668 0.2149 0.4726   0.001245
 H 0.2429 0.7507 0.7742   -0.002462
 H 0.8072 0.4417 0.6761   -0.001022
 H 0.7508 0.7041 0.968   -0.008896
 H 0.2066 0.6043 0.1143   -0.001564
 H 0.3361 0.3067 0.7913   -0.005713
 H 0.9327 0.2291 0.0134   0.004
 C 0.2855 0.0728 0.5829   0.7069
 C 0.1713 0.8327 0.2968   0.686362
 C 0.9796 0.2274 0.5417   0.678444
 C 0.1799 0.1909 0.3116   0.696228
 C 0.5541 0.9944 0.2127   0.693208
 C 0.1009 0.8062 0.5666   0.690202
 C 0.7301 0.3128 0.1915   0.705177
 C 0.3605 0.5141 0.286   0.711083
 C 0.3179 0.3154 0.0718   0.700657
 C 0.6383 0.4251 0.9206   0.693945
 C 0.7477 0.6763 0.2003   0.711176
 C 0.4494 0.7326 0.0389   0.693596
 C 0.7855 0.9272 0.4171   0.706902
 C 0.6713 0.1673 0.7032   0.686362
 C 0.4796 0.7726 0.4583   0.678444
 C 0.6799 0.8091 0.6884   0.696228
 C 0.0541 0.0056 0.7873   0.69321
 C 0.6009 0.1938 0.4334   0.690203
 C 0.2301 0.6872 0.8085   0.705177
 C 0.8605 0.4859 0.714   0.711082
 C 0.8179 0.6846 0.9282   0.700655
 C 0.1383 0.5749 0.0794   0.693942
 C 0.2477 0.3237 0.7997   0.711175
 C 0.9494 0.2674 0.9611   0.693594
 O 0.2576 0.0538 0.4997   -0.689385
 O 0.3915 0.061 0.6186   -0.588054
 O 0.2019 0.9077 0.3551   -0.664407
 O 0.2511 0.7759 0.2486   -0.601461
 O 0.968 0.1197 0.5349   -0.671474
 O 0.9607 0.2836 0.6133   -0.606404
 O 0.0861 0.1467 0.3487   -0.592136
 O 0.3015 0.158 0.3165   -0.682497
 O 0.4853 0.9405 0.268   -0.665997
 O 0.5526 0.1014 0.207   -0.622746
 O 0.0418 0.8985 0.5522   -0.671139
 O 0.0765 0.7414 0.6291   -0.60501
 O 0.6168 0.3503 0.1877   -0.648691
 O 0.8299 0.3527 0.1536   -0.629187
 O 0.3598 0.4127 0.2966   -0.596434
 O 0.4285 0.5672 0.2271   -0.699483
 O 0.3357 0.252 0.1338   -0.597803
 O 0.3817 0.4052 0.056   -0.682574
 O 0.6615 0.4458 0.0026   -0.659865
 O 0.5296 0.4412 0.8822   -0.620787
 O 0.7214 0.5955 0.143   -0.700177
 O 0.6717 0.7321 0.244   -0.581121
 O 0.4588 0.6241 0.0311   -0.683391
 O 0.4599 0.791 0.1074   -0.593291
 O 0.7576 0.9462 0.5003   -0.689385
 O 0.8915 0.939 0.3814   -0.588054
 O 0.7019 0.0923 0.6449   -0.664407
 O 0.7511 0.2241 0.7514   -0.601461
 O 0.468 0.8803 0.4651   -0.671474
 O 0.4607 0.7164 0.3867   -0.606404
 O 0.5861 0.8533 0.6513   -0.592136
 O 0.8015 0.842 0.6835   -0.682497
 O 0.9853 0.0595 0.732   -0.665997
 O 0.0526 0.8986 0.793   -0.622746
 O 0.5418 0.1015 0.4478   -0.671139
 O 0.5765 0.2586 0.3709   -0.60501
 O 0.1168 0.6497 0.8123   -0.648691
 O 0.3299 0.6473 0.8464   -0.629187
 O 0.8598 0.5873 0.7034   -0.596434
 O 0.9285 0.4328 0.7729   -0.699483
 O 0.8357 0.748 0.8662   -0.597803
 O 0.8817 0.5948 0.944   -0.682574
 O 0.1615 0.5542 0.9974   -0.659864
 O 0.0296 0.5588 0.1178   -0.620787
 O 0.2214 0.4045 0.857   -0.700177
 O 0.1717 0.2679 0.756   -0.58112
 O 0.9588 0.3759 0.9689   -0.683391
 O 0.9599 0.209 0.8926   -0.593291
