{'_ref': 'TBD', '_srcid': 'CAKYAQ_clean', 'submitters': [{'name': 'Dalar Nazarian Jeff Camp and David Sholl', 'email': 'dalar@gatech.edu jcamp6@gatech.edu'}], '_method': 'VASP DFT with PBE;DDEC'}
data_CuH2CN2Cl
_symmetry_space_group_name_H-M   'P 1'
_cell_length_a   3.66890000
_cell_length_b   15.98050000
_cell_length_c   17.82550000
_cell_angle_alpha   90.00000000
_cell_angle_beta   90.00000000
_cell_angle_gamma   90.00000000
_symmetry_Int_Tables_number   1
_chemical_formula_structural   CuH2CN2Cl
_chemical_formula_sum   'Cu12 H24 C12 N24 Cl12'
_cell_volume   1045.12433165
_cell_formula_units_Z   12
loop_
 _symmetry_equiv_pos_site_id
 _symmetry_equiv_pos_as_xyz
  1  'x, y, z'
loop_
 _atom_site_label
 _atom_site_fract_x
 _atom_site_fract_y
 _atom_site_fract_z
 _atom_site_charge
 Cu 0.8415 0.15021 0.19781   0.40099
 Cu 0.18339 0.16233 0.00825   0.423522
 Cu 0.41259 0.34685 0.11435   0.407435
 Cu 0.1585 0.65021 0.80219   0.40099
 Cu 0.81661 0.66233 0.99175   0.423522
 Cu 0.58741 0.84685 0.88565   0.407435
 Cu 0.6585 0.15021 0.69781   0.40099
 Cu 0.31661 0.16233 0.50825   0.423522
 Cu 0.08741 0.34685 0.61435   0.407435
 Cu 0.3415 0.65021 0.30219   0.40099
 Cu 0.68339 0.66233 0.49175   0.423522
 Cu 0.91259 0.84685 0.38565   0.407435
 H 0.5478 0.2375 0.3064   0.32304
 H 0.4138 0.2396 0.3853   0.328484
 H 0.061 0.9194 0.2591   0.326409
 H 0.0435 0.9961 0.2118   0.326377
 H 0.4819 0.0044 0.5317   0.324921
 H 0.6369 0.9255 0.5006   0.324831
 H 0.4522 0.7375 0.6936   0.32304
 H 0.5862 0.7396 0.6147   0.328483
 H 0.939 0.4194 0.7409   0.326409
 H 0.9565 0.4961 0.7882   0.326377
 H 0.5181 0.5044 0.4683   0.324921
 H 0.3631 0.4255 0.4994   0.32483
 H 0.9522 0.2375 0.8064   0.323039
 H 0.0862 0.2396 0.8853   0.328482
 H 0.439 0.9194 0.7591   0.326406
 H 0.4565 0.9961 0.7118   0.326373
 H 0.0181 0.0044 0.0317   0.324919
 H 0.8631 0.9255 0.000599999999999   0.32483
 H 0.0478 0.7375 0.1936   0.323039
 H 0.9138 0.7396 0.1147   0.328481
 H 0.561 0.4194 0.2409   0.326406
 H 0.5435 0.4961 0.2882   0.326373
 H 0.9819 0.5044 0.9683   0.324919
 H 0.1369 0.4255 0.9994   0.324829
 C 0.8541 0.0129 0.3103   0.726679
 C 0.6102 0.134 0.3574   0.728114
 C 0.6427 0.0155 0.4307   0.728854
 C 0.1459 0.5129 0.6897   0.726679
 C 0.3898 0.634 0.6426   0.728114
 C 0.3573 0.5155 0.5693   0.728854
 C 0.6459 0.0129 0.8103   0.726678
 C 0.8898 0.134 0.8574   0.728114
 C 0.8573 0.0155 0.9307   0.728853
 C 0.3541 0.5129 0.1897   0.726678
 C 0.1102 0.634 0.1426   0.728114
 C 0.1427 0.5155 0.0693   0.728853
 N 0.7974 0.9708 0.37499   -0.641008
 N 0.5126 0.2128 0.3487   -0.650706
 N 0.7648 0.0936 0.29888   -0.647508
 N 0.5465 0.09745 0.42556   -0.670079
 N 0.0037 0.9713 0.25379   -0.653646
 N 0.5798 0.9774 0.4952   -0.65567
 N 0.2026 0.4708 0.62501   -0.641008
 N 0.4874 0.7128 0.6513   -0.650706
 N 0.2352 0.5936 0.70112   -0.647508
 N 0.4535 0.59745 0.57444   -0.670079
 N 0.9963 0.4713 0.74621   -0.653646
 N 0.4202 0.4774 0.5048   -0.65567
 N 0.7026 0.9708 0.87499   -0.641008
 N 0.9874 0.2128 0.8487   -0.650705
 N 0.7352 0.0936 0.79888   -0.647508
 N 0.9535 0.09745 0.92556   -0.670079
 N 0.4963 0.9713 0.75379   -0.653644
 N 0.9202 0.9774 0.9952   -0.655669
 N 0.2974 0.4708 0.12501   -0.641008
 N 0.0126 0.7128 0.1513   -0.650704
 N 0.2648 0.5936 0.20112   -0.647508
 N 0.0465 0.59745 0.07444   -0.670079
 N 0.5037 0.4713 0.24621   -0.653644
 N 0.0798 0.4774 0.0048   -0.655669
 Cl 0.8912 0.29374 0.19229   -0.482345
 Cl 0.3269 0.0986 0.121   -0.479923
 Cl 0.482 0.28615 0.999   -0.488763
 Cl 0.1088 0.79374 0.80771   -0.482345
 Cl 0.6731 0.5986 0.879   -0.479923
 Cl 0.518 0.78615 0.000999999999998   -0.488763
 Cl 0.6088 0.29374 0.69229   -0.482345
 Cl 0.1731 0.0986 0.621   -0.479923
 Cl 0.018 0.28615 0.499   -0.488763
 Cl 0.3912 0.79374 0.30771   -0.482345
 Cl 0.8269 0.5986 0.379   -0.479923
 Cl 0.982 0.78615 0.501   -0.488763
