{'_ref': 'TBD', '_srcid': 'CAKYAQ_clean', 'submitters': [{'name': 'Dalar Nazarian Jeff Camp and David Sholl', 'email': 'dalar@gatech.edu jcamp6@gatech.edu'}], '_method': 'VASP DFT with PBE;DDEC'}
data_Co5H2(C11O10)2
_symmetry_space_group_name_H-M   'P 1'
_cell_length_a   11.37680000
_cell_length_b   12.61619997
_cell_length_c   15.34010000
_cell_angle_alpha   91.53899923
_cell_angle_beta   90.00000000
_cell_angle_gamma   90.00000000
_symmetry_Int_Tables_number   1
_chemical_formula_structural   Co5H2(C11O10)2
_chemical_formula_sum   'Co10 H4 C44 O40'
_cell_volume   2201.00074401
_cell_formula_units_Z   2
loop_
 _symmetry_equiv_pos_site_id
 _symmetry_equiv_pos_as_xyz
  1  'x, y, z'
loop_
 _atom_site_label
 _atom_site_fract_x
 _atom_site_fract_y
 _atom_site_fract_z
 _atom_site_charge
 Co 0.90004 0.28766 0.77122   1.134329
 Co 0.99803 0.50599 0.70758   1.11379
 Co 0.40004 0.71234 0.72878   1.134326
 Co 0.49803 0.49401 0.79242   1.113785
 Co 0.09996 0.71234 0.22878   1.134328
 Co 0.00197 0.49401 0.29242   1.113744
 Co 0.59996 0.28766 0.27122   1.134325
 Co 0.50197 0.50599 0.20758   1.113739
 Co 0.0 0.0 0.0   0.797391
 Co 0.5 0.0 0.5   0.797391
 H 0.074 0.32 0.064   0.137455
 H 0.574 0.68 0.436   0.137455
 H 0.926 0.68 0.936   0.137455
 H 0.426 0.32 0.564   0.137455
 C 0.1119 0.3179 0.92948   -0.122328
 C 0.1528 0.3789 0.86109   -0.042309
 C 0.1936 0.4825 0.87821   -0.187104
 C 0.189 0.5274 0.96226   0.038326
 C 0.1405 0.4674 0.02933   -0.149232
 C 0.1072 0.3632 0.01299   0.021902
 C 0.0631 0.2083 0.91562   0.742582
 C 0.1521 0.3346 0.76873   0.661516
 C 0.2338 0.5492 0.8042   0.743408
 C 0.2333 0.64 0.9775   0.607482
 C 0.1088 0.5167 0.11586   0.701819
 C 0.6119 0.6821 0.57052   -0.122328
 C 0.6528 0.6211 0.63891   -0.042309
 C 0.6936 0.5175 0.62179   -0.187104
 C 0.689 0.4726 0.53774   0.038326
 C 0.6405 0.5326 0.47067   -0.149232
 C 0.6072 0.6368 0.48701   0.021902
 C 0.5631 0.7917 0.58438   0.742582
 C 0.6521 0.6654 0.73127   0.661516
 C 0.7338 0.4508 0.6958   0.743408
 C 0.7333 0.36 0.5225   0.607482
 C 0.6088 0.4833 0.38414   0.701819
 C 0.8881 0.6821 0.07052   -0.122327
 C 0.8472 0.6211 0.13891   -0.042304
 C 0.8064 0.5175 0.12179   -0.187102
 C 0.811 0.4726 0.03774   0.038325
 C 0.8595 0.5326 0.97067   -0.14922
 C 0.8928 0.6368 0.98701   0.0219
 C 0.9369 0.7917 0.08438   0.742583
 C 0.8479 0.6654 0.23127   0.661508
 C 0.7662 0.4508 0.1958   0.743408
 C 0.7667 0.36 0.0225   0.607484
 C 0.8912 0.4833 0.88414   0.701833
 C 0.3881 0.3179 0.42948   -0.122327
 C 0.3472 0.3789 0.36109   -0.042304
 C 0.3064 0.4825 0.37821   -0.187102
 C 0.311 0.5274 0.46226   0.038325
 C 0.3595 0.4674 0.52933   -0.14922
 C 0.3928 0.3632 0.51299   0.0219
 C 0.4369 0.2083 0.41562   0.742583
 C 0.3479 0.3346 0.26873   0.661508
 C 0.2662 0.5492 0.3042   0.743408
 C 0.2667 0.64 0.4775   0.607484
 C 0.3912 0.5167 0.61586   0.701833
 O 0.07881 0.14565 0.97667   -0.555687
 O 0.00811 0.1852 0.84568   -0.642269
 O 0.05758 0.34849 0.72448   -0.692113
 O 0.24048 0.2891 0.74003   -0.463839
 O 0.1659 0.56497 0.7424   -0.569063
 O 0.33691 0.58893 0.81084   -0.692936
 O 0.18143 0.71278 0.93825   -0.500141
 O 0.32275 0.65348 0.02459   -0.49957
 O 0.07045 0.45653 0.17373   -0.589427
 O 0.11596 0.61612 0.1223   -0.595251
 O 0.57881 0.85435 0.52333   -0.555687
 O 0.50811 0.8148 0.65432   -0.642269
 O 0.55758 0.65151 0.77552   -0.692112
 O 0.74048 0.7109 0.75997   -0.463838
 O 0.6659 0.43503 0.7576   -0.569062
 O 0.83691 0.41107 0.68916   -0.692936
 O 0.68143 0.28722 0.56175   -0.500141
 O 0.82275 0.34652 0.47541   -0.49957
 O 0.57045 0.54347 0.32627   -0.589427
 O 0.61596 0.38388 0.3777   -0.595251
 O 0.92119 0.85435 0.02333   -0.555695
 O 0.99189 0.8148 0.15432   -0.642269
 O 0.94242 0.65151 0.27552   -0.69211
 O 0.75952 0.7109 0.25997   -0.46385
 O 0.8341 0.43503 0.2576   -0.569064
 O 0.66309 0.41107 0.18916   -0.692934
 O 0.81857 0.28722 0.06175   -0.500143
 O 0.67725 0.34652 0.97541   -0.499581
 O 0.92955 0.54347 0.82627   -0.589442
 O 0.88404 0.38388 0.8777   -0.595252
 O 0.42119 0.14565 0.47667   -0.555695
 O 0.49189 0.1852 0.34568   -0.642268
 O 0.44242 0.34849 0.22448   -0.692109
 O 0.25952 0.2891 0.24003   -0.46385
 O 0.3341 0.56497 0.2424   -0.569064
 O 0.16309 0.58893 0.31084   -0.692933
 O 0.31857 0.71278 0.43825   -0.500143
 O 0.17725 0.65348 0.52459   -0.499581
 O 0.42955 0.45653 0.67373   -0.589442
 O 0.38404 0.61612 0.6223   -0.595252
