{'_ref': 'TBD', '_srcid': 'CAKYAQ_clean', 'submitters': [{'name': 'Dalar Nazarian Jeff Camp and David Sholl', 'email': 'dalar@gatech.edu jcamp6@gatech.edu'}], '_method': 'VASP DFT with PBE;DDEC'}
data_CuH12C11NO4
_symmetry_space_group_name_H-M   'P 1'
_cell_length_a   9.11830009
_cell_length_b   12.52980000
_cell_length_c   12.52980012
_cell_angle_alpha   66.27999926
_cell_angle_beta   78.39819971
_cell_angle_gamma   78.39799752
_symmetry_Int_Tables_number   1
_chemical_formula_structural   CuH12C11NO4
_chemical_formula_sum   'Cu4 H48 C44 N4 O16'
_cell_volume   1272.23969136
_cell_formula_units_Z   4
loop_
 _symmetry_equiv_pos_site_id
 _symmetry_equiv_pos_as_xyz
  1  'x, y, z'
loop_
 _atom_site_label
 _atom_site_fract_x
 _atom_site_fract_y
 _atom_site_fract_z
 _atom_site_charge
 Cu 0.68328 0.82629 0.77287   0.786404
 Cu 0.82909 0.62849 0.76125   0.795549
 Cu 0.31672 0.22713 0.17371   0.786372
 Cu 0.17091 0.23875 0.37151   0.795536
 H 0.4462 0.9173 0.9407   0.077045
 H 0.2632 0.0726 0.942   0.127726
 H 0.3974 0.2344 0.6002   0.117344
 H 0.5789 0.0754 0.6082   0.077468
 H 0.9462 0.3853 0.9339   0.08507
 H 0.1243 0.2233 0.9437   0.120431
 H 0.2329 0.3722 0.5926   0.131633
 H 0.0526 0.53 0.5934   0.083334
 H 0.4822 0.6705 0.5391   0.082699
 H 0.2707 0.8199 0.5013   0.075692
 H 0.3018 0.8584 0.6012   0.081469
 H 0.511 0.8755 0.3919   0.1137
 H 0.5335 0.9201 0.4899   0.132737
 H 0.3745 0.5423 0.7241   0.101297
 H 0.2715 0.6522 0.7478   0.114466
 H 0.2442 0.6171 0.6445   0.108773
 H 0.1643 0.7977 0.8595   0.103505
 H 0.2374 0.6475 0.0345   0.072096
 H 0.2028 0.5959 0.9459   0.07342
 H 0.0066 0.6032 0.1518   0.110995
 H 0.9618 0.5596 0.0604   0.128599
 H 0.1254 0.8386 0.0272   0.105006
 H 0.006 0.9189 0.9393   0.099569
 H 0.9557 0.8093 0.0539   0.101653
 H 0.5538 0.0593 0.0827   0.077045
 H 0.7368 0.058 0.9274   0.127729
 H 0.6026 0.3998 0.7656   0.117344
 H 0.4211 0.3918 0.9246   0.077468
 H 0.0538 0.0661 0.6147   0.085067
 H 0.8757 0.0563 0.7767   0.120419
 H 0.7671 0.4074 0.6278   0.131631
 H 0.9474 0.4066 0.47   0.083293
 H 0.5178 0.4609 0.3295   0.082708
 H 0.7293 0.4987 0.1801   0.075692
 H 0.6982 0.3988 0.1416   0.08145
 H 0.489 0.6081 0.1245   0.113708
 H 0.4665 0.5101 0.0799   0.132728
 H 0.6255 0.2759 0.4577   0.101292
 H 0.7285 0.2522 0.3478   0.114468
 H 0.7558 0.3555 0.3829   0.108767
 H 0.8357 0.1405 0.2023   0.103506
 H 0.7626 0.9655 0.3525   0.072094
 H 0.7972 0.0541 0.4041   0.073416
 H 0.9934 0.8482 0.3968   0.111002
 H 0.0382 0.9396 0.4404   0.128594
 H 0.8746 0.9728 0.1614   0.105007
 H 0.994 0.0607 0.0811   0.099557
 H 0.0443 0.9461 0.1907   0.101662
 C 0.4368 0.9835 0.8691   0.161366
 C 0.327 0.0763 0.8709   -0.201805
 C 0.3103 0.17289 0.77089   0.093873
 C 0.4055 0.1696 0.673   -0.186019
 C 0.5134 0.0738 0.678   0.170625
 C 0.0043 0.38219 0.86299   0.174898
 C 0.1106 0.2848 0.8696   -0.19138
 C 0.1965 0.27691 0.76871   0.085152
 C 0.1741 0.37186 0.66446   -0.198114
 C 0.0658 0.4658 0.6658   0.154132
 C 0.5556 0.70352 0.66812   0.651994
 C 0.4334 0.70277 0.60077   -0.099578
 C 0.3509 0.82586 0.54066   -0.080994
 C 0.4571 0.91048 0.44948   -0.329701
 C 0.3751 0.02937 0.38497   0.703745
 C 0.3207 0.6212 0.687   -0.306204
 C 0.9582 0.75487 0.86347   0.636687
 C 0.0833 0.76175 0.92375   -0.098986
 C 0.1558 0.6384 0.9986   -0.083925
 C 0.0475 0.56397 0.09537   -0.315338
 C 0.1195 0.43918 0.16218   0.697562
 C 0.0389 0.83858 0.99178   -0.313044
 C 0.5632 0.1309 0.0165   0.161356
 C 0.673 0.1291 0.9237   -0.2018
 C 0.6897 0.22911 0.82711   0.093844
 C 0.5945 0.327 0.8304   -0.186032
 C 0.4866 0.322 0.9262   0.170634
 C 0.9957 0.13701 0.61781   0.1749
 C 0.8894 0.1304 0.7152   -0.191353
 C 0.8035 0.23129 0.72309   0.085147
 C 0.8259 0.33554 0.62814   -0.198106
 C 0.9342 0.3342 0.5342   0.154187
 C 0.4444 0.33188 0.29648   0.651988
 C 0.5666 0.39923 0.29723   -0.099598
 C 0.6491 0.45934 0.17414   -0.080975
 C 0.5429 0.55052 0.08952   -0.329692
 C 0.6249 0.61503 0.97063   0.703763
 C 0.6793 0.313 0.3788   -0.306187
 C 0.0418 0.13653 0.24513   0.636681
 C 0.9167 0.07625 0.23825   -0.098992
 C 0.8442 0.0014 0.3616   -0.08391
 C 0.9525 0.90463 0.43603   -0.315336
 C 0.8805 0.83782 0.56082   0.697568
 C 0.9611 0.00822 0.16142   -0.313042
 N 0.5296 0.98076 0.77476   -0.313308
 N 0.9788 0.47174 0.76274   -0.322376
 N 0.4704 0.22524 0.01924   -0.313293
 N 0.0212 0.23726 0.52826   -0.322393
 O 0.5334 0.78156 0.70976   -0.556052
 O 0.6678 0.6246 0.6782   -0.566504
 O 0.3958 0.06673 0.27373   -0.574035
 O 0.2914 0.08492 0.44432   -0.568039
 O 0.8553 0.8425 0.83642   -0.549911
 O 0.9673 0.66409 0.84177   -0.551465
 O 0.2153 0.39047 0.10247   -0.559985
 O 0.0755 0.39309 0.27009   -0.570935
 O 0.4666 0.29024 0.21844   -0.556042
 O 0.3322 0.3218 0.3754   -0.566502
 O 0.6042 0.72627 0.93327   -0.574041
 O 0.7086 0.55568 0.91508   -0.568051
 O 0.1447 0.16358 0.1575   -0.549903
 O 0.0327 0.15823 0.33591   -0.551456
 O 0.7847 0.89753 0.60953   -0.56
 O 0.9245 0.72991 0.60691   -0.57094
