{'_ref': 'TBD', '_srcid': 'CAKYAQ_clean', 'submitters': [{'name': 'Dalar Nazarian Jeff Camp and David Sholl', 'email': 'dalar@gatech.edu jcamp6@gatech.edu'}], '_method': 'VASP DFT with PBE;DDEC'}
data_CuH11C11NO4
_symmetry_space_group_name_H-M   'P 1'
_cell_length_a   8.50899983
_cell_length_b   13.15300019
_cell_length_c   13.99450000
_cell_angle_alpha   118.02999767
_cell_angle_beta   90.63999688
_cell_angle_gamma   90.00000260
_symmetry_Int_Tables_number   1
_chemical_formula_structural   CuH11C11NO4
_chemical_formula_sum   'Cu4 H44 C44 N4 O16'
_cell_volume   1382.41967082
_cell_formula_units_Z   4
loop_
 _symmetry_equiv_pos_site_id
 _symmetry_equiv_pos_as_xyz
  1  'x, y, z'
loop_
 _atom_site_label
 _atom_site_fract_x
 _atom_site_fract_y
 _atom_site_fract_z
 _atom_site_charge
 Cu 0.55381 0.08962 0.58871   0.847259
 Cu 0.94619 0.50091 0.41129   0.847225
 Cu 0.44619 0.91038 0.41129   0.847275
 Cu 0.05381 0.49909 0.58871   0.847242
 H 0.6516 0.3414 0.6626   0.087875
 H 0.8065 0.4879 0.7902   0.134339
 H 0.897 0.2857 0.9306   0.12559
 H 0.7363 0.1458 0.8006   0.084444
 H 0.9748 0.5671 0.9492   0.106001
 H 0.0961 0.0716 0.7244   0.111272
 H 0.0048 0.0825 0.629   0.135663
 H 0.9094 0.9204 0.6446   0.067512
 H 0.9867 0.8788 0.5284   0.071147
 H 0.1351 0.8689 0.7082   0.116355
 H 0.2255 0.8394 0.5988   0.131667
 H 0.8484 0.6788 0.3374   0.087516
 H 0.6935 0.6977 0.2098   0.134044
 H 0.603 0.3551 0.0694   0.125784
 H 0.7637 0.3452 0.1994   0.084626
 H 0.5252 0.6179 0.0508   0.106351
 H 0.4039 0.3472 0.2756   0.110987
 H 0.4952 0.4535 0.371   0.135478
 H 0.5906 0.2758 0.3554   0.066926
 H 0.5133 0.3504 0.4716   0.070987
 H 0.3649 0.1607 0.2918   0.116184
 H 0.2745 0.2406 0.4012   0.131758
 H 0.3484 0.6586 0.3374   0.087875
 H 0.1935 0.5121 0.2098   0.13434
 H 0.103 0.7143 0.0694   0.125595
 H 0.2637 0.8542 0.1994   0.084448
 H 0.0252 0.4329 0.0508   0.106005
 H 0.9039 0.9284 0.2756   0.111274
 H 0.9952 0.9175 0.371   0.135664
 H 0.0906 0.0796 0.3554   0.06751
 H 0.0133 0.1212 0.4716   0.071147
 H 0.8649 0.1311 0.2918   0.116362
 H 0.7745 0.1606 0.4012   0.131667
 H 0.1516 0.3212 0.6626   0.087516
 H 0.3065 0.3023 0.7902   0.134045
 H 0.397 0.6449 0.9306   0.125788
 H 0.2363 0.6548 0.8006   0.08463
 H 0.4748 0.3821 0.9492   0.106355
 H 0.5961 0.6528 0.7244   0.110988
 H 0.5048 0.5465 0.629   0.135479
 H 0.4094 0.7242 0.6446   0.066925
 H 0.4867 0.6496 0.5284   0.070987
 H 0.6351 0.8393 0.7082   0.116191
 H 0.7255 0.7594 0.5988   0.131758
 C 0.7008 0.33052 0.71842   0.176555
 C 0.7942 0.41814 0.79408   -0.199411
 C 0.8683 0.40486 0.87652   0.120835
 C 0.8461 0.29979 0.87718   -0.220507
 C 0.7505 0.21647 0.79874   0.157576
 C 0.9637 0.49995 0.9577   -0.109125
 C 0.2355 0.03055 0.59188   0.701509
 C 0.0796 0.03463 0.64492   -0.339457
 C 0.0096 0.91413 0.60696   -0.014686
 C 0.1217 0.83666 0.62884   -0.346799
 C 0.071 0.71216 0.5825   0.712557
 C 0.7992 0.6121 0.28158   0.177455
 C 0.7058 0.62406 0.20592   -0.199166
 C 0.6317 0.52834 0.12348   0.120601
 C 0.6539 0.42261 0.12282   -0.219928
 C 0.7495 0.41773 0.20126   0.157229
 C 0.5363 0.54225 0.0423   -0.109744
 C 0.2645 0.43867 0.40812   0.701139
 C 0.4204 0.38971 0.35508   -0.339593
 C 0.4904 0.30717 0.39304   -0.01298
 C 0.3783 0.20782 0.37116   -0.346919
 C 0.429 0.12966 0.4175   0.711216
 C 0.2992 0.66948 0.28158   0.176556
 C 0.2058 0.58186 0.20592   -0.199412
 C 0.1317 0.59514 0.12348   0.120834
 C 0.1539 0.70021 0.12282   -0.220509
 C 0.2495 0.78353 0.20126   0.157576
 C 0.0363 0.50005 0.0423   -0.109119
 C 0.7645 0.96945 0.40812   0.701509
 C 0.9204 0.96537 0.35508   -0.339458
 C 0.9904 0.08587 0.39304   -0.014685
 C 0.8783 0.16334 0.37116   -0.346801
 C 0.929 0.28784 0.4175   0.712558
 C 0.2008 0.3879 0.71842   0.177455
 C 0.2942 0.37594 0.79408   -0.199168
 C 0.3683 0.47166 0.87652   0.1206
 C 0.3461 0.57739 0.87718   -0.21993
 C 0.2505 0.58227 0.79874   0.157229
 C 0.4637 0.45775 0.9577   -0.109738
 C 0.7355 0.56133 0.59188   0.70114
 C 0.5796 0.61029 0.64492   -0.339594
 C 0.5096 0.69283 0.60696   -0.012978
 C 0.6217 0.79218 0.62884   -0.346921
 C 0.571 0.87034 0.5825   0.711216
 N 0.6764 0.2304 0.72034   -0.338564
 N 0.8236 0.51006 0.27966   -0.339095
 N 0.3236 0.7696 0.27966   -0.338566
 N 0.1764 0.48994 0.72034   -0.339098
 O 0.34118 0.10147 0.64834   -0.581669
 O 0.25047 0.95612 0.49524   -0.574076
 O 0.0963 0.66364 0.63976   -0.584197
 O 0.011 0.66433 0.48904   -0.579688
 O 0.15882 0.45313 0.35166   -0.581387
 O 0.24953 0.46088 0.50476   -0.573883
 O 0.4037 0.02388 0.36024   -0.583347
 O 0.489 0.17529 0.51096   -0.579476
 O 0.65882 0.89853 0.35166   -0.581671
 O 0.74953 0.04388 0.50476   -0.574074
 O 0.9037 0.33636 0.36024   -0.584195
 O 0.989 0.33567 0.51096   -0.57969
 O 0.84118 0.54687 0.64834   -0.581388
 O 0.75047 0.53912 0.49524   -0.573882
 O 0.5963 0.97612 0.63976   -0.583345
 O 0.511 0.82471 0.48904   -0.579478
