{'_ref': 'TBD', '_srcid': 'CAKYAQ_clean', 'submitters': [{'name': 'Dalar Nazarian Jeff Camp and David Sholl', 'email': 'dalar@gatech.edu jcamp6@gatech.edu'}], '_method': 'VASP DFT with PBE;DDEC'}
data_CuH11C11NO4
_symmetry_space_group_name_H-M   'P 1'
_cell_length_a   8.55100044
_cell_length_b   13.15700001
_cell_length_c   14.04219998
_cell_angle_alpha   117.93522911
_cell_angle_beta   91.11580616
_cell_angle_gamma   90.00000234
_symmetry_Int_Tables_number   1
_chemical_formula_structural   CuH11C11NO4
_chemical_formula_sum   'Cu4 H44 C44 N4 O16'
_cell_volume   1395.40106795
_cell_formula_units_Z   4
loop_
 _symmetry_equiv_pos_site_id
 _symmetry_equiv_pos_as_xyz
  1  'x, y, z'
loop_
 _atom_site_label
 _atom_site_fract_x
 _atom_site_fract_y
 _atom_site_fract_z
 _atom_site_charge
 Cu 0.55373 0.49785 0.58738   0.834398
 Cu 0.94627 0.91047 0.41262   0.83467
 Cu 0.44627 0.50215 0.41262   0.834411
 Cu 0.05373 0.08953 0.58738   0.834687
 H 0.659 0.3199 0.6592   0.086667
 H 0.8153 0.3008 0.7858   0.134391
 H 0.8946 0.645 0.931   0.125671
 H 0.7326 0.6546 0.8018   0.083726
 H 0.9807 0.3824 0.947   0.102123
 H 0.0998 0.6523 0.7236   0.112134
 H 0.0085 0.5459 0.6282   0.135584
 H 0.9115 0.7238 0.6446   0.067039
 H 0.9888 0.6491 0.5282   0.072573
 H 0.1349 0.8409 0.711   0.116365
 H 0.2252 0.7611 0.6016   0.129437
 H 0.841 0.6607 0.3408   0.086594
 H 0.6847 0.515 0.2142   0.134543
 H 0.6054 0.714 0.069   0.125514
 H 0.7674 0.8528 0.1982   0.083868
 H 0.5193 0.4354 0.053   0.102348
 H 0.4002 0.9287 0.2764   0.111864
 H 0.4915 0.9177 0.3718   0.135391
 H 0.5885 0.0792 0.3554   0.066798
 H 0.5112 0.1209 0.4718   0.072404
 H 0.3651 0.1299 0.289   0.116629
 H 0.2748 0.1595 0.3984   0.129316
 H 0.341 0.6801 0.3408   0.086667
 H 0.1847 0.6992 0.2142   0.134392
 H 0.1054 0.355 0.069   0.125673
 H 0.2674 0.3454 0.1982   0.083731
 H 0.0193 0.6176 0.053   0.102122
 H 0.9002 0.3477 0.2764   0.112135
 H 0.9915 0.4541 0.3718   0.135584
 H 0.0885 0.2762 0.3554   0.067038
 H 0.0112 0.3509 0.4718   0.072573
 H 0.8651 0.1591 0.289   0.116375
 H 0.7748 0.2389 0.3984   0.129438
 H 0.159 0.3393 0.6592   0.086594
 H 0.3153 0.485 0.7858   0.134543
 H 0.3946 0.286 0.931   0.125516
 H 0.2326 0.1472 0.8018   0.083873
 H 0.4807 0.5646 0.947   0.102348
 H 0.5998 0.0713 0.7236   0.111866
 H 0.5085 0.0823 0.6282   0.135392
 H 0.4115 0.9208 0.6446   0.066798
 H 0.4888 0.8791 0.5282   0.072405
 H 0.6349 0.8701 0.711   0.116638
 H 0.7252 0.8405 0.6016   0.129317
 C 0.7082 0.38656 0.71496   0.179945
 C 0.8029 0.37435 0.78958   -0.199714
 C 0.8716 0.47173 0.87482   0.122155
 C 0.8438 0.57749 0.8775   -0.221677
 C 0.7468 0.58197 0.79986   0.158053
 C 0.9695 0.4581 0.95554   -0.108042
 C 0.2376 0.56011 0.59046   0.694315
 C 0.0832 0.60974 0.6442   -0.337525
 C 0.0116 0.6924 0.60688   -0.01802
 C 0.1214 0.79385 0.6317   -0.342981
 C 0.0708 0.87157 0.58372   0.704808
 C 0.7918 0.6716 0.28504   0.180037
 C 0.6971 0.58477 0.21042   -0.199589
 C 0.6284 0.59691 0.12518   0.122354
 C 0.6562 0.69999 0.1225   -0.221901
 C 0.7532 0.78211 0.20014   0.158008
 C 0.5305 0.50256 0.04446   -0.10839
 C 0.2624 0.96965 0.40954   0.694829
 C 0.4168 0.96554 0.3558   -0.336778
 C 0.4884 0.08552 0.39312   -0.017558
 C 0.3786 0.16215 0.3683   -0.343581
 C 0.4292 0.28785 0.41628   0.703989
 C 0.2918 0.61344 0.28504   0.179945
 C 0.1971 0.62565 0.21042   -0.199715
 C 0.1284 0.52827 0.12518   0.122149
 C 0.1562 0.42251 0.1225   -0.221676
 C 0.2532 0.41803 0.20014   0.158053
 C 0.0305 0.5419 0.04446   -0.108007
 C 0.7624 0.43989 0.40954   0.694315
 C 0.9168 0.39026 0.3558   -0.337526
 C 0.9884 0.3076 0.39312   -0.018018
 C 0.8786 0.20615 0.3683   -0.342985
 C 0.9292 0.12843 0.41628   0.704809
 C 0.2082 0.3284 0.71496   0.180037
 C 0.3029 0.41523 0.78958   -0.19959
 C 0.3716 0.40309 0.87482   0.122349
 C 0.3438 0.30001 0.8775   -0.221901
 C 0.2468 0.21789 0.79986   0.158008
 C 0.4695 0.49744 0.95554   -0.108361
 C 0.7376 0.03035 0.59046   0.69483
 C 0.5832 0.03446 0.6442   -0.336779
 C 0.5116 0.91448 0.60688   -0.017557
 C 0.6214 0.83785 0.6317   -0.343584
 C 0.5708 0.71215 0.58372   0.703989
 N 0.6776 0.48877 0.71962   -0.338268
 N 0.8224 0.76915 0.28038   -0.338353
 N 0.3224 0.51123 0.28038   -0.338269
 N 0.1776 0.23085 0.71962   -0.338355
 O 0.34157 0.542 0.64536   -0.574083
 O 0.25119 0.54152 0.49458   -0.567238
 O 0.0988 0.9768 0.6394   -0.580835
 O 0.0093 0.82424 0.4906   -0.571226
 O 0.15843 0.89664 0.35464   -0.57422
 O 0.24881 0.04694 0.50542   -0.567704
 O 0.4012 0.3374 0.3606   -0.580082
 O 0.4907 0.33364 0.5094   -0.570836
 O 0.65843 0.458 0.35464   -0.574085
 O 0.74881 0.45848 0.50542   -0.567236
 O 0.9012 0.0232 0.3606   -0.580832
 O 0.9907 0.17576 0.5094   -0.571228
 O 0.84157 0.10336 0.64536   -0.57422
 O 0.75119 0.95306 0.49458   -0.567702
 O 0.5988 0.6626 0.6394   -0.580081
 O 0.5093 0.66636 0.4906   -0.570837
