{'_ref': 'TBD', '_srcid': 'CAKYAQ_clean', 'submitters': [{'name': 'Dalar Nazarian Jeff Camp and David Sholl', 'email': 'dalar@gatech.edu jcamp6@gatech.edu'}], '_method': 'VASP DFT with PBE;DDEC'}
data_CdH2C2O3
_symmetry_space_group_name_H-M   'P 1'
_cell_length_a   8.40850000
_cell_length_b   9.80700000
_cell_length_c   21.01900000
_cell_angle_alpha   90.00000000
_cell_angle_beta   90.00000000
_cell_angle_gamma   90.00000000
_symmetry_Int_Tables_number   1
_chemical_formula_structural   CdH2C2O3
_chemical_formula_sum   'Cd8 H16 C16 O24'
_cell_volume   1733.27213053
_cell_formula_units_Z   8
loop_
 _symmetry_equiv_pos_site_id
 _symmetry_equiv_pos_as_xyz
  1  'x, y, z'
loop_
 _atom_site_label
 _atom_site_fract_x
 _atom_site_fract_y
 _atom_site_fract_z
 _atom_site_charge
 Cd 0.00436 0.3925 0.71694   0.465593
 Cd 0.19393 0.83749 0.52263   0.510766
 Cd 0.49564 0.6075 0.21694   0.465593
 Cd 0.30607 0.16251 0.02263   0.510766
 Cd 0.99564 0.8925 0.78306   0.465586
 Cd 0.80607 0.33749 0.97737   0.51076
 Cd 0.50436 0.1075 0.28306   0.465586
 Cd 0.69393 0.66251 0.47737   0.51076
 H 0.815 0.818 0.6865   0.387608
 H 0.066 0.094 0.579   0.394535
 H 0.717 0.9965 0.6537   0.097205
 H 0.8356 0.0849 0.5623   0.104655
 H 0.685 0.182 0.1865   0.387608
 H 0.434 0.906 0.079   0.394535
 H 0.783 0.0035 0.1537   0.097205
 H 0.6644 0.9151 0.0623   0.104655
 H 0.185 0.318 0.8135   0.387608
 H 0.934 0.594 0.921   0.394534
 H 0.283 0.4965 0.8463   0.097205
 H 0.1644 0.5849 0.9377   0.104654
 H 0.315 0.682 0.3135   0.387608
 H 0.566 0.406 0.421   0.394534
 H 0.217 0.5035 0.3463   0.097205
 H 0.3356 0.4151 0.4377   0.104654
 C 0.9011 0.117 0.68708   0.611031
 C 0.8334 0.9937 0.65118   0.055696
 C 0.8831 0.003 0.58113   0.058537
 C 0.8257 0.8791 0.54494   0.585827
 C 0.5989 0.883 0.18708   0.611031
 C 0.6666 0.0063 0.15118   0.055696
 C 0.6169 0.997 0.08113   0.058537
 C 0.6743 0.1209 0.04494   0.585827
 C 0.0989 0.617 0.81292   0.611031
 C 0.1666 0.4937 0.84882   0.055696
 C 0.1169 0.503 0.91887   0.058537
 C 0.1743 0.3791 0.95506   0.585827
 C 0.4011 0.383 0.31292   0.611031
 C 0.3334 0.5063 0.34882   0.055696
 C 0.3831 0.497 0.41887   0.058537
 C 0.3257 0.6209 0.45506   0.585827
 O 0.954 0.1037 0.74225   -0.559819
 O 0.8983 0.2275 0.65761   -0.582041
 O 0.8872 0.86971 0.67804   -0.502904
 O 0.051 0.0122 0.57627   -0.547139
 O 0.9213 0.8016 0.51708   -0.50329
 O 0.6784 0.8572 0.54351   -0.576252
 O 0.546 0.8963 0.24225   -0.559819
 O 0.6017 0.7725 0.15761   -0.582041
 O 0.6128 0.13029 0.17804   -0.502904
 O 0.449 0.9878 0.07627   -0.547139
 O 0.5787 0.1984 0.01708   -0.50329
 O 0.8216 0.1428 0.04351   -0.576252
 O 0.046 0.6037 0.75775   -0.55982
 O 0.1017 0.7275 0.84239   -0.582041
 O 0.1128 0.36971 0.82196   -0.502905
 O 0.949 0.5122 0.92373   -0.547139
 O 0.0787 0.3016 0.98292   -0.50329
 O 0.3216 0.3572 0.95649   -0.576252
 O 0.454 0.3963 0.25775   -0.55982
 O 0.3983 0.2725 0.34239   -0.582041
 O 0.3872 0.63029 0.32196   -0.502905
 O 0.551 0.4878 0.42373   -0.547139
 O 0.4213 0.6984 0.48292   -0.50329
 O 0.1784 0.6428 0.45649   -0.576252
