{'_ref': 'TBD', '_srcid': 'CAKYAQ_clean', 'submitters': [{'name': 'Dalar Nazarian Jeff Camp and David Sholl', 'email': 'dalar@gatech.edu jcamp6@gatech.edu'}], '_method': 'VASP DFT with PBE;DDEC'}
data_NaCu2H27C38N6O5
_symmetry_space_group_name_H-M   'P 1'
_cell_length_a   8.97500000
_cell_length_b   19.24300000
_cell_length_c   21.13000000
_cell_angle_alpha   90.00000000
_cell_angle_beta   90.00000000
_cell_angle_gamma   90.00000000
_symmetry_Int_Tables_number   1
_chemical_formula_structural   NaCu2H27C38N6O5
_chemical_formula_sum   'Na4 Cu8 H108 C152 N24 O20'
_cell_volume   3649.27619525
_cell_formula_units_Z   4
loop_
 _symmetry_equiv_pos_site_id
 _symmetry_equiv_pos_as_xyz
  1  'x, y, z'
loop_
 _atom_site_label
 _atom_site_fract_x
 _atom_site_fract_y
 _atom_site_fract_z
 _atom_site_charge
 Na 0.136 0.0049 0.6646   0.936168
 Na 0.364 0.9951 0.1646   0.936168
 Na 0.864 0.5049 0.8354   0.936168
 Na 0.636 0.4951 0.3354   0.936168
 Cu 0.0084 0.0799 0.41019   0.820904
 Cu 0.7037 0.1746 0.3625   0.814022
 Cu 0.4916 0.9201 0.91019   0.820904
 Cu 0.7963 0.8254 0.8625   0.814022
 Cu 0.9916 0.5799 0.08981   0.820904
 Cu 0.2963 0.6746 0.1375   0.814022
 Cu 0.5084 0.4201 0.58981   0.820904
 Cu 0.2037 0.3254 0.6375   0.814022
 H 0.84796 0.16923 0.46059   0.366924
 H 0.85097 0.95344 0.56245   0.126151
 H 0.64809 0.97897 0.63442   0.096718
 H 0.62729 0.09339 0.67177   0.092877
 H 0.7482 0.18449 0.62603   0.081613
 H 0.93473 0.16418 0.55168   0.114712
 H 0.34051 0.89288 0.48083   0.137093
 H 0.44371 0.874 0.3801   0.089517
 H 0.34575 0.93058 0.29092   0.108616
 H 0.96503 0.09191 0.19782   0.112383
 H 0.839 0.17921 0.13986   0.091668
 H 0.842 0.29271 0.18022   0.085126
 H 0.94014 0.31626 0.28001   0.097401
 H 0.03499 0.22732 0.34109   0.120162
 H 0.3794 0.14707 0.17836   0.120508
 H 0.31133 0.26711 0.17501   0.096101
 H 0.44269 0.3493 0.24211   0.130225
 H 0.78123 0.98773 0.25069   0.117095
 H 0.88915 0.87959 0.28597   0.070305
 H 0.88464 0.84574 0.39196   0.099004
 H 0.76243 0.91801 0.46555   0.087399
 H 0.65966 0.02608 0.43231   0.121765
 H 0.66127 0.24363 0.50284   0.117778
 H 0.76244 0.29867 0.59429   0.088663
 H 0.93979 0.38296 0.58688   0.093612
 H 0.00386 0.42337 0.48479   0.075443
 H 0.89801 0.37724 0.39099   0.117
 H 0.65204 0.83077 0.96059   0.366924
 H 0.64903 0.04656 0.06245   0.12615
 H 0.85191 0.02103 0.13442   0.096719
 H 0.87271 0.90661 0.17177   0.092877
 H 0.7518 0.81551 0.12603   0.081613
 H 0.56527 0.83582 0.05168   0.114712
 H 0.15949 0.10712 0.98083   0.137092
 H 0.05629 0.126 0.8801   0.089517
 H 0.15425 0.06942 0.79092   0.108616
 H 0.53497 0.90809 0.69782   0.112383
 H 0.661 0.82079 0.63986   0.091667
 H 0.658 0.70729 0.68022   0.085126
 H 0.55986 0.68374 0.78001   0.097401
 H 0.46501 0.77268 0.84109   0.120162
 H 0.1206 0.85293 0.67836   0.120508
 H 0.18867 0.73289 0.67501   0.0961
 H 0.05731 0.6507 0.74211   0.130225
 H 0.71877 0.01227 0.75069   0.117095
 H 0.61085 0.12041 0.78597   0.070305
 H 0.61536 0.15426 0.89196   0.099004
 H 0.73757 0.08199 0.96555   0.087398
 H 0.84034 0.97392 0.93231   0.121765
 H 0.83873 0.75637 0.00284   0.117778
 H 0.73756 0.70133 0.09429   0.088663
 H 0.56021 0.61704 0.08688   0.093612
 H 0.49614 0.57663 0.98479   0.075443
 H 0.60199 0.62276 0.89099   0.117
 H 0.15204 0.66923 0.03941   0.366924
 H 0.14903 0.45344 0.93755   0.126151
 H 0.35191 0.47897 0.86558   0.096718
 H 0.37271 0.59339 0.82823   0.092877
 H 0.2518 0.68449 0.87397   0.081613
 H 0.06527 0.66418 0.94832   0.114712
 H 0.65949 0.39288 0.01917   0.137091
 H 0.55629 0.374 0.1199   0.089517
 H 0.65425 0.43058 0.20908   0.108616
 H 0.03497 0.59191 0.30218   0.112383
 H 0.161 0.67921 0.36014   0.091667
 H 0.158 0.79271 0.31978   0.085126
 H 0.05986 0.81626 0.21999   0.097401
 H 0.96501 0.72732 0.15891   0.120162
 H 0.6206 0.64707 0.32164   0.120508
 H 0.68867 0.76711 0.32499   0.0961
 H 0.55731 0.8493 0.25789   0.130226
 H 0.21877 0.48773 0.24931   0.117095
 H 0.11085 0.37959 0.21403   0.070305
 H 0.11536 0.34574 0.10804   0.099001
 H 0.23757 0.41801 0.03445   0.087399
 H 0.34034 0.52608 0.06769   0.121766
 H 0.33873 0.74363 0.99716   0.117778
 H 0.23756 0.79867 0.90571   0.088663
 H 0.06021 0.88296 0.91312   0.093612
 H 0.99614 0.92337 0.01521   0.075443
 H 0.10199 0.87724 0.10901   0.117001
 H 0.34796 0.33077 0.53941   0.366924
 H 0.35097 0.54656 0.43755   0.12615
 H 0.14809 0.52103 0.36558   0.096719
 H 0.12729 0.40661 0.32823   0.092878
 H 0.2482 0.31551 0.37397   0.081613
 H 0.43473 0.33582 0.44832   0.114712
 H 0.84051 0.60712 0.51917   0.137089
 H 0.94371 0.626 0.6199   0.089517
 H 0.84575 0.56942 0.70908   0.108616
 H 0.46503 0.40809 0.80218   0.112383
 H 0.339 0.32079 0.86014   0.091665
 H 0.342 0.20729 0.81978   0.085126
 H 0.44014 0.18374 0.71999   0.097401
 H 0.53499 0.27268 0.65891   0.120162
 H 0.8794 0.35293 0.82164   0.120508
 H 0.81133 0.23289 0.82499   0.096099
 H 0.94269 0.1507 0.75789   0.130226
 H 0.28123 0.51227 0.74931   0.117095
 H 0.38915 0.62041 0.71403   0.070306
 H 0.38464 0.65426 0.60804   0.099001
 H 0.26243 0.58199 0.53445   0.087398
 H 0.15966 0.47392 0.56769   0.121766
 H 0.16127 0.25637 0.49716   0.117778
 H 0.26244 0.20133 0.40571   0.088663
 H 0.43979 0.11704 0.41312   0.093612
 H 0.50386 0.07663 0.51521   0.075443
 H 0.39801 0.12276 0.60901   0.117001
 C 0.907 0.055 0.5473   0.269755
 C 0.826 0.0 0.575   -0.217458
 C 0.719 0.015 0.619   -0.041433
 C 0.693 0.084 0.637   -0.107679
 C 0.774 0.135 0.612   -0.036802
 C 0.878 0.123 0.5685   -0.198814
 C 0.121 0.9939 0.5095   0.541195
 C 0.199 0.9746 0.4513   0.128333
 C 0.308 0.921 0.4449   -0.133083
 C 0.366 0.912 0.386   -0.004854
 C 0.315 0.945 0.3342   -0.09863
 C 0.208 0.9964 0.3415   0.124031
 C 0.147 0.0455 0.2929   0.541412
 C 0.003 0.1475 0.2764   0.296986
 C 0.944 0.136 0.218   -0.180361
 C 0.884 0.188 0.183   -0.068832
 C 0.882 0.255 0.206   -0.124041
 C 0.94 0.268 0.265   -0.048753
 C 0.997 0.2157 0.2998   -0.234736
 C 0.707 0.0151 0.3401   0.29605
 C 0.781 0.9732 0.2977   -0.187468
 C 0.841 0.912 0.317   -0.048654
 C 0.835 0.8899 0.38   -0.146983
 C 0.767 0.932 0.4216   -0.030482
 C 0.708 0.994 0.402   -0.243651
 C 0.57 0.085 0.2702   0.559414
 C 0.511 0.1598 0.2571   0.135064
 C 0.418 0.181 0.212   -0.126623
 C 0.387 0.25 0.206   0.00304
 C 0.456 0.2995 0.247   -0.153759
 C 0.551 0.2744 0.2897   0.137104
 C 0.632 0.3154 0.3402   0.547554
 C 0.759 0.3073 0.4394   0.307545
 C 0.726 0.2827 0.4974   -0.222313
 C 0.789 0.313 0.5518   -0.066294
 C 0.893 0.365 0.548   -0.138333
 C 0.928 0.388 0.487   -0.030165
 C 0.866 0.361 0.433   -0.193112
 C 0.593 0.945 0.0473   0.269755
 C 0.674 0.0 0.075   -0.217458
 C 0.781 0.985 0.119   -0.041434
 C 0.807 0.916 0.137   -0.107679
 C 0.726 0.865 0.112   -0.036802
 C 0.622 0.877 0.0685   -0.198814
 C 0.379 0.0061 0.0095   0.541195
 C 0.301 0.0254 0.9513   0.128333
 C 0.192 0.079 0.9449   -0.133082
 C 0.134 0.088 0.886   -0.004854
 C 0.185 0.055 0.8342   -0.09863
 C 0.292 0.0036 0.8415   0.124031
 C 0.353 0.9545 0.7929   0.541412
 C 0.497 0.8525 0.7764   0.296987
 C 0.556 0.864 0.718   -0.180361
 C 0.616 0.812 0.683   -0.068831
 C 0.618 0.745 0.706   -0.124041
 C 0.56 0.732 0.765   -0.048752
 C 0.503 0.7843 0.7998   -0.234736
 C 0.793 0.9849 0.8401   0.29605
 C 0.719 0.0268 0.7977   -0.187468
 C 0.659 0.088 0.817   -0.048654
 C 0.665 0.1101 0.88   -0.146984
 C 0.733 0.068 0.9216   -0.030482
 C 0.792 0.006 0.902   -0.243651
 C 0.93 0.915 0.7702   0.559414
 C 0.989 0.8402 0.7571   0.135064
 C 0.082 0.819 0.712   -0.126624
 C 0.113 0.75 0.706   0.00304
 C 0.044 0.7005 0.747   -0.153759
 C 0.949 0.7256 0.7897   0.137104
 C 0.868 0.6846 0.8402   0.547554
 C 0.741 0.6927 0.9394   0.307545
 C 0.774 0.7173 0.9974   -0.222313
 C 0.711 0.687 0.0518   -0.066294
 C 0.607 0.635 0.048   -0.138333
 C 0.572 0.612 0.987   -0.030165
 C 0.634 0.639 0.933   -0.193112
 C 0.093 0.555 0.9527   0.269755
 C 0.174 0.5 0.925   -0.217458
 C 0.281 0.515 0.881   -0.041433
 C 0.307 0.584 0.863   -0.107679
 C 0.226 0.635 0.888   -0.036802
 C 0.122 0.623 0.9315   -0.198814
 C 0.879 0.4939 0.9905   0.541195
 C 0.801 0.4746 0.0487   0.128333
 C 0.692 0.421 0.0551   -0.133082
 C 0.634 0.412 0.114   -0.004854
 C 0.685 0.445 0.1658   -0.09863
 C 0.792 0.4964 0.1585   0.124031
 C 0.853 0.5455 0.2071   0.541412
 C 0.997 0.6475 0.2236   0.296986
 C 0.056 0.636 0.282   -0.180361
 C 0.116 0.688 0.317   -0.068832
 C 0.118 0.755 0.294   -0.124041
 C 0.06 0.768 0.235   -0.048753
 C 0.003 0.7157 0.2002   -0.234737
 C 0.293 0.5151 0.1599   0.29605
 C 0.219 0.4732 0.2023   -0.187468
 C 0.159 0.412 0.183   -0.048654
 C 0.165 0.3899 0.12   -0.146982
 C 0.233 0.432 0.0784   -0.030482
 C 0.292 0.494 0.098   -0.243651
 C 0.43 0.585 0.2298   0.559414
 C 0.489 0.6598 0.2429   0.135064
 C 0.582 0.681 0.288   -0.126624
 C 0.613 0.75 0.294   0.003041
 C 0.544 0.7995 0.253   -0.153759
 C 0.449 0.7744 0.2103   0.137104
 C 0.368 0.8154 0.1598   0.547555
 C 0.241 0.8073 0.0606   0.307545
 C 0.274 0.7827 0.0026   -0.222313
 C 0.211 0.813 0.9482   -0.066294
 C 0.107 0.865 0.952   -0.138333
 C 0.072 0.888 0.013   -0.030166
 C 0.134 0.861 0.067   -0.193112
 C 0.407 0.445 0.4527   0.269755
 C 0.326 0.5 0.425   -0.217458
 C 0.219 0.485 0.381   -0.041433
 C 0.193 0.416 0.363   -0.107679
 C 0.274 0.365 0.388   -0.036802
 C 0.378 0.377 0.4315   -0.198814
 C 0.621 0.5061 0.4905   0.541195
 C 0.699 0.5254 0.5487   0.128333
 C 0.808 0.579 0.5551   -0.133082
 C 0.866 0.588 0.614   -0.004854
 C 0.815 0.555 0.6658   -0.09863
 C 0.708 0.5036 0.6585   0.124031
 C 0.647 0.4545 0.7071   0.541412
 C 0.503 0.3525 0.7236   0.296987
 C 0.444 0.364 0.782   -0.180361
 C 0.384 0.312 0.817   -0.068831
 C 0.382 0.245 0.794   -0.124041
 C 0.44 0.232 0.735   -0.048753
 C 0.497 0.2843 0.7002   -0.234737
 C 0.207 0.4849 0.6599   0.29605
 C 0.281 0.5268 0.7023   -0.187468
 C 0.341 0.588 0.683   -0.048655
 C 0.335 0.6101 0.62   -0.146983
 C 0.267 0.568 0.5784   -0.030482
 C 0.208 0.506 0.598   -0.243651
 C 0.07 0.415 0.7298   0.559414
 C 0.011 0.3402 0.7429   0.135064
 C 0.918 0.319 0.788   -0.126624
 C 0.887 0.25 0.794   0.003041
 C 0.956 0.2005 0.753   -0.153759
 C 0.051 0.2256 0.7103   0.137104
 C 0.132 0.1846 0.6598   0.547555
 C 0.259 0.1927 0.5606   0.307545
 C 0.226 0.2173 0.5026   -0.222313
 C 0.289 0.187 0.4482   -0.066294
 C 0.393 0.135 0.452   -0.138333
 C 0.428 0.112 0.513   -0.030166
 C 0.366 0.139 0.567   -0.193112
 N 0.018 0.042 0.4993   -0.580816
 N 0.153 0.0082 0.3994   -0.313713
 N 0.062 0.0959 0.3182   -0.596227
 N 0.646 0.0817 0.3226   -0.597918
 N 0.575 0.2071 0.2958   -0.314819
 N 0.685 0.2752 0.3859   -0.610026
 N 0.482 0.958 0.9993   -0.580816
 N 0.347 0.9918 0.8994   -0.313713
 N 0.438 0.9041 0.8182   -0.596227
 N 0.854 0.9183 0.8226   -0.597918
 N 0.925 0.7929 0.7958   -0.314819
 N 0.815 0.7248 0.8859   -0.610026
 N 0.982 0.542 0.000700000000002   -0.580816
 N 0.847 0.5082 0.1006   -0.313713
 N 0.938 0.5959 0.1818   -0.596227
 N 0.354 0.5817 0.1774   -0.597918
 N 0.425 0.7071 0.2042   -0.314819
 N 0.315 0.7752 0.1141   -0.610026
 N 0.518 0.458 0.5007   -0.580816
 N 0.653 0.4918 0.6006   -0.313713
 N 0.562 0.4041 0.6818   -0.596227
 N 0.146 0.4183 0.6774   -0.597918
 N 0.075 0.2929 0.7042   -0.314819
 N 0.185 0.2248 0.6141   -0.610026
 O 0.852 0.1456 0.4193   -0.841532
 O 0.157 0.9649 0.5607   -0.657561
 O 0.178 0.037 0.2362   -0.615922
 O 0.532 0.0397 0.2332   -0.647407
 O 0.643 0.3796 0.3322   -0.65518
 O 0.648 0.8544 0.9193   -0.841532
 O 0.343 0.0351 0.0607   -0.657561
 O 0.322 0.963 0.7362   -0.615922
 O 0.968 0.9603 0.7332   -0.647407
 O 0.857 0.6204 0.8322   -0.65518
 O 0.148 0.6456 0.0807   -0.841532
 O 0.843 0.4649 0.9393   -0.657561
 O 0.822 0.537 0.2638   -0.615922
 O 0.468 0.5397 0.2668   -0.647407
 O 0.357 0.8796 0.1678   -0.65518
 O 0.352 0.3544 0.5807   -0.841532
 O 0.657 0.5351 0.4393   -0.657561
 O 0.678 0.463 0.7638   -0.615922
 O 0.032 0.4603 0.7668   -0.647407
 O 0.143 0.1204 0.6678   -0.65518
