{'_ref': 'TBD', '_srcid': 'CAKYAQ_clean', 'submitters': [{'name': 'Dalar Nazarian Jeff Camp and David Sholl', 'email': 'dalar@gatech.edu jcamp6@gatech.edu'}], '_method': 'VASP DFT with PBE;DDEC'}
data_ZnSiH16C24(N2F3)2
_symmetry_space_group_name_H-M   'P 1'
_cell_length_a   15.06659997
_cell_length_b   15.77059952
_cell_length_c   15.77060000
_cell_angle_alpha   76.81029965
_cell_angle_beta   61.46610015
_cell_angle_gamma   61.46610019
_symmetry_Int_Tables_number   1
_chemical_formula_structural   ZnSiH16C24(N2F3)2
_chemical_formula_sum   'Zn2 Si2 H32 C48 N8 F12'
_cell_volume   2892.20757481
_cell_formula_units_Z   2
loop_
 _symmetry_equiv_pos_site_id
 _symmetry_equiv_pos_as_xyz
  1  'x, y, z'
loop_
 _atom_site_label
 _atom_site_fract_x
 _atom_site_fract_y
 _atom_site_fract_z
 _atom_site_charge
 Zn 0.25 0.0 0.0   0.769441
 Zn 0.75 0.0 0.0   0.769439
 Si 0.0 0.0 0.0   1.801557
 Si 0.5 0.0 0.0   1.801557
 H 0.2376 0.1679 0.0769   0.09543
 H 0.1548 0.3355 0.0795   0.142478
 H 0.4824 0.8321 0.9231   0.095539
 H 0.5698 0.6645 0.9205   0.141427
 H 0.3145 0.9231 0.1679   0.094951
 H 0.2343 0.9205 0.3355   0.142036
 H 0.4055 0.0769 0.8321   0.094341
 H 0.4903 0.0795 0.6645   0.140459
 H 0.0176 0.0769 0.1679   0.095539
 H 0.9302 0.0795 0.3355   0.141427
 H 0.2624 0.9231 0.8321   0.09543
 H 0.3452 0.9205 0.6645   0.142478
 H 0.0945 0.1679 0.9231   0.094341
 H 0.0097 0.3355 0.9205   0.140459
 H 0.1855 0.8321 0.0769   0.094951
 H 0.2657 0.6645 0.0795   0.142036
 H 0.7624 0.8321 0.9231   0.09543
 H 0.8452 0.6645 0.9205   0.142473
 H 0.5176 0.1679 0.0769   0.095539
 H 0.4302 0.3355 0.0795   0.141422
 H 0.6855 0.0769 0.8321   0.094951
 H 0.7657 0.0795 0.6645   0.142031
 H 0.5945 0.9231 0.1679   0.094341
 H 0.5097 0.9205 0.3355   0.140454
 H 0.9824 0.9231 0.8321   0.095539
 H 0.0698 0.9205 0.6645   0.141423
 H 0.7376 0.0769 0.1679   0.09543
 H 0.6548 0.0795 0.3355   0.142473
 H 0.9055 0.8321 0.0769   0.094341
 H 0.9903 0.6645 0.0795   0.140454
 H 0.8145 0.1679 0.9231   0.094951
 H 0.7343 0.3355 0.9205   0.142031
 C 0.1904 0.2026 0.045   0.172355
 C 0.1416 0.3024 0.0466   -0.208405
 C 0.438 0.7974 0.955   0.171152
 C 0.4906 0.6976 0.9534   -0.205843
 C 0.2354 0.955 0.2026   0.171949
 C 0.1882 0.9534 0.3024   -0.206702
 C 0.393 0.045 0.7974   0.171382
 C 0.444 0.0466 0.6976   -0.20425
 C 0.062 0.045 0.2026   0.171152
 C 0.0094 0.0466 0.3024   -0.205842
 C 0.3096 0.955 0.7974   0.172354
 C 0.3584 0.9534 0.6976   -0.208405
 C 0.107 0.2026 0.955   0.171382
 C 0.056 0.3024 0.9534   -0.20425
 C 0.2646 0.7974 0.045   0.171949
 C 0.3118 0.6976 0.0466   -0.206701
 C 0.8096 0.7974 0.955   0.172356
 C 0.8584 0.6976 0.9534   -0.208398
 C 0.562 0.2026 0.045   0.171153
 C 0.5094 0.3024 0.0466   -0.205836
 C 0.7646 0.045 0.7974   0.17195
 C 0.8118 0.0466 0.6976   -0.206695
 C 0.607 0.955 0.2026   0.171384
 C 0.556 0.9534 0.3024   -0.204243
 C 0.938 0.955 0.7974   0.171153
 C 0.9906 0.9534 0.6976   -0.205836
 C 0.6904 0.045 0.2026   0.172356
 C 0.6416 0.0466 0.3024   -0.208398
 C 0.893 0.7974 0.045   0.171384
 C 0.944 0.6976 0.0466   -0.204243
 C 0.7354 0.2026 0.955   0.17195
 C 0.6882 0.3024 0.9534   -0.206694
 C 0.0733 0.3534 0.0   0.173784
 C 0.0209 0.4582 0.0   -0.090388
 C 0.4267 0.6466 0.0   0.173027
 C 0.4791 0.5418 0.0   -0.090566
 C 0.0733 0.0 0.3534   0.173027
 C 0.0209 0.0 0.4582   -0.090566
 C 0.4267 0.0 0.6466   0.173784
 C 0.4791 0.0 0.5418   -0.090388
 C 0.9267 0.6466 0.0   0.173722
 C 0.9791 0.5418 0.0   -0.090028
 C 0.5733 0.3534 0.0   0.172965
 C 0.5209 0.4582 0.0   -0.090207
 C 0.9267 0.0 0.6466   0.172965
 C 0.9791 0.0 0.5418   -0.090207
 C 0.5733 0.0 0.3534   0.173722
 C 0.5209 0.0 0.4582   -0.090028
 N 0.1733 0.1534 0.0   -0.307734
 N 0.3267 0.8466 0.0   -0.307553
 N 0.1733 0.0 0.1534   -0.307553
 N 0.3267 0.0 0.8466   -0.307733
 N 0.8267 0.8466 0.0   -0.307733
 N 0.6733 0.1534 0.0   -0.307552
 N 0.8267 0.0 0.8466   -0.307552
 N 0.6733 0.0 0.1534   -0.307732
 F 0.1127 0.0 0.0   -0.494606
 F 0.3873 0.0 0.0   -0.494606
 F 0.8873 0.0 0.0   -0.494606
 F 0.6127 0.0 0.0   -0.494606
 F 0.9816 0.9353 0.1015   -0.574996
 F 0.0184 0.0647 0.8985   -0.574996
 F 0.0831 0.8985 0.9353   -0.575072
 F 0.9169 0.1015 0.0647   -0.575072
 F 0.4816 0.1015 0.9353   -0.574996
 F 0.5184 0.8985 0.0647   -0.574996
 F 0.5831 0.9353 0.8985   -0.575072
 F 0.4169 0.0647 0.1015   -0.575072
