{'_ref': 'TBD', '_srcid': 'CAKYAQ_clean', 'submitters': [{'name': 'Dalar Nazarian Jeff Camp and David Sholl', 'email': 'dalar@gatech.edu jcamp6@gatech.edu'}], '_method': 'VASP DFT with PBE;DDEC'}
data_MnH22C24(NO2)2
_symmetry_space_group_name_H-M   'P 1'
_cell_length_a   13.55830000
_cell_length_b   13.90928798
_cell_length_c   16.28000000
_cell_angle_alpha   107.80215007
_cell_angle_beta   90.00000000
_cell_angle_gamma   119.16817352
_symmetry_Int_Tables_number   1
_chemical_formula_structural   MnH22C24(NO2)2
_chemical_formula_sum   'Mn4 H88 C96 N8 O16'
_cell_volume   2511.16814209
_cell_formula_units_Z   4
loop_
 _symmetry_equiv_pos_site_id
 _symmetry_equiv_pos_as_xyz
  1  'x, y, z'
loop_
 _atom_site_label
 _atom_site_fract_x
 _atom_site_fract_y
 _atom_site_fract_z
 _atom_site_charge
 Mn 0.5594 0.58918 0.13576   1.003066
 Mn 0.97022 0.41082 0.36424   1.002907
 Mn 0.4406 0.41082 0.86424   1.003067
 Mn 0.02978 0.58918 0.63576   1.002908
 H 0.6423 0.6286 0.6883   0.126823
 H 0.7582 0.7478 0.7075   0.11712
 H 0.6543 0.7462 0.7506   0.100257
 H 0.4722 0.68 0.5642   0.102406
 H 0.4744 0.5738 0.577   0.110142
 H 0.4732 0.67 0.6575   0.114372
 H 0.6418 0.8808 0.6931   0.108796
 H 0.7536 0.9024 0.6543   0.113414
 H 0.6417 0.8642 0.5934   0.101024
 H 0.7899 0.595 0.3383   0.098007
 H 0.7892 0.656 0.5945   0.100188
 H 0.5908 0.7106 0.4565   0.089669
 H 0.7148 0.4848 0.158   0.084038
 H 0.7142 0.3206 0.1537   0.135367
 H 0.3738 0.142 0.081   0.127879
 H 0.384 0.3088 0.0883   0.069278
 H 0.4615 0.0374 0.1008   0.095743
 H 0.6958 0.1508 0.1483   0.121304
 H 0.4187 0.7158 0.1319   0.070646
 H 0.4314 0.88 0.1298   0.121308
 H 0.77 0.0188 0.1378   0.144898
 H 0.7451 0.845 0.1373   0.083773
 H 0.0137 0.3714 0.8117   0.12684
 H 0.0104 0.2522 0.7925   0.117154
 H 0.9081 0.2538 0.7494   0.10027
 H 0.7922 0.32 0.9358   0.102397
 H 0.9006 0.4262 0.923   0.110148
 H 0.8032 0.33 0.8425   0.114383
 H 0.761 0.1192 0.8069   0.108777
 H 0.8512 0.0976 0.8457   0.113422
 H 0.7775 0.1358 0.9066   0.101023
 H 0.1949 0.405 0.1617   0.097998
 H 0.1332 0.344 0.9055   0.100186
 H 0.8802 0.2894 0.0435   0.089655
 H 0.23 0.5152 0.342   0.08406
 H 0.3936 0.6794 0.3463   0.135361
 H 0.2318 0.858 0.419   0.12787
 H 0.0752 0.6912 0.4117   0.069271
 H 0.4241 0.9626 0.3992   0.095735
 H 0.545 0.8492 0.3517   0.121295
 H 0.7029 0.2842 0.3681   0.070646
 H 0.5514 0.12 0.3702   0.121317
 H 0.7512 0.9812 0.3622   0.144913
 H 0.9001 0.155 0.3627   0.083767
 H 0.3577 0.3714 0.3117   0.126823
 H 0.2418 0.2522 0.2925   0.117119
 H 0.3457 0.2538 0.2494   0.100257
 H 0.5278 0.32 0.4358   0.102406
 H 0.5256 0.4262 0.423   0.110141
 H 0.5268 0.33 0.3425   0.114372
 H 0.3582 0.1192 0.3069   0.108797
 H 0.2464 0.0976 0.3457   0.113413
 H 0.3583 0.1358 0.4066   0.101026
 H 0.2101 0.405 0.6617   0.098007
 H 0.2108 0.344 0.4055   0.100188
 H 0.4092 0.2894 0.5435   0.089669
 H 0.2852 0.5152 0.842   0.084038
 H 0.2858 0.6794 0.8463   0.135367
 H 0.6262 0.858 0.919   0.127878
 H 0.616 0.6912 0.9117   0.069278
 H 0.5385 0.9626 0.8992   0.095744
 H 0.3042 0.8492 0.8517   0.121304
 H 0.5813 0.2842 0.8681   0.070647
 H 0.5686 0.12 0.8702   0.121309
 H 0.23 0.9812 0.8622   0.144897
 H 0.2549 0.155 0.8627   0.083773
 H 0.9863 0.6286 0.1883   0.12684
 H 0.9896 0.7478 0.2075   0.117153
 H 0.0919 0.7462 0.2506   0.10027
 H 0.2078 0.68 0.0642   0.102398
 H 0.0994 0.5738 0.077   0.110147
 H 0.1968 0.67 0.1575   0.114383
 H 0.239 0.8808 0.1931   0.108778
 H 0.1488 0.9024 0.1543   0.11342
 H 0.2225 0.8642 0.0934   0.101025
 H 0.8051 0.595 0.8383   0.097998
 H 0.8668 0.656 0.0945   0.100186
 H 0.1198 0.7106 0.9565   0.089655
 H 0.77 0.4848 0.658   0.08406
 H 0.6064 0.3206 0.6537   0.135361
 H 0.7682 0.142 0.581   0.127869
 H 0.9248 0.3088 0.5883   0.069271
 H 0.5759 0.0374 0.6008   0.095736
 H 0.455 0.1508 0.6483   0.121295
 H 0.2971 0.7158 0.6319   0.070646
 H 0.4486 0.88 0.6298   0.121318
 H 0.2488 0.0188 0.6378   0.144912
 H 0.0999 0.845 0.6373   0.083766
 C 0.676 0.711 0.699   -0.38383
 C 0.5007 0.656 0.6033   -0.378582
 C 0.6712 0.8554 0.6425   -0.384735
 C 0.6845 0.6526 0.3847   -0.118167
 C 0.761 0.6162 0.3881   -0.03103
 C 0.7952 0.611 0.4652   -0.140618
 C 0.7588 0.6514 0.5413   -0.080063
 C 0.6785 0.6842 0.5394   -0.008628
 C 0.643 0.6862 0.4595   -0.084885
 C 0.6453 0.6564 0.2996   0.631084
 C 0.8741 0.564 0.4683   0.676707
 C 0.6344 0.7278 0.6216   0.226911
 C 0.6447 0.4144 0.1424   0.188761
 C 0.645 0.316 0.1403   -0.203428
 C 0.5452 0.211 0.1188   0.131924
 C 0.4447 0.2112 0.0977   -0.227999
 C 0.4521 0.3114 0.1017   0.183864
 C 0.5351 0.103 0.1164   -0.114019
 C 0.6211 0.087 0.1343   -0.126437
 C 0.4907 0.7768 0.132   0.180582
 C 0.4976 0.8756 0.1313   -0.223995
 C 0.6031 0.9724 0.1327   0.137435
 C 0.697 0.958 0.1357   -0.231833
 C 0.6805 0.8522 0.1354   0.178557
 C 0.965 0.289 0.801   -0.38391
 C 0.8447 0.344 0.8967   -0.378586
 C 0.8158 0.1446 0.8575   -0.384727
 C 0.0319 0.3474 0.1153   -0.118212
 C 0.1448 0.3838 0.1119   -0.030978
 C 0.1842 0.389 0.0348   -0.14067
 C 0.1074 0.3486 0.9587   -0.080037
 C 0.9943 0.3158 0.9606   -0.008632
 C 0.9568 0.3138 0.0405   -0.084866
 C 0.9889 0.3436 0.2004   0.631072
 C 0.3101 0.436 0.0317   0.676764
 C 0.9066 0.2722 0.8784   0.226931
 C 0.2303 0.5856 0.3576   0.18871
 C 0.329 0.684 0.3597   -0.20342
 C 0.3342 0.789 0.3812   0.13191
 C 0.2335 0.7888 0.4023   -0.22798
 C 0.1407 0.6886 0.3983   0.183856
 C 0.4321 0.897 0.3836   -0.114028
 C 0.5341 0.913 0.3657   -0.126393
 C 0.7139 0.2232 0.368   0.180558
 C 0.622 0.1244 0.3687   -0.223952
 C 0.6307 0.0276 0.3673   0.137381
 C 0.739 0.042 0.3643   -0.231823
 C 0.8283 0.1478 0.3646   0.178568
 C 0.324 0.289 0.301   -0.38383
 C 0.4993 0.344 0.3967   -0.378583
 C 0.3288 0.1446 0.3575   -0.384735
 C 0.3155 0.3474 0.6153   -0.118167
 C 0.239 0.3838 0.6119   -0.03103
 C 0.2048 0.389 0.5348   -0.140618
 C 0.2412 0.3486 0.4587   -0.080062
 C 0.3215 0.3158 0.4606   -0.008628
 C 0.357 0.3138 0.5405   -0.084885
 C 0.3547 0.3436 0.7004   0.631084
 C 0.1259 0.436 0.5317   0.676707
 C 0.3656 0.2722 0.3784   0.226911
 C 0.3553 0.5856 0.8576   0.188761
 C 0.355 0.684 0.8597   -0.203428
 C 0.4548 0.789 0.8812   0.131924
 C 0.5553 0.7888 0.9023   -0.227998
 C 0.5479 0.6886 0.8983   0.183864
 C 0.4649 0.897 0.8836   -0.114019
 C 0.3789 0.913 0.8657   -0.126437
 C 0.5093 0.2232 0.868   0.180583
 C 0.5024 0.1244 0.8687   -0.223995
 C 0.3969 0.0276 0.8673   0.137436
 C 0.303 0.042 0.8643   -0.231833
 C 0.3195 0.1478 0.8646   0.178557
 C 0.035 0.711 0.199   -0.38391
 C 0.1553 0.656 0.1033   -0.378587
 C 0.1842 0.8554 0.1425   -0.384727
 C 0.9681 0.6526 0.8847   -0.118212
 C 0.8552 0.6162 0.8881   -0.030978
 C 0.8158 0.611 0.9652   -0.140671
 C 0.8926 0.6514 0.0413   -0.080037
 C 0.0057 0.6842 0.0394   -0.008632
 C 0.0432 0.6862 0.9595   -0.084866
 C 0.0111 0.6564 0.7996   0.631072
 C 0.6899 0.564 0.9683   0.676764
 C 0.0934 0.7278 0.1216   0.226931
 C 0.7697 0.4144 0.6424   0.188711
 C 0.671 0.316 0.6403   -0.20342
 C 0.6658 0.211 0.6188   0.13191
 C 0.7665 0.2112 0.5977   -0.227979
 C 0.8593 0.3114 0.6017   0.183857
 C 0.5679 0.103 0.6164   -0.114027
 C 0.4659 0.087 0.6343   -0.126393
 C 0.2861 0.7768 0.632   0.180559
 C 0.378 0.8756 0.6313   -0.223951
 C 0.3693 0.9724 0.6327   0.137382
 C 0.261 0.958 0.6357   -0.231823
 C 0.1717 0.8522 0.6354   0.178569
 N 0.5497 0.416 0.1235   -0.365744
 N 0.579 0.758 0.1328   -0.362633
 N 0.1337 0.584 0.3765   -0.365662
 N 0.821 0.242 0.3672   -0.362615
 N 0.4503 0.584 0.8765   -0.365744
 N 0.421 0.242 0.8672   -0.362633
 N 0.8663 0.416 0.6235   -0.365663
 N 0.179 0.758 0.6328   -0.362615
 O 0.711 0.67 0.2433   -0.61003
 O 0.5472 0.6392 0.2836   -0.595174
 O 0.9351 0.6 0.5422   -0.620218
 O 0.8764 0.4958 0.3975   -0.583251
 O 0.041 0.33 0.2567   -0.609996
 O 0.908 0.3608 0.2164   -0.595149
 O 0.3351 0.4 0.9578   -0.620251
 O 0.3806 0.5042 0.1025   -0.583303
 O 0.289 0.33 0.7567   -0.610031
 O 0.4528 0.3608 0.7164   -0.595174
 O 0.0649 0.4 0.4578   -0.620218
 O 0.1236 0.5042 0.6025   -0.583251
 O 0.959 0.67 0.7433   -0.609996
 O 0.092 0.6392 0.7836   -0.595149
 O 0.6649 0.6 0.0422   -0.620251
 O 0.6194 0.4958 0.8975   -0.583303
