{'_ref': 'TBD', '_srcid': 'CAKYAQ_clean', 'submitters': [{'name': 'Dalar Nazarian Jeff Camp and David Sholl', 'email': 'dalar@gatech.edu jcamp6@gatech.edu'}], '_method': 'VASP DFT with PBE;DDEC'}
data_AlPH2CO3F
_symmetry_space_group_name_H-M   'P 1'
_cell_length_a   4.97800000
_cell_length_b   8.18900001
_cell_length_c   12.00000000
_cell_angle_alpha   90.00000000
_cell_angle_beta   90.00000000
_cell_angle_gamma   91.97000139
_symmetry_Int_Tables_number   1
_chemical_formula_structural   AlPH2CO3F
_chemical_formula_sum   'Al4 P4 H8 C4 O12 F4'
_cell_volume   488.88898176
_cell_formula_units_Z   4
loop_
 _symmetry_equiv_pos_site_id
 _symmetry_equiv_pos_as_xyz
  1  'x, y, z'
loop_
 _atom_site_label
 _atom_site_fract_x
 _atom_site_fract_y
 _atom_site_fract_z
 _atom_site_charge
 Al 0.5 0.0 0.5   1.915155
 Al 0.5 0.0 0.0   1.915148
 Al 0.7584 0.8551 0.75   2.001119
 Al 0.2416 0.1449 0.25   2.001119
 P 0.9948 0.7678 0.51474   1.675214
 P 0.0052 0.2322 0.01474   1.675214
 P 0.0052 0.2322 0.48526   1.675215
 P 0.9948 0.7678 0.98526   1.675214
 H 0.9643 0.557 0.3883   0.174001
 H 0.7253 0.539 0.4813   0.161
 H 0.0357 0.443 0.8883   0.174001
 H 0.2747 0.461 0.9813   0.161
 H 0.0357 0.443 0.6117   0.174001
 H 0.2747 0.461 0.5187   0.161003
 H 0.9643 0.557 0.1117   0.174001
 H 0.7253 0.539 0.0187   0.161003
 C 0.9213 0.564 0.4693   -0.493466
 C 0.0787 0.436 0.9693   -0.493466
 C 0.0787 0.436 0.5307   -0.493468
 C 0.9213 0.564 0.0307   -0.493468
 O 0.9642 0.767 0.6416   -0.987719
 O 0.797 0.8808 0.4567   -0.951668
 O 0.2836 0.8072 0.4809   -0.915125
 O 0.0358 0.233 0.1416   -0.987719
 O 0.203 0.1192 0.9567   -0.951667
 O 0.7164 0.1928 0.9809   -0.915125
 O 0.0358 0.233 0.3584   -0.987718
 O 0.203 0.1192 0.5433   -0.951668
 O 0.7164 0.1928 0.5191   -0.915125
 O 0.9642 0.767 0.8584   -0.987718
 O 0.797 0.8808 0.0433   -0.951667
 O 0.2836 0.8072 0.0191   -0.915125
 F 0.547 0.9523 0.6469   -0.620374
 F 0.453 0.0477 0.1469   -0.620374
 F 0.453 0.0477 0.3531   -0.620375
 F 0.547 0.9523 0.8531   -0.620374
