{'_ref': 'TBD', '_srcid': 'CAKYAQ_clean', 'submitters': [{'name': 'Dalar Nazarian Jeff Camp and David Sholl', 'email': 'dalar@gatech.edu jcamp6@gatech.edu'}], '_method': 'VASP DFT with PBE;DDEC'}
data_CdH36C48N12ClO4
_symmetry_space_group_name_H-M   'P 1'
_cell_length_a   15.89000000
_cell_length_b   15.89000000
_cell_length_c   21.70600000
_cell_angle_alpha   90.00000000
_cell_angle_beta   90.00000000
_cell_angle_gamma   90.00000000
_symmetry_Int_Tables_number   1
_chemical_formula_structural   CdH36C48N12ClO4
_chemical_formula_sum   'Cd4 H144 C192 N48 Cl4 O16'
_cell_volume   5480.5935226
_cell_formula_units_Z   4
loop_
 _symmetry_equiv_pos_site_id
 _symmetry_equiv_pos_as_xyz
  1  'x, y, z'
loop_
 _atom_site_label
 _atom_site_fract_x
 _atom_site_fract_y
 _atom_site_fract_z
 _atom_site_charge
 Cd 0.05777 0.05777 0.0   0.79074
 Cd 0.94223 0.94223 0.5   0.79074
 Cd 0.44223 0.55777 0.25   0.79074
 Cd 0.55777 0.44223 0.75   0.79074
 H 0.3618 0.7296 0.2089   0.068943
 H 0.2611 0.7863 0.1449   0.118425
 H 0.2844 0.5812 0.0369   0.130236
 H 0.3884 0.5371 0.1013   0.067957
 H 0.2019 0.6477 0.971   0.076796
 H 0.0886 0.6986 0.9155   0.101113
 H 0.9981 0.7972 0.9583   0.086549
 H 0.1393 0.8004 0.1131   0.093394
 H 0.8822 0.0426 0.2088   0.104287
 H 0.7688 0.0616 0.276   0.093491
 H 0.6673 0.962 0.2879   0.099472
 H 0.7778 0.8222 0.154   0.084256
 H 0.6572 0.7637 0.141   0.119996
 H 0.5634 0.6555 0.1563   0.049582
 H 0.5065 0.7382 0.3199   0.063617
 H 0.6009 0.8488 0.3084   0.122861
 H 0.9681 0.7468 0.1548   0.333556
 H 0.9185 0.7335 0.0976   0.308491
 H 0.6382 0.2704 0.7089   0.068943
 H 0.7389 0.2137 0.6449   0.118425
 H 0.7156 0.4188 0.5369   0.130236
 H 0.6116 0.4629 0.6013   0.067957
 H 0.7981 0.3523 0.471   0.076796
 H 0.9114 0.3014 0.4155   0.101113
 H 0.0019 0.2028 0.4583   0.086549
 H 0.8607 0.1996 0.6131   0.093394
 H 0.1178 0.9574 0.7088   0.104287
 H 0.2312 0.9384 0.776   0.093491
 H 0.3327 0.038 0.7879   0.099472
 H 0.2222 0.1778 0.654   0.084256
 H 0.3428 0.2363 0.641   0.119996
 H 0.4366 0.3445 0.6563   0.049582
 H 0.4935 0.2618 0.8199   0.063617
 H 0.3991 0.1512 0.8084   0.122861
 H 0.0319 0.2532 0.6548   0.333556
 H 0.0815 0.2665 0.5976   0.308491
 H 0.7704 0.8618 0.4589   0.068943
 H 0.7137 0.7611 0.3949   0.118425
 H 0.9188 0.7844 0.2869   0.130236
 H 0.9629 0.8884 0.3513   0.067957
 H 0.8523 0.7019 0.221   0.076796
 H 0.8014 0.5886 0.1655   0.101113
 H 0.7028 0.4981 0.2083   0.086549
 H 0.6996 0.6393 0.3631   0.093394
 H 0.4574 0.3822 0.4588   0.104287
 H 0.4384 0.2688 0.526   0.093493
 H 0.538 0.1673 0.5379   0.099472
 H 0.6778 0.2778 0.404   0.084256
 H 0.7363 0.1572 0.391   0.119998
 H 0.8445 0.0634 0.4063   0.049582
 H 0.7618 0.0065 0.5699   0.063617
 H 0.6512 0.1009 0.5584   0.122861
 H 0.7532 0.4681 0.4048   0.333556
 H 0.7665 0.4185 0.3476   0.308491
 H 0.2296 0.1382 0.9589   0.068943
 H 0.2863 0.2389 0.8949   0.118425
 H 0.0812 0.2156 0.7869   0.130236
 H 0.0371 0.1116 0.8513   0.067957
 H 0.1477 0.2981 0.721   0.076796
 H 0.1986 0.4114 0.6655   0.101113
 H 0.2972 0.5019 0.7083   0.086549
 H 0.3004 0.3607 0.8631   0.093394
 H 0.5426 0.6178 0.9588   0.104287
 H 0.5616 0.7312 0.026   0.093493
 H 0.462 0.8327 0.0379   0.099472
 H 0.3222 0.7222 0.904   0.084256
 H 0.2637 0.8428 0.891   0.119998
 H 0.1555 0.9366 0.9063   0.049582
 H 0.2382 0.9935 0.0699   0.063617
 H 0.3488 0.8991 0.0584   0.122861
 H 0.2468 0.5319 0.9048   0.333556
 H 0.2335 0.5815 0.8476   0.308491
 H 0.1382 0.2296 0.0411   0.068943
 H 0.2389 0.2863 0.1051   0.118425
 H 0.2156 0.0812 0.2131   0.130236
 H 0.1116 0.0371 0.1487   0.067957
 H 0.2981 0.1477 0.279   0.076796
 H 0.4114 0.1986 0.3345   0.101113
 H 0.5019 0.2972 0.2917   0.08655
 H 0.3607 0.3004 0.1369   0.093394
 H 0.6178 0.5426 0.0412   0.104286
 H 0.7312 0.5616 0.974   0.093494
 H 0.8327 0.462 0.9621   0.099472
 H 0.7222 0.3222 0.096   0.084256
 H 0.8428 0.2637 0.109   0.119996
 H 0.9366 0.1555 0.0937   0.049582
 H 0.9935 0.2382 0.9301   0.063617
 H 0.8991 0.3488 0.9416   0.122861
 H 0.5319 0.2468 0.0952   0.333556
 H 0.5815 0.2335 0.1524   0.308492
 H 0.8618 0.7704 0.5411   0.068943
 H 0.7611 0.7137 0.6051   0.118425
 H 0.7844 0.9188 0.7131   0.130236
 H 0.8884 0.9629 0.6487   0.067957
 H 0.7019 0.8523 0.779   0.076796
 H 0.5886 0.8014 0.8345   0.101113
 H 0.4981 0.7028 0.7917   0.08655
 H 0.6393 0.6996 0.6369   0.093394
 H 0.3822 0.4574 0.5412   0.104286
 H 0.2688 0.4384 0.474   0.093494
 H 0.1673 0.538 0.4621   0.099472
 H 0.2778 0.6778 0.596   0.084256
 H 0.1572 0.7363 0.609   0.119996
 H 0.0634 0.8445 0.5937   0.049582
 H 0.0065 0.7618 0.4301   0.063617
 H 0.1009 0.6512 0.4416   0.122861
 H 0.4681 0.7532 0.5952   0.333556
 H 0.4185 0.7665 0.6524   0.308492
 H 0.7296 0.3618 0.7911   0.068943
 H 0.7863 0.2611 0.8551   0.118425
 H 0.5812 0.2844 0.9631   0.130236
 H 0.5371 0.3884 0.8987   0.067957
 H 0.6477 0.2019 0.029   0.076796
 H 0.6986 0.0886 0.0845   0.101113
 H 0.7972 0.9981 0.0417   0.08655
 H 0.8004 0.1393 0.8869   0.093394
 H 0.0426 0.8822 0.7912   0.104286
 H 0.0616 0.7688 0.724   0.093496
 H 0.962 0.6673 0.7121   0.099472
 H 0.8222 0.7778 0.846   0.084257
 H 0.7637 0.6572 0.859   0.119998
 H 0.6555 0.5634 0.8437   0.049582
 H 0.7382 0.5065 0.6801   0.063617
 H 0.8488 0.6009 0.6916   0.122861
 H 0.7468 0.9681 0.8452   0.333556
 H 0.7335 0.9185 0.9024   0.308492
 H 0.2704 0.6382 0.2911   0.068943
 H 0.2137 0.7389 0.3551   0.118425
 H 0.4188 0.7156 0.4631   0.130236
 H 0.4629 0.6116 0.3987   0.067957
 H 0.3523 0.7981 0.529   0.076796
 H 0.3014 0.9114 0.5845   0.101113
 H 0.2028 0.0019 0.5417   0.08655
 H 0.1996 0.8607 0.3869   0.093394
 H 0.9574 0.1178 0.2912   0.104286
 H 0.9384 0.2312 0.224   0.093496
 H 0.038 0.3327 0.2121   0.099472
 H 0.1778 0.2222 0.346   0.084257
 H 0.2363 0.3428 0.359   0.119998
 H 0.3445 0.4366 0.3437   0.049582
 H 0.2618 0.4935 0.1801   0.063617
 H 0.1512 0.3991 0.1916   0.122861
 H 0.2532 0.0319 0.3452   0.333556
 H 0.2665 0.0815 0.4024   0.308492
 C 0.3438 0.6984 0.174   0.129932
 C 0.283 0.7321 0.1359   -0.19922
 C 0.2536 0.6897 0.0859   0.094424
 C 0.2976 0.613 0.0727   -0.207903
 C 0.3582 0.5865 0.1121   0.169216
 C 0.183 0.7182 0.0482   0.011013
 C 0.1662 0.6889 0.9889   -0.083088
 C 0.0987 0.7189 0.956   -0.097935
 C 0.0454 0.7782 0.9813   -0.108385
 C 0.0599 0.8107 0.0401   -0.055461
 C 0.1287 0.7795 0.0728   -0.109247
 C 0.0056 0.8713 0.0698   0.256782
 C 0.9075 0.9229 0.1322   0.24216
 C 0.8399 0.931 0.1751   -0.004426
 C 0.8387 0.0018 0.2113   -0.107184
 C 0.7715 0.0119 0.2517   -0.08166
 C 0.7101 0.9539 0.258   -0.123823
 C 0.7086 0.8802 0.2199   0.012026
 C 0.7754 0.8708 0.1795   -0.128332
 C 0.6444 0.8153 0.2254   0.109089
 C 0.6287 0.759 0.1793   -0.220628
 C 0.5712 0.6952 0.1886   0.164208
 C 0.538 0.7421 0.2828   0.165911
 C 0.5957 0.8083 0.2765   -0.215799
 C 0.6562 0.3016 0.674   0.129932
 C 0.717 0.2679 0.6359   -0.19922
 C 0.7464 0.3103 0.5859   0.094424
 C 0.7024 0.387 0.5727   -0.207903
 C 0.6418 0.4135 0.6121   0.169216
 C 0.817 0.2818 0.5482   0.011013
 C 0.8338 0.3111 0.4889   -0.083088
 C 0.9013 0.2811 0.456   -0.097935
 C 0.9546 0.2218 0.4813   -0.108385
 C 0.9401 0.1893 0.5401   -0.055461
 C 0.8713 0.2205 0.5728   -0.109247
 C 0.9944 0.1287 0.5698   0.256782
 C 0.0925 0.0771 0.6322   0.24216
 C 0.1601 0.069 0.6751   -0.004426
 C 0.1613 0.9982 0.7113   -0.107184
 C 0.2285 0.9881 0.7517   -0.08166
 C 0.2899 0.0461 0.758   -0.123823
 C 0.2914 0.1198 0.7199   0.012026
 C 0.2246 0.1292 0.6795   -0.128332
 C 0.3556 0.1847 0.7254   0.109089
 C 0.3713 0.241 0.6793   -0.220628
 C 0.4288 0.3048 0.6886   0.164208
 C 0.462 0.2579 0.7828   0.165911
 C 0.4043 0.1917 0.7765   -0.215799
 C 0.8016 0.8438 0.424   0.129932
 C 0.7679 0.783 0.3859   -0.19922
 C 0.8103 0.7536 0.3359   0.094424
 C 0.887 0.7976 0.3227   -0.207903
 C 0.9135 0.8582 0.3621   0.169216
 C 0.7818 0.683 0.2982   0.011013
 C 0.8111 0.6662 0.2389   -0.083087
 C 0.7811 0.5987 0.206   -0.097935
 C 0.7218 0.5454 0.2313   -0.108384
 C 0.6893 0.5599 0.2901   -0.055461
 C 0.7205 0.6287 0.3228   -0.109247
 C 0.6287 0.5056 0.3198   0.256782
 C 0.5771 0.4075 0.3822   0.24216
 C 0.569 0.3399 0.4251   -0.004426
 C 0.4982 0.3387 0.4613   -0.107184
 C 0.4881 0.2715 0.5017   -0.081661
 C 0.5461 0.2101 0.508   -0.123823
 C 0.6198 0.2086 0.4699   0.012026
 C 0.6292 0.2754 0.4295   -0.128332
 C 0.6847 0.1444 0.4754   0.109089
 C 0.741 0.1287 0.4293   -0.220629
 C 0.8048 0.0712 0.4386   0.164208
 C 0.7579 0.038 0.5328   0.165911
 C 0.6917 0.0957 0.5265   -0.215799
 C 0.1984 0.1562 0.924   0.129932
 C 0.2321 0.217 0.8859   -0.19922
 C 0.1897 0.2464 0.8359   0.094424
 C 0.113 0.2024 0.8227   -0.207903
 C 0.0865 0.1418 0.8621   0.169216
 C 0.2182 0.317 0.7982   0.011013
 C 0.1889 0.3338 0.7389   -0.083087
 C 0.2189 0.4013 0.706   -0.097935
 C 0.2782 0.4546 0.7313   -0.108384
 C 0.3107 0.4401 0.7901   -0.055461
 C 0.2795 0.3713 0.8228   -0.109247
 C 0.3713 0.4944 0.8198   0.256782
 C 0.4229 0.5925 0.8822   0.24216
 C 0.431 0.6601 0.9251   -0.004426
 C 0.5018 0.6613 0.9613   -0.107184
 C 0.5119 0.7285 0.0017   -0.081661
 C 0.4539 0.7899 0.008   -0.123823
 C 0.3802 0.7914 0.9699   0.012026
 C 0.3708 0.7246 0.9295   -0.128332
 C 0.3153 0.8556 0.9754   0.109089
 C 0.259 0.8713 0.9293   -0.220629
 C 0.1952 0.9288 0.9386   0.164208
 C 0.2421 0.962 0.0328   0.165911
 C 0.3083 0.9043 0.0265   -0.215799
 C 0.1562 0.1984 0.076   0.129932
 C 0.217 0.2321 0.1141   -0.19922
 C 0.2464 0.1897 0.1641   0.094424
 C 0.2024 0.113 0.1773   -0.207903
 C 0.1418 0.0865 0.1379   0.169216
 C 0.317 0.2182 0.2018   0.011013
 C 0.3338 0.1889 0.2611   -0.083088
 C 0.4013 0.2189 0.294   -0.097935
 C 0.4546 0.2782 0.2687   -0.108385
 C 0.4401 0.3107 0.2099   -0.055461
 C 0.3713 0.2795 0.1772   -0.109247
 C 0.4944 0.3713 0.1802   0.256782
 C 0.5925 0.4229 0.1178   0.24216
 C 0.6601 0.431 0.0749   -0.004426
 C 0.6613 0.5018 0.0387   -0.107184
 C 0.7285 0.5119 0.9983   -0.081661
 C 0.7899 0.4539 0.992   -0.123823
 C 0.7914 0.3802 0.0301   0.012026
 C 0.7246 0.3708 0.0705   -0.128332
 C 0.8556 0.3153 0.0246   0.109089
 C 0.8713 0.259 0.0707   -0.220628
 C 0.9288 0.1952 0.0614   0.164208
 C 0.962 0.2421 0.9672   0.165911
 C 0.9043 0.3083 0.9735   -0.215799
 C 0.8438 0.8016 0.576   0.129932
 C 0.783 0.7679 0.6141   -0.19922
 C 0.7536 0.8103 0.6641   0.094424
 C 0.7976 0.887 0.6773   -0.207903
 C 0.8582 0.9135 0.6379   0.169216
 C 0.683 0.7818 0.7018   0.011013
 C 0.6662 0.8111 0.7611   -0.083088
 C 0.5987 0.7811 0.794   -0.097935
 C 0.5454 0.7218 0.7687   -0.108385
 C 0.5599 0.6893 0.7099   -0.055461
 C 0.6287 0.7205 0.6772   -0.109247
 C 0.5056 0.6287 0.6802   0.256782
 C 0.4075 0.5771 0.6178   0.24216
 C 0.3399 0.569 0.5749   -0.004426
 C 0.3387 0.4982 0.5387   -0.107184
 C 0.2715 0.4881 0.4983   -0.081661
 C 0.2101 0.5461 0.492   -0.123823
 C 0.2086 0.6198 0.5301   0.012026
 C 0.2754 0.6292 0.5705   -0.128332
 C 0.1444 0.6847 0.5246   0.109089
 C 0.1287 0.741 0.5707   -0.220628
 C 0.0712 0.8048 0.5614   0.164208
 C 0.038 0.7579 0.4672   0.165911
 C 0.0957 0.6917 0.4735   -0.215799
 C 0.6984 0.3438 0.826   0.129932
 C 0.7321 0.283 0.8641   -0.19922
 C 0.6897 0.2536 0.9141   0.094424
 C 0.613 0.2976 0.9273   -0.207903
 C 0.5865 0.3582 0.8879   0.169216
 C 0.7182 0.183 0.9518   0.011013
 C 0.6889 0.1662 0.0111   -0.083088
 C 0.7189 0.0987 0.044   -0.097935
 C 0.7782 0.0454 0.0187   -0.108385
 C 0.8107 0.0599 0.9599   -0.055461
 C 0.7795 0.1287 0.9272   -0.109247
 C 0.8713 0.0056 0.9302   0.256782
 C 0.9229 0.9075 0.8678   0.24216
 C 0.931 0.8399 0.8249   -0.004426
 C 0.0018 0.8387 0.7887   -0.107184
 C 0.0119 0.7715 0.7483   -0.081662
 C 0.9539 0.7101 0.742   -0.123823
 C 0.8802 0.7086 0.7801   0.012026
 C 0.8708 0.7754 0.8205   -0.128332
 C 0.8153 0.6444 0.7746   0.109089
 C 0.759 0.6287 0.8207   -0.220629
 C 0.6952 0.5712 0.8114   0.164208
 C 0.7421 0.538 0.7172   0.165911
 C 0.8083 0.5957 0.7235   -0.215799
 C 0.3016 0.6562 0.326   0.129932
 C 0.2679 0.717 0.3641   -0.19922
 C 0.3103 0.7464 0.4141   0.094424
 C 0.387 0.7024 0.4273   -0.207903
 C 0.4135 0.6418 0.3879   0.169216
 C 0.2818 0.817 0.4518   0.011013
 C 0.3111 0.8338 0.5111   -0.083088
 C 0.2811 0.9013 0.544   -0.097935
 C 0.2218 0.9546 0.5187   -0.108385
 C 0.1893 0.9401 0.4599   -0.055461
 C 0.2205 0.8713 0.4272   -0.109247
 C 0.1287 0.9944 0.4302   0.256782
 C 0.0771 0.0925 0.3678   0.24216
 C 0.069 0.1601 0.3249   -0.004426
 C 0.9982 0.1613 0.2887   -0.107184
 C 0.9881 0.2285 0.2483   -0.081662
 C 0.0461 0.2899 0.242   -0.123823
 C 0.1198 0.2914 0.2801   0.012026
 C 0.1292 0.2246 0.3205   -0.128332
 C 0.1847 0.3556 0.2746   0.109089
 C 0.241 0.3713 0.3207   -0.220629
 C 0.3048 0.4288 0.3114   0.164208
 C 0.2579 0.462 0.2172   0.165911
 C 0.1917 0.4043 0.2235   -0.215799
 N 0.0064 0.9529 0.0651   -0.233829
 N 0.9443 0.9861 0.1039   -0.302734
 N 0.945 0.8497 0.1109   0.079886
 N 0.9255 0.7672 0.1311   -0.566339
 N 0.3781 0.6231 0.1631   -0.353688
 N 0.5257 0.6855 0.2399   -0.359489
 N 0.9936 0.0471 0.5651   -0.233829
 N 0.0557 0.0139 0.6039   -0.302734
 N 0.055 0.1503 0.6109   0.079886
 N 0.0745 0.2328 0.6311   -0.566339
 N 0.6219 0.3769 0.6631   -0.353688
 N 0.4743 0.3145 0.7399   -0.359489
 N 0.5471 0.5064 0.3151   -0.233829
 N 0.5139 0.4443 0.3539   -0.302734
 N 0.6503 0.445 0.3609   0.079886
 N 0.7328 0.4255 0.3811   -0.566339
 N 0.8769 0.8781 0.4131   -0.353688
 N 0.8145 0.0257 0.4899   -0.359489
 N 0.4529 0.4936 0.8151   -0.233829
 N 0.4861 0.5557 0.8539   -0.302734
 N 0.3497 0.555 0.8609   0.079886
 N 0.2672 0.5745 0.8811   -0.566339
 N 0.1231 0.1219 0.9131   -0.353688
 N 0.1855 0.9743 0.9899   -0.359489
 N 0.4936 0.4529 0.1849   -0.233829
 N 0.5557 0.4861 0.1461   -0.302734
 N 0.555 0.3497 0.1391   0.079886
 N 0.5745 0.2672 0.1189   -0.56634
 N 0.1219 0.1231 0.0869   -0.353688
 N 0.9743 0.1855 0.0101   -0.359489
 N 0.5064 0.5471 0.6849   -0.233829
 N 0.4443 0.5139 0.6461   -0.302734
 N 0.445 0.6503 0.6391   0.079886
 N 0.4255 0.7328 0.6189   -0.56634
 N 0.8781 0.8769 0.5869   -0.353688
 N 0.0257 0.8145 0.5101   -0.359489
 N 0.9529 0.0064 0.9349   -0.233829
 N 0.9861 0.9443 0.8961   -0.302734
 N 0.8497 0.945 0.8891   0.079886
 N 0.7672 0.9255 0.8689   -0.56634
 N 0.6231 0.3781 0.8369   -0.353688
 N 0.6855 0.5257 0.7601   -0.359489
 N 0.0471 0.9936 0.4349   -0.233829
 N 0.0139 0.0557 0.3961   -0.302734
 N 0.1503 0.055 0.3891   0.079886
 N 0.2328 0.0745 0.3689   -0.56634
 N 0.3769 0.6219 0.3369   -0.353688
 N 0.3145 0.4743 0.2601   -0.359489
 Cl 0.3786 0.3786 0.0   1.612789
 Cl 0.6214 0.6214 0.5   1.612789
 Cl 0.1214 0.8786 0.25   1.612789
 Cl 0.8786 0.1214 0.75   1.612789
 O 0.3283 0.4011 0.0471   -0.57653
 O 0.3406 0.4434 0.9672   -0.623737
 O 0.4011 0.3283 0.9529   -0.576529
 O 0.4434 0.3406 0.0328   -0.623737
 O 0.6717 0.5989 0.5471   -0.57653
 O 0.6594 0.5566 0.4672   -0.623737
 O 0.5989 0.6717 0.4529   -0.576529
 O 0.5566 0.6594 0.5328   -0.623737
 O 0.0989 0.8283 0.2971   -0.57653
 O 0.0566 0.8406 0.2172   -0.623737
 O 0.1717 0.9011 0.2029   -0.576529
 O 0.1594 0.9434 0.2828   -0.623737
 O 0.9011 0.1717 0.7971   -0.57653
 O 0.9434 0.1594 0.7172   -0.623737
 O 0.8283 0.0989 0.7029   -0.576529
 O 0.8406 0.0566 0.7828   -0.623737
