{'_ref': 'TBD', '_srcid': 'CAKYAQ_clean', 'submitters': [{'name': 'Dalar Nazarian Jeff Camp and David Sholl', 'email': 'dalar@gatech.edu jcamp6@gatech.edu'}], '_method': 'VASP DFT with PBE;DDEC'}
data_CdH36C48N12ClO4
_symmetry_space_group_name_H-M   'P 1'
_cell_length_a   15.86900000
_cell_length_b   15.86900000
_cell_length_c   21.64900000
_cell_angle_alpha   90.00000000
_cell_angle_beta   90.00000000
_cell_angle_gamma   90.00000000
_symmetry_Int_Tables_number   1
_chemical_formula_structural   CdH36C48N12ClO4
_chemical_formula_sum   'Cd4 H144 C192 N48 Cl4 O16'
_cell_volume   5451.76291049
_cell_formula_units_Z   4
loop_
 _symmetry_equiv_pos_site_id
 _symmetry_equiv_pos_as_xyz
  1  'x, y, z'
loop_
 _atom_site_label
 _atom_site_fract_x
 _atom_site_fract_y
 _atom_site_fract_z
 _atom_site_charge
 Cd 0.44158 0.44158 0.0   0.794699
 Cd 0.55842 0.55842 0.5   0.794699
 Cd 0.05842 0.94158 0.25   0.794699
 Cd 0.94158 0.05842 0.75   0.794699
 H 0.3413 0.5603 0.9084   0.048426
 H 0.2342 0.6542 0.8935   0.124488
 H 0.1511 0.5994 0.0631   0.126818
 H 0.2615 0.507 0.0734   0.061632
 H 0.0348 0.6626 0.0373   0.101723
 H 0.9349 0.7669 0.0292   0.10231
 H 0.9515 0.875 0.9573   0.102884
 H 0.1728 0.7757 0.9051   0.089286
 H 0.2017 0.9916 0.7104   0.099653
 H 0.2993 0.0861 0.6665   0.097906
 H 0.3497 0.1967 0.7209   0.077601
 H 0.1962 0.1392 0.8615   0.119247
 H 0.412 0.2857 0.7837   0.118374
 H 0.4607 0.3898 0.8499   0.068305
 H 0.2696 0.3596 0.9585   0.070392
 H 0.2138 0.2595 0.8961   0.126259
 H 0.2335 0.934 0.923   0.330098
 H 0.2675 0.9537 0.8624   0.327025
 H 0.6587 0.4397 0.4084   0.048426
 H 0.7658 0.3458 0.3935   0.124488
 H 0.8489 0.4006 0.5631   0.126818
 H 0.7385 0.493 0.5734   0.061632
 H 0.9652 0.3374 0.5373   0.101723
 H 0.0651 0.2331 0.5292   0.10231
 H 0.0485 0.125 0.4573   0.102884
 H 0.8272 0.2243 0.4051   0.089286
 H 0.7983 0.0084 0.2104   0.099653
 H 0.7007 0.9139 0.1665   0.097906
 H 0.6503 0.8033 0.2209   0.077601
 H 0.8038 0.8608 0.3615   0.119247
 H 0.588 0.7143 0.2837   0.118374
 H 0.5393 0.6102 0.3499   0.068305
 H 0.7304 0.6404 0.4585   0.070392
 H 0.7862 0.7405 0.3961   0.126259
 H 0.7665 0.066 0.423   0.330098
 H 0.7325 0.0463 0.3624   0.327025
 H 0.9397 0.8413 0.1584   0.048426
 H 0.8458 0.7342 0.1435   0.12449
 H 0.9006 0.6511 0.3131   0.126818
 H 0.993 0.7615 0.3234   0.061632
 H 0.8374 0.5348 0.2873   0.101723
 H 0.7331 0.4349 0.2792   0.102313
 H 0.625 0.4515 0.2073   0.102884
 H 0.7243 0.6728 0.1551   0.089286
 H 0.5084 0.7017 0.9604   0.099653
 H 0.4139 0.7993 0.9165   0.097906
 H 0.3033 0.8497 0.9709   0.0776
 H 0.3608 0.6962 0.1115   0.119247
 H 0.2143 0.912 0.0337   0.118373
 H 0.1102 0.9607 0.0999   0.068305
 H 0.1404 0.7696 0.2085   0.070392
 H 0.2405 0.7138 0.1461   0.126259
 H 0.566 0.7335 0.173   0.330097
 H 0.5463 0.7675 0.1124   0.327025
 H 0.0603 0.1587 0.6584   0.048426
 H 0.1542 0.2658 0.6435   0.12449
 H 0.0994 0.3489 0.8131   0.126818
 H 0.007 0.2385 0.8234   0.061632
 H 0.1626 0.4652 0.7873   0.101723
 H 0.2669 0.5651 0.7792   0.102313
 H 0.375 0.5485 0.7073   0.102884
 H 0.2757 0.3272 0.6551   0.089286
 H 0.4916 0.2983 0.4604   0.099653
 H 0.5861 0.2007 0.4165   0.097906
 H 0.6967 0.1503 0.4709   0.0776
 H 0.6392 0.3038 0.6115   0.119247
 H 0.7857 0.088 0.5337   0.118373
 H 0.8898 0.0393 0.5999   0.068305
 H 0.8596 0.2304 0.7085   0.070392
 H 0.7595 0.2862 0.6461   0.126259
 H 0.434 0.2665 0.673   0.330097
 H 0.4537 0.2325 0.6124   0.327025
 H 0.1587 0.0603 0.3416   0.048426
 H 0.2658 0.1542 0.3565   0.124488
 H 0.3489 0.0994 0.1869   0.126818
 H 0.2385 0.007 0.1766   0.061632
 H 0.4652 0.1626 0.2127   0.101723
 H 0.5651 0.2669 0.2208   0.102313
 H 0.5485 0.375 0.2927   0.102884
 H 0.3272 0.2757 0.3449   0.089287
 H 0.2983 0.4916 0.5396   0.099654
 H 0.2007 0.5861 0.5835   0.097906
 H 0.1503 0.6967 0.5291   0.077601
 H 0.3038 0.6392 0.3885   0.119247
 H 0.088 0.7857 0.4663   0.118374
 H 0.0393 0.8898 0.4001   0.068305
 H 0.2304 0.8596 0.2915   0.070392
 H 0.2862 0.7595 0.3539   0.126259
 H 0.2665 0.434 0.327   0.330098
 H 0.2325 0.4537 0.3876   0.327026
 H 0.8413 0.9397 0.8416   0.048426
 H 0.7342 0.8458 0.8565   0.124488
 H 0.6511 0.9006 0.6869   0.126818
 H 0.7615 0.993 0.6766   0.061632
 H 0.5348 0.8374 0.7127   0.101723
 H 0.4349 0.7331 0.7208   0.102313
 H 0.4515 0.625 0.7927   0.102884
 H 0.6728 0.7243 0.8449   0.089287
 H 0.7017 0.5084 0.0396   0.099654
 H 0.7993 0.4139 0.0835   0.097906
 H 0.8497 0.3033 0.0291   0.077601
 H 0.6962 0.3608 0.8885   0.119247
 H 0.912 0.2143 0.9663   0.118374
 H 0.9607 0.1102 0.9001   0.068305
 H 0.7696 0.1404 0.7915   0.070392
 H 0.7138 0.2405 0.8539   0.126259
 H 0.7335 0.566 0.827   0.330098
 H 0.7675 0.5463 0.8876   0.327026
 H 0.5603 0.3413 0.0916   0.048426
 H 0.6542 0.2342 0.1065   0.12449
 H 0.5994 0.1511 0.9369   0.126818
 H 0.507 0.2615 0.9266   0.061632
 H 0.6626 0.0348 0.9627   0.101723
 H 0.7669 0.9349 0.9708   0.102315
 H 0.875 0.9515 0.0427   0.102884
 H 0.7757 0.1728 0.0949   0.089287
 H 0.9916 0.2017 0.2896   0.099654
 H 0.0861 0.2993 0.3335   0.097906
 H 0.1967 0.3497 0.2791   0.0776
 H 0.1392 0.1962 0.1385   0.119247
 H 0.2857 0.412 0.2163   0.118373
 H 0.3898 0.4607 0.1501   0.068305
 H 0.3596 0.2696 0.0415   0.070392
 H 0.2595 0.2138 0.1039   0.126259
 H 0.934 0.2335 0.077   0.330097
 H 0.9537 0.2675 0.1376   0.327025
 H 0.4397 0.6587 0.5916   0.048426
 H 0.3458 0.7658 0.6065   0.12449
 H 0.4006 0.8489 0.4369   0.126818
 H 0.493 0.7385 0.4266   0.061632
 H 0.3374 0.9652 0.4627   0.101723
 H 0.2331 0.0651 0.4708   0.102315
 H 0.125 0.0485 0.5427   0.102884
 H 0.2243 0.8272 0.5949   0.089287
 H 0.0084 0.7983 0.7896   0.099654
 H 0.9139 0.7007 0.8335   0.097906
 H 0.8033 0.6503 0.7791   0.0776
 H 0.8608 0.8038 0.6385   0.119247
 H 0.7143 0.588 0.7163   0.118373
 H 0.6102 0.5393 0.6501   0.068305
 H 0.6404 0.7304 0.5415   0.070392
 H 0.7405 0.7862 0.6039   0.126259
 H 0.066 0.7665 0.577   0.330097
 H 0.0463 0.7325 0.6376   0.327025
 C 0.3032 0.5689 0.9404   0.17532
 C 0.2389 0.6261 0.9311   -0.227659
 C 0.181 0.6417 0.9781   0.094195
 C 0.1899 0.5938 0.0312   -0.210709
 C 0.2566 0.5375 0.037   0.164389
 C 0.1153 0.7075 0.9719   0.011504
 C 0.0425 0.7061 0.0091   -0.118446
 C 0.9825 0.7684 0.0042   -0.083642
 C 0.9929 0.834 0.9617   -0.107417
 C 0.0662 0.8373 0.926   -0.007319
 C 0.1253 0.7741 0.9303   -0.128571
 C 0.0747 0.9065 0.8827   0.225518
 C 0.1261 0.003 0.8203   0.231639
 C 0.1889 0.0581 0.79   -0.032985
 C 0.2196 0.0391 0.7318   -0.118828
 C 0.2795 0.0955 0.7063   -0.081945
 C 0.3086 0.1625 0.7385   -0.092825
 C 0.2786 0.1816 0.797   0.016545
 C 0.2177 0.1279 0.8224   -0.128817
 C 0.3089 0.2541 0.8346   0.08193
 C 0.3827 0.2978 0.8198   -0.207786
 C 0.412 0.3606 0.8605   0.163987
 C 0.2999 0.3431 0.9237   0.137967
 C 0.2661 0.2823 0.8865   -0.184355
 C 0.6968 0.4311 0.4404   0.17532
 C 0.7611 0.3739 0.4311   -0.227659
 C 0.819 0.3583 0.4781   0.094195
 C 0.8101 0.4062 0.5312   -0.210709
 C 0.7434 0.4625 0.537   0.164389
 C 0.8847 0.2925 0.4719   0.011504
 C 0.9575 0.2939 0.5091   -0.118446
 C 0.0175 0.2316 0.5042   -0.083642
 C 0.0071 0.166 0.4617   -0.107417
 C 0.9338 0.1627 0.426   -0.007319
 C 0.8747 0.2259 0.4303   -0.128571
 C 0.9253 0.0935 0.3827   0.225518
 C 0.8739 0.997 0.3203   0.231639
 C 0.8111 0.9419 0.29   -0.032985
 C 0.7804 0.9609 0.2318   -0.118828
 C 0.7205 0.9045 0.2063   -0.081945
 C 0.6914 0.8375 0.2385   -0.092825
 C 0.7214 0.8184 0.297   0.016545
 C 0.7823 0.8721 0.3224   -0.128817
 C 0.6911 0.7459 0.3346   0.08193
 C 0.6173 0.7022 0.3198   -0.207786
 C 0.588 0.6394 0.3605   0.163987
 C 0.7001 0.6569 0.4237   0.137967
 C 0.7339 0.7177 0.3865   -0.184355
 C 0.9311 0.8032 0.1904   0.175321
 C 0.8739 0.7389 0.1811   -0.22766
 C 0.8583 0.681 0.2281   0.094196
 C 0.9062 0.6899 0.2812   -0.210709
 C 0.9625 0.7566 0.287   0.164389
 C 0.7925 0.6153 0.2219   0.011504
 C 0.7939 0.5425 0.2591   -0.118446
 C 0.7316 0.4825 0.2542   -0.083643
 C 0.666 0.4929 0.2117   -0.107417
 C 0.6627 0.5662 0.176   -0.007319
 C 0.7259 0.6253 0.1803   -0.128571
 C 0.5935 0.5747 0.1327   0.225518
 C 0.497 0.6261 0.0703   0.231639
 C 0.4419 0.6889 0.04   -0.032985
 C 0.4609 0.7196 0.9818   -0.118828
 C 0.4045 0.7795 0.9563   -0.081945
 C 0.3375 0.8086 0.9885   -0.092824
 C 0.3184 0.7786 0.047   0.016545
 C 0.3721 0.7177 0.0724   -0.128816
 C 0.2459 0.8089 0.0846   0.08193
 C 0.2022 0.8827 0.0698   -0.207785
 C 0.1394 0.912 0.1105   0.163986
 C 0.1569 0.7999 0.1737   0.137967
 C 0.2177 0.7661 0.1365   -0.184355
 C 0.0689 0.1968 0.6904   0.175321
 C 0.1261 0.2611 0.6811   -0.22766
 C 0.1417 0.319 0.7281   0.094196
 C 0.0938 0.3101 0.7812   -0.210709
 C 0.0375 0.2434 0.787   0.164389
 C 0.2075 0.3847 0.7219   0.011504
 C 0.2061 0.4575 0.7591   -0.118446
 C 0.2684 0.5175 0.7542   -0.083643
 C 0.334 0.5071 0.7117   -0.107417
 C 0.3373 0.4338 0.676   -0.007319
 C 0.2741 0.3747 0.6803   -0.128571
 C 0.4065 0.4253 0.6327   0.225518
 C 0.503 0.3739 0.5703   0.231639
 C 0.5581 0.3111 0.54   -0.032985
 C 0.5391 0.2804 0.4818   -0.118828
 C 0.5955 0.2205 0.4563   -0.081945
 C 0.6625 0.1914 0.4885   -0.092824
 C 0.6816 0.2214 0.547   0.016545
 C 0.6279 0.2823 0.5724   -0.128816
 C 0.7541 0.1911 0.5846   0.08193
 C 0.7978 0.1173 0.5698   -0.207785
 C 0.8606 0.088 0.6105   0.163986
 C 0.8431 0.2001 0.6737   0.137967
 C 0.7823 0.2339 0.6365   -0.184355
 C 0.1968 0.0689 0.3096   0.17532
 C 0.2611 0.1261 0.3189   -0.227659
 C 0.319 0.1417 0.2719   0.094195
 C 0.3101 0.0938 0.2188   -0.210709
 C 0.2434 0.0375 0.213   0.164389
 C 0.3847 0.2075 0.2781   0.011504
 C 0.4575 0.2061 0.2409   -0.118445
 C 0.5175 0.2684 0.2458   -0.083643
 C 0.5071 0.334 0.2883   -0.107417
 C 0.4338 0.3373 0.324   -0.007319
 C 0.3747 0.2741 0.3197   -0.128571
 C 0.4253 0.4065 0.3673   0.225518
 C 0.3739 0.503 0.4297   0.231639
 C 0.3111 0.5581 0.46   -0.032985
 C 0.2804 0.5391 0.5182   -0.118828
 C 0.2205 0.5955 0.5437   -0.081945
 C 0.1914 0.6625 0.5115   -0.092825
 C 0.2214 0.6816 0.453   0.016545
 C 0.2823 0.6279 0.4276   -0.128817
 C 0.1911 0.7541 0.4154   0.08193
 C 0.1173 0.7978 0.4302   -0.207786
 C 0.088 0.8606 0.3895   0.163987
 C 0.2001 0.8431 0.3263   0.137967
 C 0.2339 0.7823 0.3635   -0.184355
 C 0.8032 0.9311 0.8096   0.17532
 C 0.7389 0.8739 0.8189   -0.227659
 C 0.681 0.8583 0.7719   0.094195
 C 0.6899 0.9062 0.7188   -0.210709
 C 0.7566 0.9625 0.713   0.164389
 C 0.6153 0.7925 0.7781   0.011504
 C 0.5425 0.7939 0.7409   -0.118445
 C 0.4825 0.7316 0.7458   -0.083643
 C 0.4929 0.666 0.7883   -0.107417
 C 0.5662 0.6627 0.824   -0.007319
 C 0.6253 0.7259 0.8197   -0.128571
 C 0.5747 0.5935 0.8673   0.225518
 C 0.6261 0.497 0.9297   0.231639
 C 0.6889 0.4419 0.96   -0.032985
 C 0.7196 0.4609 0.0182   -0.118828
 C 0.7795 0.4045 0.0437   -0.081945
 C 0.8086 0.3375 0.0115   -0.092825
 C 0.7786 0.3184 0.953   0.016545
 C 0.7177 0.3721 0.9276   -0.128817
 C 0.8089 0.2459 0.9154   0.08193
 C 0.8827 0.2022 0.9302   -0.207786
 C 0.912 0.1394 0.8895   0.163987
 C 0.7999 0.1569 0.8263   0.137967
 C 0.7661 0.2177 0.8635   -0.184355
 C 0.5689 0.3032 0.0596   0.175321
 C 0.6261 0.2389 0.0689   -0.22766
 C 0.6417 0.181 0.0219   0.094196
 C 0.5938 0.1899 0.9688   -0.210709
 C 0.5375 0.2566 0.963   0.164389
 C 0.7075 0.1153 0.0281   0.011504
 C 0.7061 0.0425 0.9909   -0.118445
 C 0.7684 0.9825 0.9958   -0.083644
 C 0.834 0.9929 0.0383   -0.107417
 C 0.8373 0.0662 0.074   -0.007319
 C 0.7741 0.1253 0.0697   -0.128571
 C 0.9065 0.0747 0.1173   0.225518
 C 0.003 0.1261 0.1797   0.231639
 C 0.0581 0.1889 0.21   -0.032985
 C 0.0391 0.2196 0.2682   -0.118828
 C 0.0955 0.2795 0.2937   -0.081945
 C 0.1625 0.3086 0.2615   -0.092825
 C 0.1816 0.2786 0.203   0.016545
 C 0.1279 0.2177 0.1776   -0.128816
 C 0.2541 0.3089 0.1654   0.08193
 C 0.2978 0.3827 0.1802   -0.207785
 C 0.3606 0.412 0.1395   0.163986
 C 0.3431 0.2999 0.0763   0.137967
 C 0.2823 0.2661 0.1135   -0.184355
 C 0.4311 0.6968 0.5596   0.175321
 C 0.3739 0.7611 0.5689   -0.22766
 C 0.3583 0.819 0.5219   0.094196
 C 0.4062 0.8101 0.4688   -0.210709
 C 0.4625 0.7434 0.463   0.164389
 C 0.2925 0.8847 0.5281   0.011504
 C 0.2939 0.9575 0.4909   -0.118445
 C 0.2316 0.0175 0.4958   -0.083644
 C 0.166 0.0071 0.5383   -0.107417
 C 0.1627 0.9338 0.574   -0.007319
 C 0.2259 0.8747 0.5697   -0.128571
 C 0.0935 0.9253 0.6173   0.225518
 C 0.997 0.8739 0.6797   0.231639
 C 0.9419 0.8111 0.71   -0.032985
 C 0.9609 0.7804 0.7682   -0.118828
 C 0.9045 0.7205 0.7937   -0.081945
 C 0.8375 0.6914 0.7615   -0.092825
 C 0.8184 0.7214 0.703   0.016545
 C 0.8721 0.7823 0.6776   -0.128816
 C 0.7459 0.6911 0.6654   0.08193
 C 0.7022 0.6173 0.6802   -0.207785
 C 0.6394 0.588 0.6395   0.163986
 C 0.6569 0.7001 0.5763   0.137967
 C 0.7177 0.7339 0.6135   -0.184355
 N 0.3143 0.525 0.9924   -0.372249
 N 0.0113 0.9449 0.8554   -0.296771
 N 0.044 0.0052 0.8165   -0.226455
 N 0.1479 0.9421 0.8617   0.113817
 N 0.2301 0.9226 0.8829   -0.602391
 N 0.3743 0.3803 0.9129   -0.354351
 N 0.6857 0.475 0.4924   -0.372249
 N 0.9887 0.0551 0.3554   -0.296771
 N 0.956 0.9948 0.3165   -0.226455
 N 0.8521 0.0579 0.3617   0.113817
 N 0.7699 0.0774 0.3829   -0.602391
 N 0.6257 0.6197 0.4129   -0.354351
 N 0.975 0.8143 0.2424   -0.372249
 N 0.5551 0.5113 0.1054   -0.296771
 N 0.4948 0.544 0.0665   -0.226455
 N 0.5579 0.6479 0.1117   0.113817
 N 0.5774 0.7301 0.1329   -0.602391
 N 0.1197 0.8743 0.1629   -0.354351
 N 0.025 0.1857 0.7424   -0.372249
 N 0.4449 0.4887 0.6054   -0.296771
 N 0.5052 0.456 0.5665   -0.226455
 N 0.4421 0.3521 0.6117   0.113817
 N 0.4226 0.2699 0.6329   -0.602391
 N 0.8803 0.1257 0.6629   -0.354351
 N 0.1857 0.025 0.2576   -0.372249
 N 0.4887 0.4449 0.3946   -0.296771
 N 0.456 0.5052 0.4335   -0.226455
 N 0.3521 0.4421 0.3883   0.113817
 N 0.2699 0.4226 0.3671   -0.602391
 N 0.1257 0.8803 0.3371   -0.354351
 N 0.8143 0.975 0.7576   -0.372249
 N 0.5113 0.5551 0.8946   -0.296771
 N 0.544 0.4948 0.9335   -0.226455
 N 0.6479 0.5579 0.8883   0.113817
 N 0.7301 0.5774 0.8671   -0.602391
 N 0.8743 0.1197 0.8371   -0.354351
 N 0.525 0.3143 0.0076   -0.372249
 N 0.9449 0.0113 0.1446   -0.296771
 N 0.0052 0.044 0.1835   -0.226455
 N 0.9421 0.1479 0.1383   0.113817
 N 0.9226 0.2301 0.1171   -0.602391
 N 0.3803 0.3743 0.0871   -0.354351
 N 0.475 0.6857 0.5076   -0.372249
 N 0.0551 0.9887 0.6446   -0.296771
 N 0.9948 0.956 0.6835   -0.226455
 N 0.0579 0.8521 0.6383   0.113817
 N 0.0774 0.7699 0.6171   -0.602391
 N 0.6197 0.6257 0.5871   -0.354351
 Cl 0.11991 0.11991 0.0   1.793267
 Cl 0.88009 0.88009 0.5   1.793267
 Cl 0.38009 0.61991 0.25   1.793267
 Cl 0.61991 0.38009 0.75   1.793267
 O 0.19 0.1102 0.0318   -0.685084
 O 0.1323 0.065 0.9565   -0.634621
 O 0.1102 0.19 0.9682   -0.685083
 O 0.065 0.1323 0.0435   -0.634621
 O 0.81 0.8898 0.5318   -0.685084
 O 0.8677 0.935 0.4565   -0.634621
 O 0.8898 0.81 0.4682   -0.685083
 O 0.935 0.8677 0.5435   -0.634621
 O 0.3898 0.69 0.2818   -0.685084
 O 0.435 0.6323 0.2065   -0.634621
 O 0.31 0.6102 0.2182   -0.685083
 O 0.3677 0.565 0.2935   -0.634621
 O 0.6102 0.31 0.7818   -0.685084
 O 0.565 0.3677 0.7065   -0.634621
 O 0.69 0.3898 0.7182   -0.685083
 O 0.6323 0.435 0.7935   -0.634621
