{'_ref': 'TBD', '_srcid': 'CAKYAQ_clean', 'submitters': [{'name': 'Dalar Nazarian Jeff Camp and David Sholl', 'email': 'dalar@gatech.edu jcamp6@gatech.edu'}], '_method': 'VASP DFT with PBE;DDEC'}
data_CdH36C48N12ClO4
_symmetry_space_group_name_H-M   'P 1'
_cell_length_a   15.81780000
_cell_length_b   15.81780000
_cell_length_c   21.50300000
_cell_angle_alpha   90.00000000
_cell_angle_beta   90.00000000
_cell_angle_gamma   90.00000000
_symmetry_Int_Tables_number   1
_chemical_formula_structural   CdH36C48N12ClO4
_chemical_formula_sum   'Cd4 H144 C192 N48 Cl4 O16'
_cell_volume   5380.11074045
_cell_formula_units_Z   4
loop_
 _symmetry_equiv_pos_site_id
 _symmetry_equiv_pos_as_xyz
  1  'x, y, z'
loop_
 _atom_site_label
 _atom_site_fract_x
 _atom_site_fract_y
 _atom_site_fract_z
 _atom_site_charge
 Cd 0.05966 0.94034 0.75   0.789056
 Cd 0.94034 0.05966 0.25   0.789056
 Cd 0.55966 0.55966 0.0   0.789056
 Cd 0.44034 0.44034 0.5   0.789056
 H 0.2405 0.0038 0.6752   0.060463
 H 0.3504 0.0961 0.6827   0.129635
 H 0.2657 0.1544 0.8559   0.115357
 H 0.1592 0.0603 0.8414   0.048028
 H 0.4701 0.1595 0.7116   0.099635
 H 0.5715 0.2617 0.7231   0.094887
 H 0.5514 0.3759 0.7902   0.102987
 H 0.3284 0.2741 0.8441   0.0861
 H 0.2984 0.4891 0.0425   0.093261
 H 0.1956 0.5796 0.0828   0.090687
 H 0.1522 0.6988 0.0325   0.079174
 H 0.3049 0.6394 0.8879   0.114675
 H 0.0897 0.7849 0.9679   0.121904
 H 0.0408 0.8909 0.9029   0.082905
 H 0.2318 0.8608 0.7903   0.06818
 H 0.2914 0.759 0.855   0.122579
 H 0.2339 0.462 0.8613   0.338847
 H 0.2531 0.394 0.901   0.287854
 H 0.7595 0.9962 0.1752   0.060463
 H 0.6496 0.9039 0.1827   0.129635
 H 0.7343 0.8456 0.3559   0.115357
 H 0.8408 0.9397 0.3414   0.048028
 H 0.5299 0.8405 0.2116   0.099635
 H 0.4285 0.7383 0.2231   0.094887
 H 0.4486 0.6241 0.2902   0.102987
 H 0.6716 0.7259 0.3441   0.0861
 H 0.7016 0.5109 0.5425   0.093261
 H 0.8044 0.4204 0.5828   0.090687
 H 0.8478 0.3012 0.5325   0.079174
 H 0.6951 0.3606 0.3879   0.114675
 H 0.9103 0.2151 0.4679   0.121904
 H 0.9592 0.1091 0.4029   0.082905
 H 0.7682 0.1392 0.2903   0.06818
 H 0.7086 0.241 0.355   0.122579
 H 0.7661 0.538 0.3613   0.338847
 H 0.7469 0.606 0.401   0.287854
 H 0.4962 0.7405 0.9252   0.060463
 H 0.4039 0.8504 0.9327   0.129635
 H 0.3456 0.7657 0.1059   0.115359
 H 0.4397 0.6592 0.0914   0.048028
 H 0.3405 0.9701 0.9616   0.099635
 H 0.2383 0.0715 0.9731   0.094889
 H 0.1241 0.0514 0.0402   0.102987
 H 0.2259 0.8284 0.0941   0.0861
 H 0.0109 0.7984 0.2925   0.093261
 H 0.9204 0.6956 0.3328   0.090687
 H 0.8012 0.6522 0.2825   0.079174
 H 0.8606 0.8049 0.1379   0.114675
 H 0.7151 0.5897 0.2179   0.121904
 H 0.6091 0.5408 0.1529   0.082905
 H 0.6392 0.7318 0.0403   0.06818
 H 0.741 0.7914 0.105   0.122579
 H 0.038 0.7339 0.1113   0.338846
 H 0.106 0.7531 0.151   0.287854
 H 0.5038 0.2595 0.4252   0.060463
 H 0.5961 0.1496 0.4327   0.129635
 H 0.6544 0.2343 0.6059   0.115359
 H 0.5603 0.3408 0.5914   0.048028
 H 0.6595 0.0299 0.4616   0.099635
 H 0.7617 0.9285 0.4731   0.094889
 H 0.8759 0.9486 0.5402   0.102987
 H 0.7741 0.1716 0.5941   0.0861
 H 0.9891 0.2016 0.7925   0.093261
 H 0.0796 0.3044 0.8328   0.090687
 H 0.1988 0.3478 0.7825   0.079174
 H 0.1394 0.1951 0.6379   0.114675
 H 0.2849 0.4103 0.7179   0.121904
 H 0.3909 0.4592 0.6529   0.082905
 H 0.3608 0.2682 0.5403   0.06818
 H 0.259 0.2086 0.605   0.122579
 H 0.962 0.2661 0.6113   0.338846
 H 0.894 0.2469 0.651   0.287854
 H 0.2595 0.5038 0.5748   0.060463
 H 0.1496 0.5961 0.5673   0.129635
 H 0.2343 0.6544 0.3941   0.115357
 H 0.3408 0.5603 0.4086   0.048028
 H 0.0299 0.6595 0.5384   0.099635
 H 0.9285 0.7617 0.5269   0.09489
 H 0.9486 0.8759 0.4598   0.102987
 H 0.1716 0.7741 0.4059   0.0861
 H 0.2016 0.9891 0.2075   0.093262
 H 0.3044 0.0796 0.1672   0.090687
 H 0.3478 0.1988 0.2175   0.079174
 H 0.1951 0.1394 0.3621   0.114675
 H 0.4103 0.2849 0.2821   0.121904
 H 0.4592 0.3909 0.3471   0.082905
 H 0.2682 0.3608 0.4597   0.06818
 H 0.2086 0.259 0.395   0.122579
 H 0.2661 0.962 0.3887   0.338847
 H 0.2469 0.894 0.349   0.287855
 H 0.7405 0.4962 0.0748   0.060463
 H 0.8504 0.4039 0.0673   0.129635
 H 0.7657 0.3456 0.8941   0.115357
 H 0.6592 0.4397 0.9086   0.048028
 H 0.9701 0.3405 0.0384   0.099635
 H 0.0715 0.2383 0.0269   0.09489
 H 0.0514 0.1241 0.9598   0.102987
 H 0.8284 0.2259 0.9059   0.0861
 H 0.7984 0.0109 0.7075   0.093262
 H 0.6956 0.9204 0.6672   0.090687
 H 0.6522 0.8012 0.7175   0.079174
 H 0.8049 0.8606 0.8621   0.114675
 H 0.5897 0.7151 0.7821   0.121904
 H 0.5408 0.6091 0.8471   0.082905
 H 0.7318 0.6392 0.9597   0.06818
 H 0.7914 0.741 0.895   0.122579
 H 0.7339 0.038 0.8887   0.338847
 H 0.7531 0.106 0.849   0.287855
 H 0.0038 0.2405 0.3248   0.060463
 H 0.0961 0.3504 0.3173   0.129634
 H 0.1544 0.2657 0.1441   0.115359
 H 0.0603 0.1592 0.1586   0.048028
 H 0.1595 0.4701 0.2884   0.099635
 H 0.2617 0.5715 0.2769   0.094892
 H 0.3759 0.5514 0.2098   0.102987
 H 0.2741 0.3284 0.1559   0.0861
 H 0.4891 0.2984 0.9575   0.093262
 H 0.5796 0.1956 0.9172   0.090687
 H 0.6988 0.1522 0.9675   0.079174
 H 0.6394 0.3049 0.1121   0.114675
 H 0.7849 0.0897 0.0321   0.121904
 H 0.8909 0.0408 0.0971   0.082905
 H 0.8608 0.2318 0.2097   0.06818
 H 0.759 0.2914 0.145   0.122579
 H 0.462 0.2339 0.1387   0.338846
 H 0.394 0.2531 0.099   0.287856
 H 0.9962 0.7595 0.8248   0.060463
 H 0.9039 0.6496 0.8173   0.129634
 H 0.8456 0.7343 0.6441   0.115359
 H 0.9397 0.8408 0.6586   0.048028
 H 0.8405 0.5299 0.7884   0.099635
 H 0.7383 0.4285 0.7769   0.094892
 H 0.6241 0.4486 0.7098   0.102987
 H 0.7259 0.6716 0.6559   0.0861
 H 0.5109 0.7016 0.4575   0.093262
 H 0.4204 0.8044 0.4172   0.090687
 H 0.3012 0.8478 0.4675   0.079174
 H 0.3606 0.6951 0.6121   0.114675
 H 0.2151 0.9103 0.5321   0.121904
 H 0.1091 0.9592 0.5971   0.082905
 H 0.1392 0.7682 0.7097   0.06818
 H 0.241 0.7086 0.645   0.122579
 H 0.538 0.7661 0.6387   0.338846
 H 0.606 0.7469 0.599   0.287856
 C 0.2457 0.0358 0.7124   0.171288
 C 0.3117 0.0907 0.7162   -0.223777
 C 0.3219 0.1398 0.771   0.087748
 C 0.2619 0.1247 0.8175   -0.228522
 C 0.1986 0.0684 0.8086   0.17305
 C 0.3881 0.2053 0.7761   0.017519
 C 0.4614 0.204 0.7407   -0.118972
 C 0.5211 0.2652 0.7469   -0.085459
 C 0.5099 0.3327 0.7871   -0.112242
 C 0.4364 0.3359 0.8231   0.000546
 C 0.3772 0.2726 0.8184   -0.133773
 C 0.4273 0.4063 0.8672   0.232919
 C 0.3757 0.5018 0.9303   0.23725
 C 0.3128 0.5565 0.961   -0.047292
 C 0.2801 0.5373 0.0198   -0.121541
 C 0.2195 0.5922 0.0433   -0.081472
 C 0.1925 0.6626 0.0135   -0.089586
 C 0.2245 0.6816 0.9541   0.023519
 C 0.2836 0.628 0.9283   -0.118555
 C 0.1926 0.7541 0.9176   0.089484
 C 0.1201 0.7977 0.9309   -0.19073
 C 0.0901 0.8605 0.8912   0.157499
 C 0.2016 0.8437 0.8263   0.13167
 C 0.2375 0.782 0.8645   -0.205197
 C 0.7543 0.9642 0.2124   0.171288
 C 0.6883 0.9093 0.2162   -0.223777
 C 0.6781 0.8602 0.271   0.087748
 C 0.7381 0.8753 0.3175   -0.228522
 C 0.8014 0.9316 0.3086   0.17305
 C 0.6119 0.7947 0.2761   0.017519
 C 0.5386 0.796 0.2407   -0.118972
 C 0.4789 0.7348 0.2469   -0.085459
 C 0.4901 0.6673 0.2871   -0.112242
 C 0.5636 0.6641 0.3231   0.000546
 C 0.6228 0.7274 0.3184   -0.133773
 C 0.5727 0.5937 0.3672   0.232919
 C 0.6243 0.4982 0.4303   0.23725
 C 0.6872 0.4435 0.461   -0.047292
 C 0.7199 0.4627 0.5198   -0.121541
 C 0.7805 0.4078 0.5433   -0.081472
 C 0.8075 0.3374 0.5135   -0.089586
 C 0.7755 0.3184 0.4541   0.023519
 C 0.7164 0.372 0.4283   -0.118555
 C 0.8074 0.2459 0.4176   0.089484
 C 0.8799 0.2023 0.4309   -0.19073
 C 0.9099 0.1395 0.3912   0.157499
 C 0.7984 0.1563 0.3263   0.13167
 C 0.7625 0.218 0.3645   -0.205197
 C 0.4642 0.7457 0.9624   0.171288
 C 0.4093 0.8117 0.9662   -0.223777
 C 0.3602 0.8219 0.021   0.087748
 C 0.3753 0.7619 0.0675   -0.228522
 C 0.4316 0.6986 0.0586   0.17305
 C 0.2947 0.8881 0.0261   0.017519
 C 0.296 0.9614 0.9907   -0.118972
 C 0.2348 0.0211 0.9969   -0.08546
 C 0.1673 0.0099 0.0371   -0.112242
 C 0.1641 0.9364 0.0731   0.000546
 C 0.2274 0.8772 0.0684   -0.133773
 C 0.0937 0.9273 0.1172   0.232919
 C 0.9982 0.8757 0.1803   0.23725
 C 0.9435 0.8128 0.211   -0.047292
 C 0.9627 0.7801 0.2698   -0.121541
 C 0.9078 0.7195 0.2933   -0.081472
 C 0.8374 0.6925 0.2635   -0.089586
 C 0.8184 0.7245 0.2041   0.023519
 C 0.872 0.7836 0.1783   -0.118555
 C 0.7459 0.6926 0.1676   0.089484
 C 0.7023 0.6201 0.1809   -0.19073
 C 0.6395 0.5901 0.1412   0.157499
 C 0.6563 0.7016 0.0763   0.13167
 C 0.718 0.7375 0.1145   -0.205197
 C 0.5358 0.2543 0.4624   0.171288
 C 0.5907 0.1883 0.4662   -0.223777
 C 0.6398 0.1781 0.521   0.087748
 C 0.6247 0.2381 0.5675   -0.228522
 C 0.5684 0.3014 0.5586   0.17305
 C 0.7053 0.1119 0.5261   0.017519
 C 0.704 0.0386 0.4907   -0.118972
 C 0.7652 0.9789 0.4969   -0.08546
 C 0.8327 0.9901 0.5371   -0.112242
 C 0.8359 0.0636 0.5731   0.000546
 C 0.7726 0.1228 0.5684   -0.133773
 C 0.9063 0.0727 0.6172   0.232919
 C 0.0018 0.1243 0.6803   0.23725
 C 0.0565 0.1872 0.711   -0.047292
 C 0.0373 0.2199 0.7698   -0.121541
 C 0.0922 0.2805 0.7933   -0.081472
 C 0.1626 0.3075 0.7635   -0.089586
 C 0.1816 0.2755 0.7041   0.023519
 C 0.128 0.2164 0.6783   -0.118555
 C 0.2541 0.3074 0.6676   0.089484
 C 0.2977 0.3799 0.6809   -0.19073
 C 0.3605 0.4099 0.6412   0.157499
 C 0.3437 0.2984 0.5763   0.13167
 C 0.282 0.2625 0.6145   -0.205197
 C 0.2543 0.5358 0.5376   0.171288
 C 0.1883 0.5907 0.5338   -0.223777
 C 0.1781 0.6398 0.479   0.087748
 C 0.2381 0.6247 0.4325   -0.228522
 C 0.3014 0.5684 0.4414   0.17305
 C 0.1119 0.7053 0.4739   0.017519
 C 0.0386 0.704 0.5093   -0.118972
 C 0.9789 0.7652 0.5031   -0.08546
 C 0.9901 0.8327 0.4629   -0.112242
 C 0.0636 0.8359 0.4269   0.000546
 C 0.1228 0.7726 0.4316   -0.133773
 C 0.0727 0.9063 0.3828   0.232919
 C 0.1243 0.0018 0.3197   0.23725
 C 0.1872 0.0565 0.289   -0.047292
 C 0.2199 0.0373 0.2302   -0.121541
 C 0.2805 0.0922 0.2067   -0.081472
 C 0.3075 0.1626 0.2365   -0.089586
 C 0.2755 0.1816 0.2959   0.023519
 C 0.2164 0.128 0.3217   -0.118555
 C 0.3074 0.2541 0.3324   0.089484
 C 0.3799 0.2977 0.3191   -0.19073
 C 0.4099 0.3605 0.3588   0.157499
 C 0.2984 0.3437 0.4237   0.13167
 C 0.2625 0.282 0.3855   -0.205197
 C 0.7457 0.4642 0.0376   0.171288
 C 0.8117 0.4093 0.0338   -0.223777
 C 0.8219 0.3602 0.979   0.087748
 C 0.7619 0.3753 0.9325   -0.228522
 C 0.6986 0.4316 0.9414   0.17305
 C 0.8881 0.2947 0.9739   0.017519
 C 0.9614 0.296 0.0093   -0.118972
 C 0.0211 0.2348 0.0031   -0.08546
 C 0.0099 0.1673 0.9629   -0.112242
 C 0.9364 0.1641 0.9269   0.000546
 C 0.8772 0.2274 0.9316   -0.133773
 C 0.9273 0.0937 0.8828   0.232919
 C 0.8757 0.9982 0.8197   0.23725
 C 0.8128 0.9435 0.789   -0.047292
 C 0.7801 0.9627 0.7302   -0.121541
 C 0.7195 0.9078 0.7067   -0.081472
 C 0.6925 0.8374 0.7365   -0.089586
 C 0.7245 0.8184 0.7959   0.023519
 C 0.7836 0.872 0.8217   -0.118555
 C 0.6926 0.7459 0.8324   0.089484
 C 0.6201 0.7023 0.8191   -0.19073
 C 0.5901 0.6395 0.8588   0.157499
 C 0.7016 0.6563 0.9237   0.13167
 C 0.7375 0.718 0.8855   -0.205197
 C 0.0358 0.2457 0.2876   0.171288
 C 0.0907 0.3117 0.2838   -0.223777
 C 0.1398 0.3219 0.229   0.087748
 C 0.1247 0.2619 0.1825   -0.228522
 C 0.0684 0.1986 0.1914   0.17305
 C 0.2053 0.3881 0.2239   0.017519
 C 0.204 0.4614 0.2593   -0.118972
 C 0.2652 0.5211 0.2531   -0.085461
 C 0.3327 0.5099 0.2129   -0.112242
 C 0.3359 0.4364 0.1769   0.000546
 C 0.2726 0.3772 0.1816   -0.133773
 C 0.4063 0.4273 0.1328   0.232919
 C 0.5018 0.3757 0.0697   0.23725
 C 0.5565 0.3128 0.039   -0.047292
 C 0.5373 0.2801 0.9802   -0.121541
 C 0.5922 0.2195 0.9567   -0.081472
 C 0.6626 0.1925 0.9865   -0.089586
 C 0.6816 0.2245 0.0459   0.023519
 C 0.628 0.2836 0.0717   -0.118555
 C 0.7541 0.1926 0.0824   0.089484
 C 0.7977 0.1201 0.0691   -0.19073
 C 0.8605 0.0901 0.1088   0.157499
 C 0.8437 0.2016 0.1737   0.13167
 C 0.782 0.2375 0.1355   -0.205197
 C 0.9642 0.7543 0.7876   0.171288
 C 0.9093 0.6883 0.7838   -0.223777
 C 0.8602 0.6781 0.729   0.087748
 C 0.8753 0.7381 0.6825   -0.228522
 C 0.9316 0.8014 0.6914   0.17305
 C 0.7947 0.6119 0.7239   0.017519
 C 0.796 0.5386 0.7593   -0.118972
 C 0.7348 0.4789 0.7531   -0.085461
 C 0.6673 0.4901 0.7129   -0.112242
 C 0.6641 0.5636 0.6769   0.000546
 C 0.7274 0.6228 0.6816   -0.133773
 C 0.5937 0.5727 0.6328   0.232919
 C 0.4982 0.6243 0.5697   0.23725
 C 0.4435 0.6872 0.539   -0.047292
 C 0.4627 0.7199 0.4802   -0.121541
 C 0.4078 0.7805 0.4567   -0.081472
 C 0.3374 0.8075 0.4865   -0.089586
 C 0.3184 0.7755 0.5459   0.023519
 C 0.372 0.7164 0.5717   -0.118555
 C 0.2459 0.8074 0.5824   0.089484
 C 0.2023 0.8799 0.5691   -0.19073
 C 0.1395 0.9099 0.6088   0.157499
 C 0.1563 0.7984 0.6737   0.13167
 C 0.218 0.7625 0.6355   -0.205197
 N 0.1877 0.0232 0.7565   -0.374613
 N 0.4912 0.4446 0.8935   -0.286935
 N 0.4579 0.505 0.933   -0.22381
 N 0.3536 0.4414 0.8884   0.097446
 N 0.2715 0.4217 0.8678   -0.550086
 N 0.1272 0.88 0.8377   -0.346008
 N 0.8123 0.9768 0.2565   -0.374613
 N 0.5088 0.5554 0.3935   -0.286935
 N 0.5421 0.495 0.433   -0.22381
 N 0.6464 0.5586 0.3884   0.097446
 N 0.7285 0.5783 0.3678   -0.550086
 N 0.8728 0.12 0.3377   -0.346008
 N 0.4768 0.6877 0.0065   -0.374613
 N 0.0554 0.9912 0.1435   -0.286935
 N 0.995 0.9579 0.183   -0.22381
 N 0.0586 0.8536 0.1384   0.097445
 N 0.0783 0.7715 0.1178   -0.550085
 N 0.62 0.6272 0.0877   -0.346008
 N 0.5232 0.3123 0.5065   -0.374613
 N 0.9446 0.0088 0.6435   -0.286935
 N 0.005 0.0421 0.683   -0.22381
 N 0.9414 0.1464 0.6384   0.097445
 N 0.9217 0.2285 0.6178   -0.550085
 N 0.38 0.3728 0.5877   -0.346008
 N 0.3123 0.5232 0.4935   -0.374613
 N 0.0088 0.9446 0.3565   -0.286935
 N 0.0421 0.005 0.317   -0.223809
 N 0.1464 0.9414 0.3616   0.097446
 N 0.2285 0.9217 0.3822   -0.550086
 N 0.3728 0.38 0.4123   -0.346008
 N 0.6877 0.4768 0.9935   -0.374613
 N 0.9912 0.0554 0.8565   -0.286935
 N 0.9579 0.995 0.817   -0.223809
 N 0.8536 0.0586 0.8616   0.097446
 N 0.7715 0.0783 0.8822   -0.550086
 N 0.6272 0.62 0.9123   -0.346008
 N 0.0232 0.1877 0.2435   -0.374613
 N 0.4446 0.4912 0.1065   -0.286935
 N 0.505 0.4579 0.067   -0.223809
 N 0.4414 0.3536 0.1116   0.097446
 N 0.4217 0.2715 0.1322   -0.550086
 N 0.88 0.1272 0.1623   -0.346008
 N 0.9768 0.8123 0.7435   -0.374613
 N 0.5554 0.5088 0.6065   -0.286935
 N 0.495 0.5421 0.567   -0.223809
 N 0.5586 0.6464 0.6116   0.097446
 N 0.5783 0.7285 0.6322   -0.550086
 N 0.12 0.8728 0.6623   -0.346008
 Cl 0.87954 0.87954 0.0   1.506324
 Cl 0.12046 0.12046 0.5   1.506324
 Cl 0.62046 0.37954 0.25   1.506324
 Cl 0.37954 0.62046 0.75   1.506324
 O 0.9039 0.8244 0.9512   -0.56924
 O 0.8619 0.9418 0.9554   -0.596977
 O 0.8244 0.9039 0.0488   -0.56924
 O 0.9418 0.8619 0.0446   -0.596977
 O 0.0961 0.1756 0.4512   -0.56924
 O 0.1381 0.0582 0.4554   -0.596977
 O 0.1756 0.0961 0.5488   -0.56924
 O 0.0582 0.1381 0.5446   -0.596977
 O 0.6756 0.4039 0.2012   -0.56924
 O 0.5582 0.3619 0.2054   -0.596977
 O 0.5961 0.3244 0.2988   -0.56924
 O 0.6381 0.4418 0.2946   -0.596977
 O 0.3244 0.5961 0.7012   -0.56924
 O 0.4418 0.6381 0.7054   -0.596977
 O 0.4039 0.6756 0.7988   -0.56924
 O 0.3619 0.5582 0.7946   -0.596977
