{'_ref': 'TBD', '_srcid': 'CAKYAQ_clean', 'submitters': [{'name': 'Dalar Nazarian Jeff Camp and David Sholl', 'email': 'dalar@gatech.edu jcamp6@gatech.edu'}], '_method': 'VASP DFT with PBE;DDEC'}
data_CdH36C48N12ClO4
_symmetry_space_group_name_H-M   'P 1'
_cell_length_a   15.85060000
_cell_length_b   15.85060000
_cell_length_c   21.57600000
_cell_angle_alpha   90.00000000
_cell_angle_beta   90.00000000
_cell_angle_gamma   90.00000000
_symmetry_Int_Tables_number   1
_chemical_formula_structural   CdH36C48N12ClO4
_chemical_formula_sum   'Cd4 H144 C192 N48 Cl4 O16'
_cell_volume   5420.78704329
_cell_formula_units_Z   4
loop_
 _symmetry_equiv_pos_site_id
 _symmetry_equiv_pos_as_xyz
  1  'x, y, z'
loop_
 _atom_site_label
 _atom_site_fract_x
 _atom_site_fract_y
 _atom_site_fract_z
 _atom_site_charge
 Cd 0.44001 0.44001 0.5   0.784237
 Cd 0.55999 0.55999 0.0   0.784237
 Cd 0.05999 0.94001 0.75   0.784237
 Cd 0.94001 0.05999 0.25   0.784237
 H 0.5591 0.3425 0.5928   0.050809
 H 0.653 0.2326 0.6093   0.119202
 H 0.5977 0.147 0.4382   0.127421
 H 0.5048 0.2586 0.4271   0.063797
 H 0.6622 0.0327 0.4643   0.101754
 H 0.7672 0.931 0.4747   0.098935
 H 0.8795 0.9534 0.5425   0.102464
 H 0.7763 0.1742 0.596   0.08686
 H 0.9942 0.2002 0.792   0.087392
 H 0.0888 0.295 0.8374   0.092372
 H 0.2043 0.3457 0.7834   0.076008
 H 0.14 0.1944 0.6392   0.114233
 H 0.2636 0.209 0.6067   0.125045
 H 0.3618 0.2677 0.5417   0.071922
 H 0.386 0.4647 0.6498   0.080873
 H 0.2861 0.4137 0.7171   0.129624
 H 0.9728 0.2565 0.6077   0.328323
 H 0.9005 0.2593 0.6515   0.306172
 H 0.4409 0.6575 0.0928   0.050809
 H 0.347 0.7674 0.1093   0.119202
 H 0.4023 0.853 0.9382   0.127421
 H 0.4952 0.7414 0.9271   0.063797
 H 0.3378 0.9673 0.9643   0.101754
 H 0.2328 0.069 0.9747   0.098935
 H 0.1205 0.0466 0.0425   0.102464
 H 0.2237 0.8258 0.096   0.08686
 H 0.0058 0.7998 0.292   0.087392
 H 0.9112 0.705 0.3374   0.092372
 H 0.7957 0.6543 0.2834   0.076008
 H 0.86 0.8056 0.1392   0.114233
 H 0.7364 0.791 0.1067   0.125045
 H 0.6382 0.7323 0.0417   0.071922
 H 0.614 0.5353 0.1498   0.080873
 H 0.7139 0.5863 0.2171   0.129624
 H 0.0272 0.7435 0.1077   0.328323
 H 0.0995 0.7407 0.1515   0.306172
 H 0.1575 0.0591 0.8428   0.050809
 H 0.2674 0.153 0.8593   0.119204
 H 0.353 0.0977 0.6882   0.127421
 H 0.2414 0.0048 0.6771   0.063797
 H 0.4673 0.1622 0.7143   0.101754
 H 0.569 0.2672 0.7247   0.098937
 H 0.5466 0.3795 0.7925   0.102464
 H 0.3258 0.2763 0.846   0.08686
 H 0.2998 0.4942 0.042   0.087392
 H 0.205 0.5888 0.0874   0.092372
 H 0.1543 0.7043 0.0334   0.076007
 H 0.3056 0.64 0.8892   0.114233
 H 0.291 0.7636 0.8567   0.125045
 H 0.2323 0.8618 0.7917   0.071922
 H 0.0353 0.886 0.8998   0.080873
 H 0.0863 0.7861 0.9671   0.129623
 H 0.2435 0.4728 0.8577   0.328322
 H 0.2407 0.4005 0.9015   0.306172
 H 0.8425 0.9409 0.3428   0.050809
 H 0.7326 0.847 0.3593   0.119204
 H 0.647 0.9023 0.1882   0.127421
 H 0.7586 0.9952 0.1771   0.063797
 H 0.5327 0.8378 0.2143   0.101754
 H 0.431 0.7328 0.2247   0.098937
 H 0.4534 0.6205 0.2925   0.102464
 H 0.6742 0.7237 0.346   0.08686
 H 0.7002 0.5058 0.542   0.087392
 H 0.795 0.4112 0.5874   0.092372
 H 0.8457 0.2957 0.5334   0.076007
 H 0.6944 0.36 0.3892   0.114233
 H 0.709 0.2364 0.3567   0.125045
 H 0.7677 0.1382 0.2917   0.071922
 H 0.9647 0.114 0.3998   0.080873
 H 0.9137 0.2139 0.4671   0.129623
 H 0.7565 0.5272 0.3577   0.328322
 H 0.7593 0.5995 0.4015   0.306172
 H 0.9409 0.8425 0.6572   0.050808
 H 0.847 0.7326 0.6407   0.119202
 H 0.9023 0.647 0.8118   0.127421
 H 0.9952 0.7586 0.8229   0.063797
 H 0.8378 0.5327 0.7857   0.101754
 H 0.7328 0.431 0.7753   0.098938
 H 0.6205 0.4534 0.7075   0.102464
 H 0.7237 0.6742 0.654   0.086861
 H 0.5058 0.7002 0.458   0.087393
 H 0.4112 0.795 0.4126   0.092372
 H 0.2957 0.8457 0.4666   0.076008
 H 0.36 0.6944 0.6108   0.114233
 H 0.2364 0.709 0.6433   0.125045
 H 0.1382 0.7677 0.7083   0.071922
 H 0.114 0.9647 0.6002   0.080872
 H 0.2139 0.9137 0.5329   0.129624
 H 0.5272 0.7565 0.6423   0.328323
 H 0.5995 0.7593 0.5985   0.306174
 H 0.0591 0.1575 0.1572   0.050808
 H 0.153 0.2674 0.1407   0.119202
 H 0.0977 0.353 0.3118   0.127421
 H 0.0048 0.2414 0.3229   0.063797
 H 0.1622 0.4673 0.2857   0.101754
 H 0.2672 0.569 0.2753   0.098938
 H 0.3795 0.5466 0.2075   0.102464
 H 0.2763 0.3258 0.154   0.086861
 H 0.4942 0.2998 0.958   0.087393
 H 0.5888 0.205 0.9126   0.092372
 H 0.7043 0.1543 0.9666   0.076008
 H 0.64 0.3056 0.1108   0.114233
 H 0.7636 0.291 0.1433   0.125045
 H 0.8618 0.2323 0.2083   0.071922
 H 0.886 0.0353 0.1002   0.080872
 H 0.7861 0.0863 0.0329   0.129624
 H 0.4728 0.2435 0.1423   0.328323
 H 0.4005 0.2407 0.0985   0.306174
 H 0.3425 0.5591 0.4072   0.050808
 H 0.2326 0.653 0.3907   0.119205
 H 0.147 0.5977 0.5618   0.127421
 H 0.2586 0.5048 0.5729   0.063797
 H 0.0327 0.6622 0.5357   0.101754
 H 0.931 0.7672 0.5253   0.09894
 H 0.9534 0.8795 0.4575   0.102464
 H 0.1742 0.7763 0.404   0.086861
 H 0.2002 0.9942 0.208   0.087393
 H 0.295 0.0888 0.1626   0.092372
 H 0.3457 0.2043 0.2166   0.076007
 H 0.1944 0.14 0.3608   0.114233
 H 0.209 0.2636 0.3933   0.125045
 H 0.2677 0.3618 0.4583   0.071922
 H 0.4647 0.386 0.3502   0.080872
 H 0.4137 0.2861 0.2829   0.129624
 H 0.2565 0.9728 0.3923   0.328322
 H 0.2593 0.9005 0.3485   0.306174
 H 0.6575 0.4409 0.9072   0.050808
 H 0.7674 0.347 0.8907   0.119205
 H 0.853 0.4023 0.0618   0.127421
 H 0.7414 0.4952 0.0729   0.063797
 H 0.9673 0.3378 0.0357   0.101754
 H 0.069 0.2328 0.0253   0.09894
 H 0.0466 0.1205 0.9575   0.102464
 H 0.8258 0.2237 0.904   0.086861
 H 0.7998 0.0058 0.708   0.087393
 H 0.705 0.9112 0.6626   0.092372
 H 0.6543 0.7957 0.7166   0.076007
 H 0.8056 0.86 0.8608   0.114233
 H 0.791 0.7364 0.8933   0.125045
 H 0.7323 0.6382 0.9583   0.071922
 H 0.5353 0.614 0.8502   0.080872
 H 0.5863 0.7139 0.7829   0.129624
 H 0.7435 0.0272 0.8923   0.328322
 H 0.7407 0.0995 0.8485   0.306174
 C 0.5672 0.3023 0.5607   0.169085
 C 0.6246 0.2373 0.5707   -0.230564
 C 0.6402 0.1791 0.5233   0.097708
 C 0.5923 0.1871 0.4706   -0.210993
 C 0.5358 0.2539 0.4646   0.165224
 C 0.707 0.1134 0.5306   0.017052
 C 0.7064 0.0409 0.4934   -0.120715
 C 0.7695 0.9811 0.4988   -0.0927
 C 0.8359 0.9943 0.5392   -0.09403
 C 0.8391 0.0661 0.5744   -8.1e-05
 C 0.7743 0.1252 0.5707   -0.130968
 C 0.9089 0.0741 0.6186   0.245443
 C 0.0055 0.1249 0.6812   0.248207
 C 0.0601 0.1873 0.7113   -0.04339
 C 0.043 0.218 0.77   -0.124304
 C 0.0988 0.2757 0.7963   -0.087613
 C 0.1678 0.3055 0.7646   -0.091818
 C 0.1839 0.2764 0.7047   0.02107
 C 0.129 0.216 0.6795   -0.130347
 C 0.2556 0.3078 0.6677   0.08343
 C 0.2851 0.2637 0.6155   -0.202288
 C 0.3445 0.2987 0.5772   0.134159
 C 0.3582 0.4134 0.6398   0.154094
 C 0.2984 0.3832 0.6803   -0.200703
 C 0.4328 0.6977 0.0607   0.169085
 C 0.3754 0.7627 0.0707   -0.230564
 C 0.3598 0.8209 0.0233   0.097708
 C 0.4077 0.8129 0.9706   -0.210993
 C 0.4642 0.7461 0.9646   0.165224
 C 0.293 0.8866 0.0306   0.017052
 C 0.2936 0.9591 0.9934   -0.120715
 C 0.2305 0.0189 0.9988   -0.0927
 C 0.1641 0.0057 0.0392   -0.09403
 C 0.1609 0.9339 0.0744   -8.1e-05
 C 0.2257 0.8748 0.0707   -0.130968
 C 0.0911 0.9259 0.1186   0.245443
 C 0.9945 0.8751 0.1812   0.248207
 C 0.9399 0.8127 0.2113   -0.04339
 C 0.957 0.782 0.27   -0.124304
 C 0.9012 0.7243 0.2963   -0.087613
 C 0.8322 0.6945 0.2646   -0.091818
 C 0.8161 0.7236 0.2047   0.02107
 C 0.871 0.784 0.1795   -0.130347
 C 0.7444 0.6922 0.1677   0.08343
 C 0.7149 0.7363 0.1155   -0.202288
 C 0.6555 0.7013 0.0772   0.134159
 C 0.6418 0.5866 0.1398   0.154094
 C 0.7016 0.6168 0.1803   -0.200703
 C 0.1977 0.0672 0.8107   0.169086
 C 0.2627 0.1246 0.8207   -0.230565
 C 0.3209 0.1402 0.7733   0.097709
 C 0.3129 0.0923 0.7206   -0.210993
 C 0.2461 0.0358 0.7146   0.165224
 C 0.3866 0.207 0.7806   0.017052
 C 0.4591 0.2064 0.7434   -0.120715
 C 0.5189 0.2695 0.7488   -0.092701
 C 0.5057 0.3359 0.7892   -0.09403
 C 0.4339 0.3391 0.8244   -8.1e-05
 C 0.3748 0.2743 0.8207   -0.130968
 C 0.4259 0.4089 0.8686   0.245443
 C 0.3751 0.5055 0.9312   0.248207
 C 0.3127 0.5601 0.9613   -0.04339
 C 0.282 0.543 0.02   -0.124304
 C 0.2243 0.5988 0.0463   -0.087613
 C 0.1945 0.6678 0.0146   -0.091818
 C 0.2236 0.6839 0.9547   0.02107
 C 0.284 0.629 0.9295   -0.130347
 C 0.1922 0.7556 0.9177   0.08343
 C 0.2363 0.7851 0.8655   -0.202288
 C 0.2013 0.8445 0.8272   0.134158
 C 0.0866 0.8582 0.8898   0.154094
 C 0.1168 0.7984 0.9303   -0.200703
 C 0.8023 0.9328 0.3107   0.169086
 C 0.7373 0.8754 0.3207   -0.230565
 C 0.6791 0.8598 0.2733   0.097709
 C 0.6871 0.9077 0.2206   -0.210993
 C 0.7539 0.9642 0.2146   0.165224
 C 0.6134 0.793 0.2806   0.017052
 C 0.5409 0.7936 0.2434   -0.120715
 C 0.4811 0.7305 0.2488   -0.092701
 C 0.4943 0.6641 0.2892   -0.09403
 C 0.5661 0.6609 0.3244   -8.1e-05
 C 0.6252 0.7257 0.3207   -0.130968
 C 0.5741 0.5911 0.3686   0.245443
 C 0.6249 0.4945 0.4312   0.248207
 C 0.6873 0.4399 0.4613   -0.04339
 C 0.718 0.457 0.52   -0.124304
 C 0.7757 0.4012 0.5463   -0.087613
 C 0.8055 0.3322 0.5146   -0.091818
 C 0.7764 0.3161 0.4547   0.02107
 C 0.716 0.371 0.4295   -0.130347
 C 0.8078 0.2444 0.4177   0.08343
 C 0.7637 0.2149 0.3655   -0.202288
 C 0.7987 0.1555 0.3272   0.134158
 C 0.9134 0.1418 0.3898   0.154094
 C 0.8832 0.2016 0.4303   -0.200703
 C 0.9328 0.8023 0.6893   0.169085
 C 0.8754 0.7373 0.6793   -0.230565
 C 0.8598 0.6791 0.7267   0.097708
 C 0.9077 0.6871 0.7794   -0.210994
 C 0.9642 0.7539 0.7854   0.165224
 C 0.793 0.6134 0.7194   0.017052
 C 0.7936 0.5409 0.7566   -0.120715
 C 0.7305 0.4811 0.7512   -0.092701
 C 0.6641 0.4943 0.7108   -0.094029
 C 0.6609 0.5661 0.6756   -8.1e-05
 C 0.7257 0.6252 0.6793   -0.130968
 C 0.5911 0.5741 0.6314   0.245443
 C 0.4945 0.6249 0.5688   0.248207
 C 0.4399 0.6873 0.5387   -0.04339
 C 0.457 0.718 0.48   -0.124305
 C 0.4012 0.7757 0.4537   -0.087613
 C 0.3322 0.8055 0.4854   -0.091819
 C 0.3161 0.7764 0.5453   0.02107
 C 0.371 0.716 0.5705   -0.130347
 C 0.2444 0.8078 0.5823   0.08343
 C 0.2149 0.7637 0.6345   -0.202288
 C 0.1555 0.7987 0.6728   0.134159
 C 0.1418 0.9134 0.6102   0.154095
 C 0.2016 0.8832 0.5697   -0.200703
 C 0.0672 0.1977 0.1893   0.169085
 C 0.1246 0.2627 0.1793   -0.230565
 C 0.1402 0.3209 0.2267   0.097708
 C 0.0923 0.3129 0.2794   -0.210994
 C 0.0358 0.2461 0.2854   0.165224
 C 0.207 0.3866 0.2194   0.017052
 C 0.2064 0.4591 0.2566   -0.120715
 C 0.2695 0.5189 0.2512   -0.092701
 C 0.3359 0.5057 0.2108   -0.094029
 C 0.3391 0.4339 0.1756   -8.1e-05
 C 0.2743 0.3748 0.1793   -0.130968
 C 0.4089 0.4259 0.1314   0.245443
 C 0.5055 0.3751 0.0688   0.248207
 C 0.5601 0.3127 0.0387   -0.04339
 C 0.543 0.282 0.98   -0.124305
 C 0.5988 0.2243 0.9537   -0.087613
 C 0.6678 0.1945 0.9854   -0.091819
 C 0.6839 0.2236 0.0453   0.02107
 C 0.629 0.284 0.0705   -0.130347
 C 0.7556 0.1922 0.0823   0.08343
 C 0.7851 0.2363 0.1345   -0.202288
 C 0.8445 0.2013 0.1728   0.134159
 C 0.8582 0.0866 0.1102   0.154095
 C 0.7984 0.1168 0.0697   -0.200703
 C 0.3023 0.5672 0.4393   0.169086
 C 0.2373 0.6246 0.4293   -0.230565
 C 0.1791 0.6402 0.4767   0.097709
 C 0.1871 0.5923 0.5294   -0.210993
 C 0.2539 0.5358 0.5354   0.165224
 C 0.1134 0.707 0.4694   0.017052
 C 0.0409 0.7064 0.5066   -0.120715
 C 0.9811 0.7695 0.5012   -0.092702
 C 0.9943 0.8359 0.4608   -0.094029
 C 0.0661 0.8391 0.4256   -8.1e-05
 C 0.1252 0.7743 0.4293   -0.130968
 C 0.0741 0.9089 0.3814   0.245443
 C 0.1249 0.0055 0.3188   0.248207
 C 0.1873 0.0601 0.2887   -0.04339
 C 0.218 0.043 0.23   -0.124305
 C 0.2757 0.0988 0.2037   -0.087613
 C 0.3055 0.1678 0.2354   -0.091818
 C 0.2764 0.1839 0.2953   0.02107
 C 0.216 0.129 0.3205   -0.130347
 C 0.3078 0.2556 0.3323   0.08343
 C 0.2637 0.2851 0.3845   -0.202288
 C 0.2987 0.3445 0.4228   0.134158
 C 0.4134 0.3582 0.3602   0.154094
 C 0.3832 0.2984 0.3197   -0.200703
 C 0.6977 0.4328 0.9393   0.169086
 C 0.7627 0.3754 0.9293   -0.230565
 C 0.8209 0.3598 0.9767   0.097709
 C 0.8129 0.4077 0.0294   -0.210993
 C 0.7461 0.4642 0.0354   0.165224
 C 0.8866 0.293 0.9694   0.017052
 C 0.9591 0.2936 0.0066   -0.120715
 C 0.0189 0.2305 0.0012   -0.092702
 C 0.0057 0.1641 0.9608   -0.094029
 C 0.9339 0.1609 0.9256   -8.1e-05
 C 0.8748 0.2257 0.9293   -0.130968
 C 0.9259 0.0911 0.8814   0.245443
 C 0.8751 0.9945 0.8188   0.248207
 C 0.8127 0.9399 0.7887   -0.04339
 C 0.782 0.957 0.73   -0.124305
 C 0.7243 0.9012 0.7037   -0.087613
 C 0.6945 0.8322 0.7354   -0.091818
 C 0.7236 0.8161 0.7953   0.02107
 C 0.784 0.871 0.8205   -0.130347
 C 0.6922 0.7444 0.8323   0.08343
 C 0.7363 0.7149 0.8845   -0.202288
 C 0.7013 0.6555 0.9228   0.134158
 C 0.5866 0.6418 0.8602   0.154094
 C 0.6168 0.7016 0.8197   -0.200703
 N 0.3794 0.3747 0.5874   -0.357458
 N 0.5228 0.3115 0.5084   -0.361388
 N 0.9465 0.0111 0.6448   -0.286886
 N 0.0072 0.0435 0.6838   -0.22427
 N 0.9443 0.1482 0.6402   0.076488
 N 0.9246 0.23 0.6198   -0.551715
 N 0.6206 0.6253 0.0874   -0.357458
 N 0.4772 0.6885 0.0084   -0.361388
 N 0.0535 0.9889 0.1448   -0.286886
 N 0.9928 0.9565 0.1838   -0.22427
 N 0.0557 0.8518 0.1402   0.076488
 N 0.0754 0.77 0.1198   -0.551715
 N 0.1253 0.8794 0.8374   -0.357458
 N 0.1885 0.0228 0.7584   -0.361388
 N 0.4889 0.4465 0.8948   -0.286886
 N 0.4565 0.5072 0.9338   -0.22427
 N 0.3518 0.4443 0.8902   0.076488
 N 0.27 0.4246 0.8698   -0.551715
 N 0.8747 0.1206 0.3374   -0.357458
 N 0.8115 0.9772 0.2584   -0.361388
 N 0.5111 0.5535 0.3948   -0.286886
 N 0.5435 0.4928 0.4338   -0.22427
 N 0.6482 0.5557 0.3902   0.076488
 N 0.73 0.5754 0.3698   -0.551715
 N 0.1206 0.8747 0.6626   -0.357458
 N 0.9772 0.8115 0.7416   -0.361388
 N 0.5535 0.5111 0.6052   -0.286886
 N 0.4928 0.5435 0.5662   -0.22427
 N 0.5557 0.6482 0.6098   0.076489
 N 0.5754 0.73 0.6302   -0.551716
 N 0.8794 0.1253 0.1626   -0.357458
 N 0.0228 0.1885 0.2416   -0.361388
 N 0.4465 0.4889 0.1052   -0.286886
 N 0.5072 0.4565 0.0662   -0.22427
 N 0.4443 0.3518 0.1098   0.076489
 N 0.4246 0.27 0.1302   -0.551716
 N 0.3747 0.3794 0.4126   -0.357458
 N 0.3115 0.5228 0.4916   -0.361388
 N 0.0111 0.9465 0.3552   -0.286886
 N 0.0435 0.0072 0.3162   -0.22427
 N 0.1482 0.9443 0.3598   0.076489
 N 0.23 0.9246 0.3802   -0.551716
 N 0.6253 0.6206 0.9126   -0.357458
 N 0.6885 0.4772 0.9916   -0.361388
 N 0.9889 0.0535 0.8552   -0.286886
 N 0.9565 0.9928 0.8162   -0.22427
 N 0.8518 0.0557 0.8598   0.076489
 N 0.77 0.0754 0.8802   -0.551716
 Cl 0.37494 0.62506 0.75   1.908237
 Cl 0.62506 0.37494 0.25   1.908237
 Cl 0.87494 0.87494 0.0   1.908237
 Cl 0.12506 0.12506 0.5   1.908237
 O 0.3779 0.5695 0.7909   -0.692624
 O 0.392 0.6915 0.7822   -0.686546
 O 0.4305 0.6221 0.7091   -0.692624
 O 0.3085 0.608 0.7178   -0.686545
 O 0.6221 0.4305 0.2909   -0.692624
 O 0.608 0.3085 0.2822   -0.686546
 O 0.5695 0.3779 0.2091   -0.692624
 O 0.6915 0.392 0.2178   -0.686545
 O 0.9305 0.8779 0.0409   -0.692624
 O 0.8085 0.892 0.0322   -0.686546
 O 0.8779 0.9305 0.9591   -0.692624
 O 0.892 0.8085 0.9678   -0.686545
 O 0.0695 0.1221 0.5409   -0.692624
 O 0.1915 0.108 0.5322   -0.686546
 O 0.1221 0.0695 0.4591   -0.692624
 O 0.108 0.1915 0.4678   -0.686545
