{'_ref': 'TBD', '_srcid': 'CAKYAQ_clean', 'submitters': [{'name': 'Dalar Nazarian Jeff Camp and David Sholl', 'email': 'dalar@gatech.edu jcamp6@gatech.edu'}], '_method': 'VASP DFT with PBE;DDEC'}
data_Cd3H8(C6O7)2
_symmetry_space_group_name_H-M   'P 1'
_cell_length_a   10.81999994
_cell_length_b   11.41600011
_cell_length_c   12.43200000
_cell_angle_alpha   87.44000043
_cell_angle_beta   72.44999839
_cell_angle_gamma   70.11000122
_symmetry_Int_Tables_number   1
_chemical_formula_structural   Cd3H8(C6O7)2
_chemical_formula_sum   'Cd6 H16 C24 O28'
_cell_volume   1373.92251006
_cell_formula_units_Z   2
loop_
 _symmetry_equiv_pos_site_id
 _symmetry_equiv_pos_as_xyz
  1  'x, y, z'
loop_
 _atom_site_label
 _atom_site_fract_x
 _atom_site_fract_y
 _atom_site_fract_z
 _atom_site_charge
 Cd 0.89303 0.04648 0.13271   1.115687
 Cd 0.23466 0.92872 0.10909   1.195101
 Cd 0.60544 0.86361 0.02083   1.179829
 Cd 0.10697 0.95352 0.86729   1.115687
 Cd 0.76534 0.07128 0.89091   1.195101
 Cd 0.39456 0.13639 0.97917   1.179829
 H 0.8657 0.0686 0.5155   0.137032
 H 0.843 0.2975 0.9221   0.083702
 H 0.3993 0.5115 0.0984   0.14538
 H 0.866 0.3078 0.1028   0.167226
 H 0.9459 0.3841 0.0196   0.177495
 H 0.3018 0.0481 0.2829   0.090802
 H 0.4421 0.145 0.3169   0.182456
 H 0.3928 0.2038 0.2145   0.170304
 H 0.1343 0.9314 0.4845   0.137027
 H 0.157 0.7025 0.0779   0.083703
 H 0.6007 0.4885 0.9016   0.14537
 H 0.134 0.6922 0.8972   0.167226
 H 0.0541 0.6159 0.9804   0.177496
 H 0.6982 0.9519 0.7171   0.090802
 H 0.5579 0.855 0.6831   0.182456
 H 0.6072 0.7962 0.7855   0.170304
 C 0.9559 0.0235 0.4735   -0.170113
 C 0.0745 0.2221 0.0575   0.76659
 C 0.9269 0.2421 0.9371   0.180383
 C 0.4874 0.9088 0.2768   0.55901
 C 0.4578 0.6692 0.0484   0.723391
 C 0.4599 0.5377 0.0406   -0.179755
 C 0.9895 0.0102 0.3479   0.702667
 C 0.5997 0.1063 0.1686   0.759523
 C 0.9436 0.3009 0.0361   -0.417444
 C 0.3967 0.0243 0.2321   0.177968
 C 0.4511 0.1289 0.2385   -0.411571
 C 0.0493 0.2364 0.8343   0.554317
 C 0.0441 0.9765 0.5265   -0.170051
 C 0.9255 0.7779 0.9425   0.76659
 C 0.0731 0.7579 0.0629   0.180383
 C 0.5126 0.0912 0.7232   0.559009
 C 0.5422 0.3308 0.9516   0.723377
 C 0.5401 0.4623 0.9594   -0.179645
 C 0.0105 0.9898 0.6521   0.70266
 C 0.4003 0.8937 0.8314   0.759522
 C 0.0564 0.6991 0.9639   -0.417444
 C 0.6033 0.9757 0.7679   0.177968
 C 0.5489 0.8711 0.7615   -0.411571
 C 0.9507 0.7636 0.1657   0.554318
 O 0.0775 0.1214 0.105   -0.670055
 O 0.6549 0.0391 0.0768   -0.73527
 O 0.5834 0.826 0.206   -0.492253
 O 0.3536 0.7343 0.1211   -0.586179
 O 0.4744 0.9016 0.3776   -0.307346
 O 0.1128 0.9465 0.2914   -0.621178
 O 0.8926 0.0655 0.312   -0.505401
 O 0.1785 0.2569 0.0253   -0.575845
 O 0.0543 0.3335 0.7878   -0.32204
 O 0.9134 0.1231 0.9577   -0.706239
 O 0.3957 0.0016 0.1209   -0.709631
 O 0.1467 0.1331 0.8008   -0.496697
 O 0.5488 0.7054 0.9848   -0.623021
 O 0.6667 0.1553 0.2069   -0.538903
 O 0.9225 0.8786 0.895   -0.670055
 O 0.3451 0.9609 0.9232   -0.73527
 O 0.4166 0.174 0.794   -0.492251
 O 0.6464 0.2657 0.8789   -0.586179
 O 0.5256 0.0984 0.6224   -0.30734
 O 0.8872 0.0535 0.7086   -0.621177
 O 0.1074 0.9345 0.688   -0.5054
 O 0.8215 0.7431 0.9747   -0.575845
 O 0.9457 0.6665 0.2122   -0.322037
 O 0.0866 0.8769 0.0423   -0.706239
 O 0.6043 0.9984 0.8791   -0.709631
 O 0.8533 0.8669 0.1992   -0.496695
 O 0.4512 0.2946 0.0152   -0.623018
 O 0.3333 0.8447 0.7931   -0.538902
