{'_ref': 'TBD', '_srcid': 'CAKYAQ_clean', 'submitters': [{'name': 'Dalar Nazarian Jeff Camp and David Sholl', 'email': 'dalar@gatech.edu jcamp6@gatech.edu'}], '_method': 'VASP DFT with PBE;DDEC'}
data_CuH4C6N5O2
_symmetry_space_group_name_H-M   'P 1'
_cell_length_a   14.28500048
_cell_length_b   18.71580000
_cell_length_c   18.71579970
_cell_angle_alpha   113.75999951
_cell_angle_beta   104.73899893
_cell_angle_gamma   104.73920016
_symmetry_Int_Tables_number   1
_chemical_formula_structural   CuH4C6N5O2
_chemical_formula_sum   'Cu12 H48 C72 N60 O24'
_cell_volume   4052.89758677
_cell_formula_units_Z   12
loop_
 _symmetry_equiv_pos_site_id
 _symmetry_equiv_pos_as_xyz
  1  'x, y, z'
loop_
 _atom_site_label
 _atom_site_fract_x
 _atom_site_fract_y
 _atom_site_fract_z
 _atom_site_charge
 Cu 0.40337 0.99257 0.44059   0.742613
 Cu 0.46757 0.66881 0.52714   0.742879
 Cu 0.4108 0.44802 0.00743   0.718532
 Cu 0.79876 0.85833 0.33119   0.742519
 Cu 0.96278 0.55941 0.55198   0.74241
 Cu 0.94043 0.47286 0.14167   0.74209
 Cu 0.59663 0.00743 0.55941   0.742612
 Cu 0.53243 0.33119 0.47286   0.742879
 Cu 0.5892 0.55198 0.99257   0.718532
 Cu 0.20124 0.14167 0.66881   0.742518
 Cu 0.03722 0.44059 0.44802   0.742409
 Cu 0.05957 0.52714 0.85833   0.74209
 H 0.199 0.8289 0.3153   0.082946
 H 0.5928 0.8486 0.5785   0.096743
 H 0.2684 0.595 0.3704   0.336931
 H 0.1706 0.582 0.3054   0.33876
 H 0.3451 0.9124 0.2552   0.063384
 H 0.7586 0.9489 0.4977   0.103668
 H 0.5272 0.8176 0.1157   0.364175
 H 0.6288 0.8327 0.1783   0.32388
 H 0.3701 0.4864 0.1711   0.08384
 H 0.7442 0.7299 0.1514   0.096771
 H 0.6734 0.7754 0.405   0.338548
 H 0.5886 0.7234 0.418   0.33974
 H 0.4327 0.3428 0.0876   0.065236
 H 0.8097 0.5488 0.0511   0.10439
 H 0.7096 0.2981 0.1824   0.364668
 H 0.7961 0.3456 0.1673   0.324548
 H 0.8837 0.6847 0.5136   0.083148
 H 0.0143 0.4215 0.2701   0.096155
 H 0.898 0.6296 0.2246   0.338816
 H 0.8652 0.6946 0.2766   0.339367
 H 0.0899 0.7448 0.6572   0.063585
 H 0.2609 0.5023 0.4512   0.10351
 H 0.4115 0.8843 0.7019   0.36583
 H 0.4505 0.8217 0.6544   0.324393
 H 0.801 0.1711 0.6847   0.082946
 H 0.4072 0.1514 0.4215   0.096743
 H 0.7316 0.405 0.6296   0.336931
 H 0.8294 0.418 0.6946   0.33876
 H 0.6549 0.0876 0.7448   0.063387
 H 0.2414 0.0511 0.5023   0.103668
 H 0.4728 0.1824 0.8843   0.364187
 H 0.3712 0.1673 0.8217   0.323883
 H 0.6299 0.5136 0.8289   0.08384
 H 0.2558 0.2701 0.8486   0.096771
 H 0.3266 0.2246 0.595   0.338548
 H 0.4114 0.2766 0.582   0.33974
 H 0.5673 0.6572 0.9124   0.06524
 H 0.1903 0.4512 0.9489   0.10439
 H 0.2904 0.7019 0.8176   0.364679
 H 0.2039 0.6544 0.8327   0.324551
 H 0.1163 0.3153 0.4864   0.083148
 H 0.9857 0.5785 0.7299   0.096155
 H 0.102 0.3704 0.7754   0.338816
 H 0.1348 0.3054 0.7234   0.339367
 H 0.9101 0.2552 0.3428   0.063589
 H 0.7391 0.4977 0.5488   0.10351
 H 0.5885 0.1157 0.2981   0.365842
 H 0.5495 0.1783 0.3456   0.324396
 C 0.6694 0.68 0.5683   0.520331
 C 0.6124 0.6165 0.5928   0.509689
 C 0.2418 0.8079 0.3555   0.366339
 C 0.3971 0.8441 0.4573   0.407142
 C 0.3644 0.7592 0.4405   -0.098798
 C 0.2675 0.6983 0.3739   0.487579
 C 0.521 0.8322 0.5361   0.240144
 C 0.4129 0.9128 0.2728   0.390074
 C 0.5561 0.9382 0.3758   0.392795
 C 0.5998 0.902 0.3166   -0.10546
 C 0.537 0.8699 0.2305   0.486512
 C 0.7043 0.9431 0.4405   0.244723
 C 0.9894 0.8883 0.32   0.522103
 C 0.9959 0.9763 0.3835   0.507522
 C 0.4339 0.5476 0.1921   0.36332
 C 0.553 0.6132 0.1559   0.403335
 C 0.6052 0.6813 0.2408   -0.096594
 C 0.5692 0.6756 0.3017   0.487147
 C 0.6888 0.7039 0.1678   0.238936
 C 0.5001 0.36 0.0872   0.385602
 C 0.6179 0.4376 0.0618   0.389012
 C 0.6978 0.4146 0.098   -0.102729
 C 0.6671 0.3606 0.1301   0.486336
 C 0.7612 0.4974 0.0569   0.244733
 C 0.1011 0.4317 0.1117   0.521125
 C 0.0196 0.4072 0.0237   0.508914
 C 0.8863 0.6445 0.4524   0.364618
 C 0.9398 0.5427 0.3868   0.407995
 C 0.9239 0.5595 0.3187   -0.101997
 C 0.8936 0.6261 0.3244   0.489213
 C 0.9849 0.4639 0.2961   0.239244
 C 0.1401 0.7272 0.64   0.389043
 C 0.1803 0.6242 0.5624   0.394702
 C 0.2832 0.6834 0.5854   -0.107178
 C 0.3065 0.7695 0.6394   0.488835
 C 0.2638 0.5595 0.5026   0.245075
 C 0.3306 0.32 0.4317   0.520331
 C 0.3876 0.3835 0.4072   0.509689
 C 0.7582 0.1921 0.6445   0.366338
 C 0.6029 0.1559 0.5427   0.407142
 C 0.6356 0.2408 0.5595   -0.098798
 C 0.7325 0.3017 0.6261   0.487579
 C 0.479 0.1678 0.4639   0.240144
 C 0.5871 0.0872 0.7272   0.390073
 C 0.4439 0.0618 0.6242   0.392796
 C 0.4002 0.098 0.6834   -0.10546
 C 0.463 0.1301 0.7695   0.486514
 C 0.2957 0.0569 0.5595   0.244722
 C 0.0106 0.1117 0.68   0.522103
 C 0.0041 0.0237 0.6165   0.507521
 C 0.5661 0.4524 0.8079   0.363319
 C 0.447 0.3868 0.8441   0.403335
 C 0.3948 0.3187 0.7592   -0.096594
 C 0.4308 0.3244 0.6983   0.487147
 C 0.3112 0.2961 0.8322   0.238936
 C 0.4999 0.64 0.9128   0.385601
 C 0.3821 0.5624 0.9382   0.389012
 C 0.3022 0.5854 0.902   -0.102729
 C 0.3329 0.6394 0.8699   0.486337
 C 0.2388 0.5026 0.9431   0.244732
 C 0.8989 0.5683 0.8883   0.521125
 C 0.9804 0.5928 0.9763   0.508914
 C 0.1137 0.3555 0.5476   0.364617
 C 0.0602 0.4573 0.6132   0.407995
 C 0.0761 0.4405 0.6813   -0.101997
 C 0.1064 0.3739 0.6756   0.489213
 C 0.0151 0.5361 0.7039   0.239244
 C 0.8599 0.2728 0.36   0.389042
 C 0.8197 0.3758 0.4376   0.394702
 C 0.7168 0.3166 0.4146   -0.107178
 C 0.6935 0.2305 0.3606   0.488837
 C 0.7362 0.4405 0.4974   0.245074
 N 0.2067 0.7285 0.3338   -0.501342
 N 0.3369 0.8727 0.4155   -0.496377
 N 0.4444 0.7534 0.4943   -0.397745
 N 0.4948 0.8885 0.5176   -0.490564
 N 0.2326 0.6158 0.3478   -0.612346
 N 0.4396 0.8716 0.2075   -0.554556
 N 0.4625 0.9469 0.3533   -0.479153
 N 0.6955 0.9063 0.3612   -0.330378
 N 0.6229 0.9638 0.4528   -0.46584
 N 0.5685 0.8369 0.1672   -0.661866
 N 0.4782 0.6053 0.2715   -0.499385
 N 0.4642 0.5428 0.1273   -0.487378
 N 0.691 0.7409 0.2466   -0.398441
 N 0.6063 0.6291 0.1115   -0.480685
 N 0.6168 0.732 0.3842   -0.614186
 N 0.568 0.3359 0.1284   -0.552309
 N 0.5156 0.4064 0.0531   -0.469569
 N 0.7892 0.4549 0.0937   -0.330711
 N 0.6591 0.489 0.0362   -0.458564
 N 0.7316 0.3303 0.1631   -0.661636
 N 0.8729 0.6662 0.3947   -0.500157
 N 0.9214 0.5845 0.4572   -0.495774
 N 0.9501 0.5057 0.2591   -0.396584
 N 0.9772 0.4824 0.3709   -0.489095
 N 0.8848 0.6522 0.268   -0.615538
 N 0.2321 0.7925 0.6641   -0.554633
 N 0.1092 0.6467 0.5936   -0.480481
 N 0.3343 0.6388 0.5451   -0.3291
 N 0.1701 0.5472 0.511   -0.467331
 N 0.4013 0.8328 0.6697   -0.664714
 N 0.7933 0.2715 0.6662   -0.501342
 N 0.6631 0.1273 0.5845   -0.496377
 N 0.5556 0.2466 0.5057   -0.397745
 N 0.5052 0.1115 0.4824   -0.490563
 N 0.7674 0.3842 0.6522   -0.612346
 N 0.5604 0.1284 0.7925   -0.554556
 N 0.5375 0.0531 0.6467   -0.479152
 N 0.3045 0.0937 0.6388   -0.330378
 N 0.3771 0.0362 0.5472   -0.46584
 N 0.4315 0.1631 0.8328   -0.661872
 N 0.5218 0.3947 0.7285   -0.499385
 N 0.5358 0.4572 0.8727   -0.487378
 N 0.309 0.2591 0.7534   -0.398441
 N 0.3937 0.3709 0.8885   -0.480685
 N 0.3832 0.268 0.6158   -0.614186
 N 0.432 0.6641 0.8716   -0.552309
 N 0.4844 0.5936 0.9469   -0.469569
 N 0.2108 0.5451 0.9063   -0.330711
 N 0.3409 0.511 0.9638   -0.458564
 N 0.2684 0.6697 0.8369   -0.661642
 N 0.1271 0.3338 0.6053   -0.500157
 N 0.0786 0.4155 0.5428   -0.495774
 N 0.0499 0.4943 0.7409   -0.396584
 N 0.0228 0.5176 0.6291   -0.489095
 N 0.1152 0.3478 0.732   -0.615538
 N 0.7679 0.2075 0.3359   -0.554633
 N 0.8908 0.3533 0.4064   -0.48048
 N 0.6657 0.3612 0.4549   -0.329099
 N 0.8299 0.4528 0.489   -0.467331
 N 0.5987 0.1672 0.3303   -0.664719
 O 0.612 0.7085 0.5347   -0.537369
 O 0.5131 0.6021 0.5733   -0.529697
 O 0.7634 0.6992 0.583   -0.497134
 O 0.6634 0.5882 0.6283   -0.485888
 O 0.9035 0.8262 0.2915   -0.537683
 O 0.911 0.9712 0.3979   -0.527104
 O 0.0642 0.8838 0.3008   -0.497829
 O 0.0752 0.0401 0.4118   -0.485634
 O 0.0773 0.4653 0.1738   -0.537017
 O 0.9398 0.4267 0.0288   -0.528322
 O 0.1804 0.417 0.1162   -0.497006
 O 0.0351 0.3717 0.9599   -0.486353
 O 0.388 0.2915 0.4653   -0.537369
 O 0.4869 0.3979 0.4267   -0.529696
 O 0.2366 0.3008 0.417   -0.497135
 O 0.3366 0.4118 0.3717   -0.485889
 O 0.0965 0.1738 0.7085   -0.537683
 O 0.089 0.0288 0.6021   -0.527104
 O 0.9358 0.1162 0.6992   -0.497829
 O 0.9248 0.9599 0.5882   -0.485635
 O 0.9227 0.5347 0.8262   -0.537017
 O 0.0602 0.5733 0.9712   -0.528322
 O 0.8196 0.583 0.8838   -0.497007
 O 0.9649 0.6283 0.0401   -0.486354
