{'_ref': 'TBD', '_srcid': 'CAKYAQ_clean', 'submitters': [{'name': 'Dalar Nazarian Jeff Camp and David Sholl', 'email': 'dalar@gatech.edu jcamp6@gatech.edu'}], '_method': 'VASP DFT with PBE;DDEC'}
data_FeH4C8O5
_symmetry_space_group_name_H-M   'P 1'
_cell_length_a   6.88830000
_cell_length_b   21.29180041
_cell_length_c   21.29180000
_cell_angle_alpha   119.97100030
_cell_angle_beta   90.00000000
_cell_angle_gamma   90.00000000
_symmetry_Int_Tables_number   1
_chemical_formula_structural   FeH4C8O5
_chemical_formula_sum   'Fe6 H24 C48 O30'
_cell_volume   2705.16827061
_cell_formula_units_Z   6
loop_
 _symmetry_equiv_pos_site_id
 _symmetry_equiv_pos_as_xyz
  1  'x, y, z'
loop_
 _atom_site_label
 _atom_site_fract_x
 _atom_site_fract_y
 _atom_site_fract_z
 _atom_site_charge
 Fe 0.5 0.0 0.0   1.379238
 Fe 0.0 0.0 0.0   1.379239
 Fe 0.5 0.5 0.0   1.269031
 Fe 0.0 0.5 0.0   1.269031
 Fe 0.0 0.0 0.5   1.269031
 Fe 0.5 0.0 0.5   1.269031
 H 0.5393 0.32 0.7872   0.110518
 H 0.9618 0.7865 0.9637   0.111951
 H 0.9585 0.6788 0.9644   0.114337
 H 0.0393 0.68 0.2128   0.110518
 H 0.4618 0.2135 0.0363   0.111951
 H 0.4585 0.3212 0.0356   0.114337
 H 0.9607 0.2128 0.68   0.110518
 H 0.5382 0.0363 0.2135   0.111951
 H 0.5415 0.0356 0.3212   0.114337
 H 0.4607 0.7872 0.32   0.110518
 H 0.0382 0.9637 0.7865   0.111951
 H 0.0415 0.9644 0.6788   0.114337
 H 0.4607 0.68 0.2128   0.110515
 H 0.0382 0.2135 0.0363   0.11195
 H 0.0415 0.3212 0.0356   0.114335
 H 0.9607 0.32 0.7872   0.110515
 H 0.5382 0.7865 0.9637   0.11195
 H 0.5415 0.6788 0.9644   0.114335
 H 0.0393 0.7872 0.32   0.110515
 H 0.4618 0.9637 0.7865   0.11195
 H 0.4585 0.9644 0.6788   0.114335
 H 0.5393 0.2128 0.68   0.110515
 H 0.9618 0.0363 0.2135   0.11195
 H 0.9585 0.0356 0.3212   0.114335
 C 0.422 0.2983 0.7657   -0.054623
 C 0.0784 0.7652 0.965   -0.054861
 C 0.0761 0.7008 0.9658   -0.057875
 C 0.922 0.7017 0.2343   -0.054624
 C 0.5784 0.2348 0.035   -0.054861
 C 0.5761 0.2992 0.0342   -0.057876
 C 0.078 0.2343 0.7017   -0.054623
 C 0.4216 0.035 0.2348   -0.054861
 C 0.4239 0.0342 0.2992   -0.057875
 C 0.578 0.7657 0.2983   -0.054624
 C 0.9216 0.965 0.7652   -0.054861
 C 0.9239 0.9658 0.7008   -0.057876
 C 0.578 0.7017 0.2343   -0.054608
 C 0.9216 0.2348 0.035   -0.054862
 C 0.9239 0.2992 0.0342   -0.057875
 C 0.078 0.2983 0.7657   -0.054609
 C 0.4216 0.7652 0.965   -0.054862
 C 0.4239 0.7008 0.9658   -0.057875
 C 0.922 0.7657 0.2983   -0.054608
 C 0.5784 0.965 0.7652   -0.054862
 C 0.5761 0.9658 0.7008   -0.057875
 C 0.422 0.2343 0.7017   -0.054609
 C 0.0784 0.035 0.2348   -0.054862
 C 0.0761 0.0342 0.2992   -0.057875
 C 0.25 0.3992 0.8732   0.68703
 C 0.25 0.331 0.7988   -0.11277
 C 0.25 0.8715 0.9703   0.681751
 C 0.25 0.7983 0.9663   -0.109169
 C 0.25 0.6689 0.9685   -0.114342
 C 0.25 0.602 0.9766   0.681405
 C 0.75 0.6008 0.1268   0.68703
 C 0.75 0.669 0.2012   -0.11277
 C 0.75 0.1285 0.0297   0.681751
 C 0.75 0.2017 0.0337   -0.109169
 C 0.75 0.3311 0.0315   -0.114342
 C 0.75 0.398 0.0234   0.681405
 C 0.25 0.1268 0.6008   0.68703
 C 0.25 0.2012 0.669   -0.112769
 C 0.25 0.0297 0.1285   0.681751
 C 0.25 0.0337 0.2017   -0.109169
 C 0.25 0.0315 0.3311   -0.114342
 C 0.25 0.0234 0.398   0.681405
 C 0.75 0.8732 0.3992   0.68703
 C 0.75 0.7988 0.331   -0.112769
 C 0.75 0.9703 0.8715   0.681751
 C 0.75 0.9663 0.7983   -0.109169
 C 0.75 0.9685 0.6689   -0.114342
 C 0.75 0.9766 0.602   0.681405
 O 0.4122 0.42397 0.90003   -0.520815
 O 0.4131 0.89947 0.97373   -0.528481
 O 0.4133 0.57688 0.97732   -0.513443
 O 0.9122 0.57603 0.09997   -0.520815
 O 0.9131 0.10053 0.02627   -0.528481
 O 0.9133 0.42312 0.02268   -0.513443
 O 0.0878 0.09997 0.57603   -0.520815
 O 0.0869 0.02627 0.10053   -0.528481
 O 0.0867 0.02268 0.42312   -0.513443
 O 0.5878 0.90003 0.42397   -0.520815
 O 0.5869 0.97373 0.89947   -0.528481
 O 0.5867 0.97732 0.57688   -0.513443
 O 0.5878 0.57603 0.09997   -0.520815
 O 0.5869 0.10053 0.02627   -0.528481
 O 0.5867 0.42312 0.02268   -0.513443
 O 0.0878 0.42397 0.90003   -0.520815
 O 0.0869 0.89947 0.97373   -0.528481
 O 0.0867 0.57688 0.97732   -0.513443
 O 0.9122 0.90003 0.42397   -0.520815
 O 0.9131 0.97373 0.89947   -0.528481
 O 0.9133 0.97732 0.57688   -0.513443
 O 0.4122 0.09997 0.57603   -0.520815
 O 0.4131 0.02627 0.10053   -0.528481
 O 0.4133 0.02268 0.42312   -0.513443
 O 0.75 0.9801 0.0199   -0.633729
 O 0.25 0.0199 0.9801   -0.633729
 O 0.75 0.5015 0.9561   -0.569115
 O 0.25 0.4985 0.0439   -0.569115
 O 0.75 0.0439 0.4985   -0.569115
 O 0.25 0.9561 0.5015   -0.569115
