{'_ref': 'TBD', '_srcid': 'CAKYAQ_clean', 'submitters': [{'name': 'Dalar Nazarian Jeff Camp and David Sholl', 'email': 'dalar@gatech.edu jcamp6@gatech.edu'}], '_method': 'VASP DFT with PBE;DDEC'}
data_CuH4C9(NO2)2
_symmetry_space_group_name_H-M   'P 1'
_cell_length_a   9.74699967
_cell_length_b   9.74699992
_cell_length_c   14.76950000
_cell_angle_alpha   100.15999771
_cell_angle_beta   100.15999797
_cell_angle_gamma   107.05300376
_symmetry_Int_Tables_number   1
_chemical_formula_structural   CuH4C9(NO2)2
_chemical_formula_sum   'Cu4 H16 C36 N8 O16'
_cell_volume   1281.04785303
_cell_formula_units_Z   4
loop_
 _symmetry_equiv_pos_site_id
 _symmetry_equiv_pos_as_xyz
  1  'x, y, z'
loop_
 _atom_site_label
 _atom_site_fract_x
 _atom_site_fract_y
 _atom_site_fract_z
 _atom_site_charge
 Cu 0.49662 0.00644 0.75704   0.836582
 Cu 0.99356 0.50338 0.74296   0.836582
 Cu 0.50338 0.99356 0.24296   0.836582
 Cu 0.00644 0.49662 0.25704   0.836582
 H 0.8339 0.8309 0.8686   0.075775
 H 0.3974 0.2732 0.7657   0.097379
 H 0.2598 0.399 0.7526   0.0934
 H 0.1691 0.1661 0.6314   0.075772
 H 0.7268 0.6026 0.7343   0.097377
 H 0.601 0.7402 0.7474   0.093399
 H 0.1661 0.1691 0.1314   0.07578
 H 0.6026 0.7268 0.2343   0.097379
 H 0.7402 0.601 0.2474   0.0934
 H 0.8309 0.8339 0.3686   0.075778
 H 0.2732 0.3974 0.2657   0.097377
 H 0.399 0.2598 0.2526   0.093399
 H 0.218 0.782 0.75   0.078526
 H 0.776 0.224 0.75   0.087926
 H 0.782 0.218 0.25   0.078526
 H 0.224 0.776 0.25   0.087926
 C 0.72116 0.03484 0.9189   0.663208
 C 0.86932 0.02328 0.9607   -0.056245
 C 0.90073 0.89907 0.9218   -0.069041
 C 0.97084 0.12656 0.0399   -0.080465
 C 0.9496 0.2684 0.0833   0.675958
 C 0.4931 0.3115 0.7586   0.210519
 C 0.30077 0.49743 0.7512   0.219212
 C 0.96516 0.27884 0.5811   0.663211
 C 0.97672 0.13068 0.5393   -0.056245
 C 0.10093 0.09927 0.5782   -0.069045
 C 0.87344 0.02916 0.4601   -0.080464
 C 0.7316 0.0504 0.4167   0.675958
 C 0.6885 0.5069 0.7414   0.21052
 C 0.50257 0.69923 0.7488   0.219216
 C 0.27884 0.96516 0.0811   0.663206
 C 0.13068 0.97672 0.0393   -0.056226
 C 0.09927 0.10093 0.0782   -0.069094
 C 0.02916 0.87344 0.9601   -0.080519
 C 0.0504 0.7316 0.9167   0.675966
 C 0.5069 0.6885 0.2414   0.210521
 C 0.69923 0.50257 0.2488   0.219214
 C 0.03484 0.72116 0.4189   0.663208
 C 0.02328 0.86932 0.4607   -0.056225
 C 0.89907 0.90073 0.4218   -0.069098
 C 0.12656 0.97084 0.5399   -0.080518
 C 0.2684 0.9496 0.5833   0.675966
 C 0.3115 0.4931 0.2586   0.210522
 C 0.49743 0.30077 0.2512   0.219217
 C 0.7163 0.2837 0.75   0.411921
 C 0.5436 0.4564 0.75   -0.08432
 C 0.4489 0.5511 0.75   -0.089907
 C 0.2766 0.7234 0.75   0.424777
 C 0.2837 0.7163 0.25   0.411921
 C 0.4564 0.5436 0.25   -0.084321
 C 0.5511 0.4489 0.25   -0.089908
 C 0.7234 0.2766 0.25   0.424778
 N 0.57754 0.22526 0.75681   -0.341619
 N 0.21488 0.58232 0.75051   -0.349078
 N 0.77474 0.42246 0.74319   -0.341619
 N 0.41768 0.78512 0.74949   -0.349078
 N 0.42246 0.77474 0.24319   -0.341619
 N 0.78512 0.41768 0.24949   -0.349078
 N 0.22526 0.57754 0.25681   -0.341619
 N 0.58232 0.21488 0.25051   -0.349078
 O 0.68892 0.01968 0.83058   -0.6227
 O 0.6402 0.0508 0.97   -0.552492
 O 0.99312 0.31196 0.172   -0.638522
 O 0.8913 0.3309 0.0312   -0.576299
 O 0.98032 0.31108 0.66942   -0.6227
 O 0.9492 0.3598 0.53   -0.552492
 O 0.68804 0.00688 0.328   -0.638522
 O 0.6691 0.1087 0.4688   -0.576299
 O 0.31108 0.98032 0.16942   -0.622699
 O 0.3598 0.9492 0.03   -0.552485
 O 0.00688 0.68804 0.828   -0.638523
 O 0.1087 0.6691 0.9688   -0.576298
 O 0.01968 0.68892 0.33058   -0.622699
 O 0.0508 0.6402 0.47   -0.552485
 O 0.31196 0.99312 0.672   -0.638523
 O 0.3309 0.8913 0.5312   -0.576298
