{'_ref': 'TBD', '_srcid': 'CAKYAQ_clean', 'submitters': [{'name': 'Dalar Nazarian Jeff Camp and David Sholl', 'email': 'dalar@gatech.edu jcamp6@gatech.edu'}], '_method': 'VASP DFT with PBE;DDEC'}
data_Cu2H32C39(N2O5)2
_symmetry_space_group_name_H-M   'P 1'
_cell_length_a   12.88290024
_cell_length_b   14.15649999
_cell_length_c   18.68190000
_cell_angle_alpha   104.82200013
_cell_angle_beta   98.40900003
_cell_angle_gamma   113.36699979
_symmetry_Int_Tables_number   1
_chemical_formula_structural   Cu2H32C39(N2O5)2
_chemical_formula_sum   'Cu4 H64 C78 N8 O20'
_cell_volume   2903.45893081
_cell_formula_units_Z   2
loop_
 _symmetry_equiv_pos_site_id
 _symmetry_equiv_pos_as_xyz
  1  'x, y, z'
loop_
 _atom_site_label
 _atom_site_fract_x
 _atom_site_fract_y
 _atom_site_fract_z
 _atom_site_charge
 Cu 0.9426 0.8899 0.96795   0.821269
 Cu 0.42987 0.52307 0.45445   0.831342
 Cu 0.0574 0.1101 0.03205   0.821264
 Cu 0.57013 0.47693 0.54555   0.831334
 H 0.7649 0.6888 0.0052   0.295587
 H 0.7646 0.3894 0.5729   0.297028
 H 0.7088 0.3635 0.8257   0.07715
 H 0.8454 0.4159 0.8294   0.077354
 H 0.971 0.7502 0.8336   0.143597
 H 0.9832 0.6389 0.8143   0.121215
 H 0.8741 0.6429 0.7642   0.13656
 H 0.5982 0.4846 0.9713   0.115953
 H 0.6382 0.395 0.9323   0.133301
 H 0.7106 0.4809 0.0175   0.126865
 H 0.5039 0.4529 0.6911   0.142686
 H 0.5446 0.4283 0.7665   0.118324
 H 0.6106 0.5484 0.7623   0.132316
 H 0.9376 0.3816 0.6485   0.120824
 H 0.939 0.3809 0.7341   0.131501
 H 0.8533 0.2727 0.6616   0.135845
 H 0.4303 0.7983 0.6229   0.098942
 H 0.6979 0.7661 0.4041   0.107552
 H 0.4496 0.9392 0.7302   0.136801
 H 0.857 0.8976 0.3835   0.139335
 H 0.678 0.8787 0.8626   0.141043
 H 0.0752 0.8079 0.4939   0.134871
 H 0.6602 0.7404 0.7547   0.105666
 H 0.9158 0.6787 0.5175   0.099282
 H 0.2161 0.8357 0.8883   0.097612
 H 0.1455 0.1429 0.2768   0.106773
 H 0.3739 0.8348 0.8429   0.133085
 H 0.1519 0.1202 0.3969   0.132787
 H 0.5619 0.1623 0.9578   0.133533
 H 0.9867 0.7902 0.2907   0.130528
 H 0.4039 0.1628 0.0042   0.094718
 H 0.9789 0.8136 0.1718   0.093514
 H 0.2351 0.3112 0.9948   0.295588
 H 0.2354 0.6106 0.4271   0.297029
 H 0.2912 0.6365 0.1743   0.07715
 H 0.1546 0.5841 0.1706   0.077355
 H 0.029 0.2498 0.1664   0.143596
 H 0.0168 0.3611 0.1857   0.121216
 H 0.1259 0.3571 0.2358   0.136558
 H 0.4018 0.5154 0.0287   0.115958
 H 0.3618 0.605 0.0677   0.133302
 H 0.2894 0.5191 0.9825   0.126874
 H 0.4961 0.5471 0.3089   0.142686
 H 0.4554 0.5717 0.2335   0.118327
 H 0.3894 0.4516 0.2377   0.132316
 H 0.0624 0.6184 0.3515   0.120825
 H 0.061 0.6191 0.2659   0.131505
 H 0.1467 0.7273 0.3384   0.135847
 H 0.5697 0.2017 0.3771   0.098945
 H 0.3021 0.2339 0.5959   0.107555
 H 0.5504 0.0608 0.2698   0.136807
 H 0.143 0.1024 0.6165   0.139342
 H 0.322 0.1213 0.1374   0.141043
 H 0.9248 0.1921 0.5061   0.134873
 H 0.3398 0.2596 0.2453   0.105665
 H 0.0842 0.3213 0.4825   0.099284
 H 0.7839 0.1643 0.1117   0.097614
 H 0.8545 0.8571 0.7232   0.106769
 H 0.6261 0.1652 0.1571   0.133089
 H 0.8481 0.8798 0.6031   0.132787
 H 0.4381 0.8377 0.0422   0.133535
 H 0.0133 0.2098 0.7093   0.13053
 H 0.5961 0.8372 0.9958   0.094718
 H 0.0211 0.1864 0.8282   0.093515
 C 0.8578 0.6368 0.8704   0.26288
 C 0.7915 0.5324 0.8732   -0.24052
 C 0.7438 0.5487 0.9337   0.143231
 C 0.6562 0.4386 0.6985   0.265469
 C 0.7415 0.4144 0.7346   -0.24021
 C 0.795 0.3891 0.6798   0.156195
 C 0.7727 0.4241 0.8176   -0.007424
 C 0.9275 0.6701 0.8159   -0.387703
 C 0.6659 0.4705 0.9666   -0.350836
 C 0.5716 0.4697 0.7325   -0.391946
 C 0.8893 0.353 0.6811   -0.36466
 C 0.5422 0.755 0.679   -0.168874
 C 0.79 0.7075 0.4618   -0.171672
 C 0.4805 0.8147 0.6717   -0.001183
 C 0.7748 0.7743 0.4226   0.011171
 C 0.4917 0.8982 0.7353   -0.247558
 C 0.8686 0.8521 0.4101   -0.245396
 C 0.5644 0.9211 0.8057   0.284567
 C 0.9796 0.8631 0.4365   0.301898
 C 0.6278 0.8624 0.8138   -0.220277
 C 0.998 0.7993 0.4759   -0.251653
 C 0.6166 0.7801 0.7499   0.006523
 C 0.9031 0.7221 0.4893   4e-05
 C 0.2919 0.9994 0.9495   -0.183655
 C 0.0597 0.98 0.212   -0.170798
 C 0.2861 0.9024 0.9021   0.021976
 C 0.1123 0.0713 0.2796   0.006889
 C 0.3794 0.9015 0.875   -0.274172
 C 0.1165 0.058 0.3508   -0.226078
 C 0.4814 0.9985 0.8947   0.309163
 C 0.0684 0.9534 0.3538   0.296396
 C 0.4911 0.0962 0.9435   -0.257779
 C 0.0179 0.8617 0.2877   -0.272019
 C 0.3972 0.0964 0.9707   0.006469
 C 0.0139 0.8761 0.2176   0.014555
 C 0.5248 0.6617 0.6109   0.659391
 C 0.6868 0.6252 0.4771   0.659173
 C 0.0474 0.992 0.1344   0.653888
 C 0.1875 0.000599999999999 0.974   0.658843
 C 0.1422 0.3632 0.1296   0.26288
 C 0.2085 0.4676 0.1268   -0.240521
 C 0.2562 0.4513 0.0663   0.143232
 C 0.3438 0.5614 0.3015   0.26547
 C 0.2585 0.5856 0.2654   -0.24021
 C 0.205 0.6109 0.3202   0.156196
 C 0.2273 0.5759 0.1824   -0.007424
 C 0.0725 0.3299 0.1841   -0.387702
 C 0.3341 0.5295 0.0334   -0.350841
 C 0.4284 0.5303 0.2675   -0.391947
 C 0.1107 0.647 0.3189   -0.364663
 C 0.4578 0.245 0.321   -0.168875
 C 0.21 0.2925 0.5382   -0.171671
 C 0.5195 0.1853 0.3283   -0.001182
 C 0.2252 0.2257 0.5774   0.011171
 C 0.5083 0.1018 0.2647   -0.247561
 C 0.1314 0.1479 0.5899   -0.245398
 C 0.4356 0.0789 0.1943   0.284567
 C 0.0204 0.1369 0.5635   0.301899
 C 0.3722 0.1376 0.1862   -0.220278
 C 0.002 0.2007 0.5241   -0.251653
 C 0.3834 0.2199 0.2501   0.006524
 C 0.0969 0.2779 0.5107   4e-05
 C 0.7081 0.000599999999999 0.0505   -0.183654
 C 0.9403 0.02 0.788   -0.170798
 C 0.7139 0.0976 0.0979   0.021977
 C 0.8877 0.9287 0.7204   0.006893
 C 0.6206 0.0985 0.125   -0.274173
 C 0.8835 0.942 0.6492   -0.22608
 C 0.5186 0.0015 0.1053   0.309165
 C 0.9316 0.0466 0.6462   0.296397
 C 0.5089 0.9038 0.0565   -0.257779
 C 0.9821 0.1383 0.7123   -0.27202
 C 0.6028 0.9036 0.0293   0.006471
 C 0.9861 0.1239 0.7824   0.014557
 C 0.4752 0.3383 0.3891   0.65939
 C 0.3132 0.3748 0.5229   0.659172
 C 0.9526 0.008 0.8656   0.653887
 C 0.8125 0.9994 0.026   0.658841
 N 0.8518 0.7131 0.9267   -0.316775
 N 0.7824 0.6574 0.9648   -0.120793
 N 0.6584 0.4308 0.6263   -0.313377
 N 0.7443 0.4005 0.6161   -0.135484
 N 0.1482 0.2869 0.0733   -0.316774
 N 0.2176 0.3426 0.0352   -0.120793
 N 0.3416 0.5692 0.3737   -0.313378
 N 0.2557 0.5995 0.3839   -0.135484
 O 0.4571 0.6422 0.54755   -0.559492
 O 0.5871 0.6146 0.44596   -0.562559
 O 0.7064 0.5751 0.52013   -0.554025
 O 0.5804 0.6076 0.62217   -0.55599
 O 0.0984 0.9095 0.95596   -0.546742
 O 0.9927 0.9036 0.07659   -0.570681
 O 0.1956 0.0933 0.01066   -0.569996
 O 0.0896 0.0879 0.13162   -0.535735
 O 0.5792 0.0051 0.87077   -0.261155
 O 0.0783 0.9429 0.42677   -0.286275
 O 0.5429 0.3578 0.45245   -0.559491
 O 0.4129 0.3854 0.55404   -0.562559
 O 0.2936 0.4249 0.47987   -0.554027
 O 0.4196 0.3924 0.37783   -0.55599
 O 0.9016 0.0905 0.04404   -0.546741
 O 0.0073 0.0964 0.92341   -0.570681
 O 0.8044 0.9067 0.98934   -0.569997
 O 0.9104 0.9121 0.86838   -0.535735
 O 0.4208 0.9949 0.12923   -0.261155
 O 0.9217 0.0571 0.57323   -0.286275
