{'_ref': 'TBD', '_srcid': 'CAKYAQ_clean', 'submitters': [{'name': 'Dalar Nazarian Jeff Camp and David Sholl', 'email': 'dalar@gatech.edu jcamp6@gatech.edu'}], '_method': 'VASP DFT with PBE;DDEC'}
data_CoH24C25N4O5
_symmetry_space_group_name_H-M   'P 1'
_cell_length_a   9.62210000
_cell_length_b   9.62209997
_cell_length_c   48.44140000
_cell_angle_alpha   90.00000000
_cell_angle_beta   90.00000000
_cell_angle_gamma   120.00000011
_symmetry_Int_Tables_number   1
_chemical_formula_structural   CoH24C25N4O5
_chemical_formula_sum   'Co6 H144 C150 N24 O30'
_cell_volume   3884.069998
_cell_formula_units_Z   6
loop_
 _symmetry_equiv_pos_site_id
 _symmetry_equiv_pos_as_xyz
  1  'x, y, z'
loop_
 _atom_site_label
 _atom_site_fract_x
 _atom_site_fract_y
 _atom_site_fract_z
 _atom_site_charge
 Co 0.29762 0.59524 0.08333   0.940453
 Co 0.29762 0.70238 0.75   0.940497
 Co 0.40476 0.70238 0.41667   0.940453
 Co 0.70238 0.40476 0.58333   0.940453
 Co 0.70238 0.29762 0.25   0.940497
 Co 0.59524 0.29762 0.91667   0.940453
 H 0.544 0.641 0.0462   0.257711
 H 0.6263 0.1917 0.0683   0.086435
 H 0.2273 0.2804 0.1082   0.118725
 H 0.3573 0.2453 0.1205   0.135694
 H 0.246 0.1388 0.0964   0.135376
 H 0.7805 0.6317 0.0253   0.140617
 H 0.7852 0.4723 0.0291   0.138783
 H 0.8713 0.6117 0.0505   0.135754
 H 0.1652 0.8948 0.0448   0.094342
 H 0.1402 0.1078 0.0284   0.133172
 H 0.5659 0.2821 0.9903   0.121828
 H 0.5892 0.0689 0.0064   0.094328
 H 0.097 0.456 0.71287   0.257728
 H 0.5654 0.3737 0.73497   0.086335
 H 0.0531 0.7727 0.77487   0.118608
 H 0.888 0.6427 0.78717   0.135719
 H 0.8928 0.754 0.76307   0.135301
 H 0.8512 0.2195 0.69197   0.140575
 H 0.6871 0.2148 0.69577   0.13881
 H 0.7404 0.1287 0.71717   0.13574
 H 0.7296 0.8348 0.71147   0.094411
 H 0.9676 0.8598 0.69507   0.133126
 H 0.7162 0.4341 0.65697   0.121966
 H 0.4797 0.4108 0.67307   0.094277
 H 0.359 0.903 0.37953   0.257681
 H 0.8083 0.4346 0.40163   0.08651
 H 0.7196 0.9469 0.44153   0.118816
 H 0.7547 0.112 0.45383   0.135764
 H 0.8612 0.1072 0.42973   0.135377
 H 0.3683 0.1488 0.35863   0.140641
 H 0.5277 0.3129 0.36243   0.138909
 H 0.3883 0.2596 0.38383   0.135711
 H 0.1052 0.2704 0.37813   0.094225
 H 0.8922 0.0324 0.36173   0.133183
 H 0.7179 0.2838 0.32363   0.121733
 H 0.9311 0.5203 0.33973   0.094299
 H 0.456 0.359 0.5462   0.257711
 H 0.3737 0.8083 0.5683   0.086435
 H 0.7727 0.7196 0.6082   0.118725
 H 0.6427 0.7547 0.6205   0.135694
 H 0.754 0.8612 0.5964   0.135376
 H 0.2195 0.3683 0.5253   0.140617
 H 0.2148 0.5277 0.5291   0.138783
 H 0.1287 0.3883 0.5505   0.135754
 H 0.8348 0.1052 0.5448   0.094342
 H 0.8598 0.8922 0.5284   0.133172
 H 0.4341 0.7179 0.4903   0.121828
 H 0.4108 0.9311 0.5064   0.094328
 H 0.903 0.544 0.21287   0.257728
 H 0.4346 0.6263 0.23497   0.086335
 H 0.9469 0.2273 0.27487   0.118608
 H 0.112 0.3573 0.28717   0.135719
 H 0.1072 0.246 0.26307   0.135301
 H 0.1488 0.7805 0.19197   0.140575
 H 0.3129 0.7852 0.19577   0.13881
 H 0.2596 0.8713 0.21717   0.13574
 H 0.2704 0.1652 0.21147   0.094411
 H 0.0324 0.1402 0.19507   0.133126
 H 0.2838 0.5659 0.15697   0.121966
 H 0.5203 0.5892 0.17307   0.094277
 H 0.641 0.097 0.87953   0.257681
 H 0.1917 0.5654 0.90163   0.08651
 H 0.2804 0.0531 0.94153   0.118816
 H 0.2453 0.888 0.95383   0.135764
 H 0.1388 0.8928 0.92973   0.135377
 H 0.6317 0.8512 0.85863   0.140641
 H 0.4723 0.6871 0.86243   0.138909
 H 0.6117 0.7404 0.88383   0.135711
 H 0.8948 0.7296 0.87813   0.094225
 H 0.1078 0.9676 0.86173   0.133183
 H 0.2821 0.7162 0.82363   0.121733
 H 0.0689 0.4797 0.83973   0.094299
 H 0.903 0.359 0.62047   0.257681
 H 0.4346 0.8083 0.59837   0.08651
 H 0.9469 0.7196 0.55847   0.118816
 H 0.112 0.7547 0.54617   0.135764
 H 0.1072 0.8612 0.57027   0.13538
 H 0.1488 0.3683 0.64137   0.140642
 H 0.3129 0.5277 0.63757   0.13891
 H 0.2596 0.3883 0.61617   0.135712
 H 0.2704 0.1052 0.62187   0.094225
 H 0.0324 0.8922 0.63827   0.133183
 H 0.2838 0.7179 0.67637   0.121733
 H 0.5203 0.9311 0.66027   0.094299
 H 0.641 0.544 0.9538   0.257712
 H 0.1917 0.6263 0.9317   0.086435
 H 0.2804 0.2273 0.8918   0.118724
 H 0.2453 0.3573 0.8795   0.135694
 H 0.1388 0.246 0.9036   0.135378
 H 0.6317 0.7805 0.9747   0.140619
 H 0.4723 0.7852 0.9709   0.138783
 H 0.6117 0.8713 0.9495   0.135755
 H 0.8948 0.1652 0.9552   0.094342
 H 0.1078 0.1402 0.9716   0.133173
 H 0.2821 0.5659 0.0097   0.121827
 H 0.0689 0.5892 0.9936   0.094328
 H 0.456 0.097 0.28713   0.257729
 H 0.3737 0.5654 0.26503   0.086336
 H 0.7727 0.0531 0.22513   0.118608
 H 0.6427 0.888 0.21283   0.135719
 H 0.754 0.8928 0.23693   0.135304
 H 0.2195 0.8512 0.30803   0.140576
 H 0.2148 0.6871 0.30423   0.13881
 H 0.1287 0.7404 0.28283   0.135741
 H 0.8348 0.7296 0.28853   0.094411
 H 0.8598 0.9676 0.30493   0.133126
 H 0.4341 0.7162 0.34303   0.121965
 H 0.4108 0.4797 0.32693   0.094277
 H 0.097 0.641 0.12047   0.257681
 H 0.5654 0.1917 0.09837   0.08651
 H 0.0531 0.2804 0.05847   0.118816
 H 0.888 0.2453 0.04617   0.135764
 H 0.8928 0.1388 0.07027   0.13538
 H 0.8512 0.6317 0.14137   0.140642
 H 0.6871 0.4723 0.13757   0.13891
 H 0.7404 0.6117 0.11617   0.135712
 H 0.7296 0.8948 0.12187   0.094225
 H 0.9676 0.1078 0.13827   0.133183
 H 0.7162 0.2821 0.17637   0.121733
 H 0.4797 0.0689 0.16027   0.094299
 H 0.359 0.456 0.4538   0.257712
 H 0.8083 0.3737 0.4317   0.086435
 H 0.7196 0.7727 0.3918   0.118724
 H 0.7547 0.6427 0.3795   0.135694
 H 0.8612 0.754 0.4036   0.135378
 H 0.3683 0.2195 0.4747   0.140619
 H 0.5277 0.2148 0.4709   0.138783
 H 0.3883 0.1287 0.4495   0.135755
 H 0.1052 0.8348 0.4552   0.094342
 H 0.8922 0.8598 0.4716   0.133173
 H 0.7179 0.4341 0.5097   0.121827
 H 0.9311 0.4108 0.4936   0.094328
 H 0.544 0.903 0.78713   0.257729
 H 0.6263 0.4346 0.76503   0.086336
 H 0.2273 0.9469 0.72513   0.118608
 H 0.3573 0.112 0.71283   0.135719
 H 0.246 0.1072 0.73693   0.135304
 H 0.7805 0.1488 0.80803   0.140576
 H 0.7852 0.3129 0.80423   0.13881
 H 0.8713 0.2596 0.78283   0.135741
 H 0.1652 0.2704 0.78853   0.094411
 H 0.1402 0.0324 0.80493   0.133126
 H 0.5659 0.2838 0.84303   0.121965
 H 0.5892 0.5203 0.82693   0.094277
 C 0.4212 0.3563 0.08336   0.262306
 C 0.5615 0.3624 0.07377   -0.22337
 C 0.6287 0.488 0.05536   0.184253
 C 0.3024 0.2453 0.10394   -0.380236
 C 0.7801 0.5572 0.03856   -0.373864
 C 0.3807 0.9613 0.02778   -0.20084
 C 0.2461 0.9732 0.03397   0.018854
 C 0.2306 0.1003 0.0242   -0.253515
 C 0.3525 0.2159 0.00809   0.283635
 C 0.4859 0.2044 0.00132   -0.222112
 C 0.4999 0.0772 0.01103   0.007599
 C 0.4008 0.8292 0.03988   0.671939
 C 0.9351 0.5788 0.75003   0.262199
 C 0.8009 0.4385 0.74044   -0.223522
 C 0.8593 0.3713 0.72203   0.184421
 C 0.9429 0.6976 0.77061   -0.379975
 C 0.7771 0.2199 0.70523   -0.373861
 C 0.5806 0.6193 0.69445   -0.200866
 C 0.7271 0.7539 0.70064   0.018746
 C 0.8697 0.7694 0.69087   -0.253584
 C 0.8634 0.6475 0.67476   0.283989
 C 0.7185 0.5141 0.66799   -0.222422
 C 0.5773 0.5001 0.6777   0.007701
 C 0.4284 0.5992 0.70655   0.672009
 C 0.6437 0.0649 0.41669   0.262349
 C 0.6376 0.1991 0.4071   -0.223443
 C 0.512 0.1407 0.38869   0.184422
 C 0.7547 0.0571 0.43727   -0.380494
 C 0.4428 0.2229 0.37189   -0.37404
 C 0.0387 0.4194 0.36111   -0.201189
 C 0.0268 0.2729 0.3673   0.019113
 C 0.8997 0.1303 0.35753   -0.253689
 C 0.7841 0.1366 0.34142   0.283996
 C 0.7956 0.2815 0.33465   -0.222193
 C 0.9228 0.4227 0.34436   0.00783
 C 0.1708 0.5716 0.37321   0.672092
 C 0.5788 0.6437 0.58336   0.262306
 C 0.4385 0.6376 0.57377   -0.22337
 C 0.3713 0.512 0.55536   0.184253
 C 0.6976 0.7547 0.60394   -0.380237
 C 0.2199 0.4428 0.53856   -0.373864
 C 0.6193 0.0387 0.52778   -0.20084
 C 0.7539 0.0268 0.53397   0.018854
 C 0.7694 0.8997 0.5242   -0.253515
 C 0.6475 0.7841 0.50809   0.283635
 C 0.5141 0.7956 0.50132   -0.222112
 C 0.5001 0.9228 0.51103   0.007599
 C 0.5992 0.1708 0.53988   0.671939
 C 0.0649 0.4212 0.25003   0.262199
 C 0.1991 0.5615 0.24044   -0.223522
 C 0.1407 0.6287 0.22203   0.184421
 C 0.0571 0.3024 0.27061   -0.379975
 C 0.2229 0.7801 0.20523   -0.373861
 C 0.4194 0.3807 0.19445   -0.200866
 C 0.2729 0.2461 0.20064   0.018746
 C 0.1303 0.2306 0.19087   -0.253584
 C 0.1366 0.3525 0.17476   0.283989
 C 0.2815 0.4859 0.16799   -0.222422
 C 0.4227 0.4999 0.1777   0.007701
 C 0.5716 0.4008 0.20655   0.672009
 C 0.3563 0.9351 0.91669   0.262349
 C 0.3624 0.8009 0.9071   -0.223443
 C 0.488 0.8593 0.88869   0.184422
 C 0.2453 0.9429 0.93727   -0.380494
 C 0.5572 0.7771 0.87189   -0.37404
 C 0.9613 0.5806 0.86111   -0.201189
 C 0.9732 0.7271 0.8673   0.019113
 C 0.1003 0.8697 0.85753   -0.253689
 C 0.2159 0.8634 0.84142   0.283996
 C 0.2044 0.7185 0.83465   -0.222193
 C 0.0772 0.5773 0.84436   0.00783
 C 0.8292 0.4284 0.87321   0.672092
 C 0.0649 0.6437 0.58331   0.262349
 C 0.1991 0.6376 0.5929   -0.223443
 C 0.1407 0.512 0.61131   0.184422
 C 0.0571 0.7547 0.56273   -0.380495
 C 0.2229 0.4428 0.62811   -0.374041
 C 0.4194 0.0387 0.63889   -0.201189
 C 0.2729 0.0268 0.6327   0.019113
 C 0.1303 0.8997 0.64247   -0.253689
 C 0.1366 0.7841 0.65858   0.283996
 C 0.2815 0.7956 0.66535   -0.222193
 C 0.4227 0.9228 0.65564   0.00783
 C 0.5716 0.1708 0.62679   0.672092
 C 0.3563 0.4212 0.91664   0.262306
 C 0.3624 0.5615 0.92623   -0.22337
 C 0.488 0.6287 0.94464   0.184253
 C 0.2453 0.3024 0.89606   -0.380237
 C 0.5572 0.7801 0.96144   -0.373865
 C 0.9613 0.3807 0.97222   -0.20084
 C 0.9732 0.2461 0.96603   0.018854
 C 0.1003 0.2306 0.9758   -0.253515
 C 0.2159 0.3525 0.99191   0.283634
 C 0.2044 0.4859 0.99868   -0.222112
 C 0.0772 0.4999 0.98897   0.007599
 C 0.8292 0.4008 0.96012   0.671939
 C 0.5788 0.9351 0.24997   0.262199
 C 0.4385 0.8009 0.25956   -0.223522
 C 0.3713 0.8593 0.27797   0.184421
 C 0.6976 0.9429 0.22939   -0.379976
 C 0.2199 0.7771 0.29477   -0.373862
 C 0.6193 0.5806 0.30555   -0.200866
 C 0.7539 0.7271 0.29936   0.018746
 C 0.7694 0.8697 0.30913   -0.253584
 C 0.6475 0.8634 0.32524   0.283989
 C 0.5141 0.7185 0.33201   -0.222421
 C 0.5001 0.5773 0.3223   0.007701
 C 0.5992 0.4284 0.29345   0.672009
 C 0.9351 0.3563 0.08331   0.262349
 C 0.8009 0.3624 0.0929   -0.223443
 C 0.8593 0.488 0.11131   0.184422
 C 0.9429 0.2453 0.06273   -0.380495
 C 0.7771 0.5572 0.12811   -0.374041
 C 0.5806 0.9613 0.13889   -0.201189
 C 0.7271 0.9732 0.1327   0.019113
 C 0.8697 0.1003 0.14247   -0.253689
 C 0.8634 0.2159 0.15858   0.283996
 C 0.7185 0.2044 0.16535   -0.222193
 C 0.5773 0.0772 0.15564   0.00783
 C 0.4284 0.8292 0.12679   0.672092
 C 0.6437 0.5788 0.41664   0.262306
 C 0.6376 0.4385 0.42623   -0.22337
 C 0.512 0.3713 0.44464   0.184253
 C 0.7547 0.6976 0.39606   -0.380238
 C 0.4428 0.2199 0.46144   -0.373865
 C 0.0387 0.6193 0.47222   -0.20084
 C 0.0268 0.7539 0.46603   0.018854
 C 0.8997 0.7694 0.4758   -0.253515
 C 0.7841 0.6475 0.49191   0.283634
 C 0.7956 0.5141 0.49868   -0.222112
 C 0.9228 0.5001 0.48897   0.007599
 C 0.1708 0.5992 0.46012   0.671939
 C 0.4212 0.0649 0.74997   0.2622
 C 0.5615 0.1991 0.75956   -0.223522
 C 0.6287 0.1407 0.77797   0.184421
 C 0.3024 0.0571 0.72939   -0.379976
 C 0.7801 0.2229 0.79477   -0.373862
 C 0.3807 0.4194 0.80555   -0.200866
 C 0.2461 0.2729 0.79936   0.018746
 C 0.2306 0.1303 0.80913   -0.253584
 C 0.3525 0.1366 0.82524   0.283989
 C 0.4859 0.2815 0.83201   -0.222421
 C 0.4999 0.4227 0.8223   0.007701
 C 0.4008 0.5716 0.79345   0.672009
 C 0.63 0.26 0.08333   -0.018248
 C 0.63 0.37 0.75   -0.017925
 C 0.74 0.37 0.41667   -0.018248
 C 0.37 0.74 0.58333   -0.018248
 C 0.37 0.63 0.25   -0.017925
 C 0.26 0.63 0.91667   -0.018248
 N 0.4034 0.4723 0.07131   -0.423418
 N 0.533 0.5523 0.0543   -0.057213
 N 0.0689 0.5966 0.73798   -0.423344
 N 0.0193 0.467 0.72097   -0.057345
 N 0.5277 0.9311 0.40464   -0.423209
 N 0.4477 0.9807 0.38763   -0.057332
 N 0.5966 0.5277 0.57131   -0.423418
 N 0.467 0.4477 0.5543   -0.057213
 N 0.9311 0.4034 0.23798   -0.423344
 N 0.9807 0.533 0.22097   -0.057345
 N 0.4723 0.0689 0.90464   -0.423209
 N 0.5523 0.0193 0.88763   -0.057332
 N 0.9311 0.5277 0.59536   -0.423209
 N 0.9807 0.4477 0.61237   -0.057333
 N 0.4723 0.4034 0.92869   -0.423418
 N 0.5523 0.533 0.9457   -0.057214
 N 0.5966 0.0689 0.26202   -0.423344
 N 0.467 0.0193 0.27903   -0.057345
 N 0.0689 0.4723 0.09536   -0.423209
 N 0.0193 0.5523 0.11237   -0.057333
 N 0.5277 0.5966 0.42869   -0.423418
 N 0.4477 0.467 0.4457   -0.057214
 N 0.4034 0.9311 0.76202   -0.423344
 N 0.533 0.9807 0.77903   -0.057345
 O 0.2837 0.72989 0.05525   -0.626182
 O 0.522 0.8198 0.03492   -0.59469
 O 0.44619 0.7163 0.72192   -0.626177
 O 0.2978 0.478 0.70159   -0.594715
 O 0.27011 0.55381 0.38858   -0.626198
 O 0.1802 0.7022 0.36825   -0.594749
 O 0.7163 0.27011 0.55525   -0.626182
 O 0.478 0.1802 0.53492   -0.59469
 O 0.55381 0.2837 0.22192   -0.626177
 O 0.7022 0.522 0.20159   -0.594715
 O 0.72989 0.44619 0.88858   -0.626198
 O 0.8198 0.2978 0.86825   -0.594749
 O 0.55381 0.27011 0.61142   -0.626198
 O 0.7022 0.1802 0.63175   -0.594749
 O 0.72989 0.2837 0.94475   -0.626182
 O 0.8198 0.522 0.96508   -0.59469
 O 0.7163 0.44619 0.27808   -0.626177
 O 0.478 0.2978 0.29841   -0.594715
 O 0.44619 0.72989 0.11142   -0.626198
 O 0.2978 0.8198 0.13175   -0.594749
 O 0.27011 0.7163 0.44475   -0.626182
 O 0.1802 0.478 0.46508   -0.59469
 O 0.2837 0.55381 0.77808   -0.626177
 O 0.522 0.7022 0.79841   -0.594715
 O 0.3554 0.3554 0.0   -0.254089
 O 0.0 0.6446 0.66667   -0.254325
 O 0.6446 0.0 0.33333   -0.254325
 O 0.6446 0.6446 0.5   -0.254089
 O 0.0 0.3554 0.16667   -0.254325
 O 0.3554 0.0 0.83333   -0.254325
