{'_ref': 'TBD', '_srcid': 'CAKYAQ_clean', 'submitters': [{'name': 'Dalar Nazarian Jeff Camp and David Sholl', 'email': 'dalar@gatech.edu jcamp6@gatech.edu'}], '_method': 'VASP DFT with PBE;DDEC'}
data_Co2H3C9N9Cl2
_symmetry_space_group_name_H-M   'P 1'
_cell_length_a   15.36610004
_cell_length_b   15.36609991
_cell_length_c   15.36610000
_cell_angle_alpha   59.99999981
_cell_angle_beta   60.00000008
_cell_angle_gamma   59.99999979
_symmetry_Int_Tables_number   1
_chemical_formula_structural   Co2H3C9N9Cl2
_chemical_formula_sum   'Co8 H12 C36 N36 Cl8'
_cell_volume   2565.52331156
_cell_formula_units_Z   4
loop_
 _symmetry_equiv_pos_site_id
 _symmetry_equiv_pos_as_xyz
  1  'x, y, z'
loop_
 _atom_site_label
 _atom_site_fract_x
 _atom_site_fract_y
 _atom_site_fract_z
 _atom_site_charge
 Co 0.0233 0.6589 0.6589   0.731276
 Co 0.6589 0.0233 0.6589   0.731276
 Co 0.6589 0.6589 0.0233   0.731276
 Co 0.6589 0.6589 0.6589   0.731276
 Co 0.3411 0.9767 0.3411   0.731276
 Co 0.9767 0.3411 0.3411   0.731277
 Co 0.3411 0.3411 0.9767   0.731277
 Co 0.3411 0.3411 0.3411   0.731276
 H 0.1604 0.8396 0.5   0.140508
 H 0.8396 0.1604 0.5   0.140508
 H 0.5 0.5 0.1604   0.140508
 H 0.5 0.5 0.8396   0.140508
 H 0.1604 0.5 0.5   0.140508
 H 0.8396 0.5 0.5   0.140508
 H 0.5 0.1604 0.8396   0.140508
 H 0.5 0.8396 0.1604   0.140508
 H 0.1604 0.5 0.8396   0.140508
 H 0.8396 0.5 0.1604   0.140508
 H 0.5 0.8396 0.5   0.140508
 H 0.5 0.1604 0.5   0.140508
 C 0.9956 0.8992 0.5526   0.11844
 C 0.8992 0.9956 0.5526   0.118441
 C 0.5526 0.5526 0.9956   0.11844
 C 0.5526 0.5526 0.8992   0.118442
 C 0.9956 0.5526 0.5526   0.11844
 C 0.8992 0.5526 0.5526   0.118442
 C 0.5526 0.9956 0.8992   0.11844
 C 0.5526 0.8992 0.9956   0.118441
 C 0.9956 0.5526 0.8992   0.11844
 C 0.8992 0.5526 0.9956   0.118441
 C 0.5526 0.8992 0.5526   0.118441
 C 0.5526 0.9956 0.5526   0.118441
 C 0.1008 0.0044 0.4474   0.11844
 C 0.0044 0.1008 0.4474   0.118441
 C 0.4474 0.4474 0.0044   0.11844
 C 0.4474 0.4474 0.1008   0.118442
 C 0.4474 0.0044 0.4474   0.11844
 C 0.4474 0.1008 0.4474   0.118442
 C 0.0044 0.4474 0.1008   0.11844
 C 0.1008 0.4474 0.0044   0.118441
 C 0.4474 0.0044 0.1008   0.11844
 C 0.4474 0.1008 0.0044   0.118441
 C 0.1008 0.4474 0.4474   0.118441
 C 0.0044 0.4474 0.4474   0.118441
 C 0.0998 0.9002 0.5   -0.194115
 C 0.9002 0.0998 0.5   -0.194115
 C 0.5 0.5 0.0998   -0.194115
 C 0.5 0.5 0.9002   -0.194115
 C 0.0998 0.5 0.5   -0.194115
 C 0.9002 0.5 0.5   -0.194115
 C 0.5 0.0998 0.9002   -0.194115
 C 0.5 0.9002 0.0998   -0.194115
 C 0.0998 0.5 0.9002   -0.194115
 C 0.9002 0.5 0.0998   -0.194115
 C 0.5 0.9002 0.5   -0.194115
 C 0.5 0.0998 0.5   -0.194115
 N 0.9603 0.8151 0.6123   -0.191148
 N 0.8151 0.9603 0.6123   -0.191148
 N 0.6123 0.6123 0.9603   -0.191148
 N 0.6123 0.6123 0.8151   -0.191148
 N 0.9603 0.6123 0.6123   -0.191148
 N 0.8151 0.6123 0.6123   -0.191148
 N 0.6123 0.9603 0.8151   -0.191148
 N 0.6123 0.8151 0.9603   -0.191148
 N 0.9603 0.6123 0.8151   -0.191148
 N 0.8151 0.6123 0.9603   -0.191148
 N 0.6123 0.8151 0.6123   -0.191148
 N 0.6123 0.9603 0.6123   -0.191148
 N 0.1849 0.0397 0.3877   -0.191148
 N 0.0397 0.1849 0.3877   -0.191148
 N 0.3877 0.3877 0.0397   -0.191148
 N 0.3877 0.3877 0.1849   -0.191148
 N 0.3877 0.0397 0.3877   -0.191148
 N 0.3877 0.1849 0.3877   -0.191148
 N 0.0397 0.3877 0.1849   -0.191148
 N 0.1849 0.3877 0.0397   -0.191148
 N 0.3877 0.0397 0.1849   -0.191148
 N 0.3877 0.1849 0.0397   -0.191148
 N 0.1849 0.3877 0.3877   -0.191148
 N 0.0397 0.3877 0.3877   -0.191148
 N 0.85536 0.85536 0.64464   -0.059528
 N 0.64464 0.64464 0.85536   -0.059529
 N 0.85536 0.64464 0.64464   -0.059529
 N 0.64464 0.85536 0.85536   -0.059528
 N 0.85536 0.64464 0.85536   -0.059529
 N 0.64464 0.85536 0.64464   -0.059529
 N 0.14464 0.14464 0.35536   -0.059528
 N 0.35536 0.35536 0.14464   -0.059529
 N 0.35536 0.14464 0.35536   -0.059529
 N 0.14464 0.35536 0.14464   -0.059528
 N 0.35536 0.14464 0.14464   -0.059529
 N 0.14464 0.35536 0.35536   -0.059529
 Cl 0.1838 0.6054 0.6054   -0.34345
 Cl 0.6054 0.1838 0.6054   -0.34345
 Cl 0.6054 0.6054 0.1838   -0.34345
 Cl 0.6054 0.6054 0.6054   -0.343449
 Cl 0.3946 0.8162 0.3946   -0.343452
 Cl 0.8162 0.3946 0.3946   -0.343452
 Cl 0.3946 0.3946 0.8162   -0.343452
 Cl 0.3946 0.3946 0.3946   -0.343452
