{'_ref': 'TBD', '_srcid': 'CAKYAQ_clean', 'submitters': [{'name': 'Dalar Nazarian Jeff Camp and David Sholl', 'email': 'dalar@gatech.edu jcamp6@gatech.edu'}], '_method': 'VASP DFT with PBE;DDEC'}
data_CuH2(C3O2)2
_symmetry_space_group_name_H-M   'P 1'
_cell_length_a   18.59799960
_cell_length_b   18.59799962
_cell_length_c   18.59800000
_cell_angle_alpha   59.99999932
_cell_angle_beta   59.99999929
_cell_angle_gamma   59.99999956
_symmetry_Int_Tables_number   1
_chemical_formula_structural   CuH2(C3O2)2
_chemical_formula_sum   'Cu12 H24 C72 O48'
_cell_volume   4548.66243417
_cell_formula_units_Z   12
loop_
 _symmetry_equiv_pos_site_id
 _symmetry_equiv_pos_as_xyz
  1  'x, y, z'
loop_
 _atom_site_label
 _atom_site_fract_x
 _atom_site_fract_y
 _atom_site_fract_z
 _atom_site_charge
 Cu 0.57052 0.42948 0.0   0.897407
 Cu 0.42948 0.57052 0.0   0.897405
 Cu 0.0 0.0 0.57052   0.897406
 Cu 0.0 0.0 0.42948   0.897404
 Cu 0.57052 0.0 0.0   0.897406
 Cu 0.42948 0.0 0.0   0.897404
 Cu 0.0 0.57052 0.42948   0.897407
 Cu 0.0 0.42948 0.57052   0.897405
 Cu 0.57052 0.0 0.42948   0.897408
 Cu 0.42948 0.0 0.57052   0.897406
 Cu 0.0 0.42948 0.0   0.897407
 Cu 0.0 0.57052 0.0   0.897405
 H 0.2712 0.4894 0.9682   0.118638
 H 0.4894 0.2712 0.2712   0.118638
 H 0.9682 0.2712 0.2712   0.118638
 H 0.2712 0.9682 0.4894   0.118638
 H 0.2712 0.9682 0.2712   0.118638
 H 0.4894 0.2712 0.9682   0.118638
 H 0.9682 0.2712 0.4894   0.118638
 H 0.2712 0.4894 0.2712   0.118638
 H 0.2712 0.2712 0.4894   0.118638
 H 0.4894 0.9682 0.2712   0.118638
 H 0.9682 0.4894 0.2712   0.118638
 H 0.2712 0.2712 0.9682   0.118638
 H 0.5106 0.7288 0.0318   0.118639
 H 0.7288 0.5106 0.7288   0.118639
 H 0.7288 0.0318 0.7288   0.118638
 H 0.0318 0.7288 0.5106   0.118639
 H 0.0318 0.7288 0.7288   0.118638
 H 0.7288 0.5106 0.0318   0.118639
 H 0.7288 0.0318 0.5106   0.118639
 H 0.5106 0.7288 0.7288   0.118639
 H 0.7288 0.7288 0.5106   0.118639
 H 0.0318 0.5106 0.7288   0.118639
 H 0.5106 0.0318 0.7288   0.118639
 H 0.7288 0.7288 0.0318   0.118638
 C 0.30058 0.43028 0.96856   0.024054
 C 0.43028 0.30058 0.30058   0.024053
 C 0.96856 0.30058 0.30058   0.024054
 C 0.30058 0.96856 0.43028   0.024054
 C 0.30058 0.96856 0.30058   0.024055
 C 0.43028 0.30058 0.96856   0.024054
 C 0.96856 0.30058 0.43028   0.024054
 C 0.30058 0.43028 0.30058   0.024054
 C 0.30058 0.30058 0.43028   0.024054
 C 0.43028 0.96856 0.30058   0.024055
 C 0.96856 0.43028 0.30058   0.024055
 C 0.30058 0.30058 0.96856   0.024055
 C 0.56972 0.69942 0.03144   0.024054
 C 0.69942 0.56972 0.69942   0.024053
 C 0.69942 0.03144 0.69942   0.024055
 C 0.03144 0.69942 0.56972   0.024054
 C 0.03144 0.69942 0.69942   0.024055
 C 0.69942 0.56972 0.03144   0.024055
 C 0.69942 0.03144 0.56972   0.024055
 C 0.56972 0.69942 0.69942   0.024054
 C 0.69942 0.69942 0.56972   0.024054
 C 0.03144 0.56972 0.69942   0.024055
 C 0.56972 0.03144 0.69942   0.024055
 C 0.69942 0.69942 0.03144   0.024055
 C 0.38687 0.38687 0.96887   -0.156361
 C 0.43099 0.43099 0.97599   0.681489
 C 0.38687 0.38687 0.25739   -0.156361
 C 0.43099 0.43099 0.16203   0.681488
 C 0.96887 0.25739 0.38687   -0.156362
 C 0.97599 0.16203 0.43099   0.681489
 C 0.25739 0.96887 0.38687   -0.156361
 C 0.16203 0.97599 0.43099   0.681488
 C 0.38687 0.96887 0.25739   -0.156362
 C 0.43099 0.97599 0.16203   0.681489
 C 0.38687 0.25739 0.96887   -0.156362
 C 0.43099 0.16203 0.97599   0.681488
 C 0.96887 0.38687 0.38687   -0.156362
 C 0.97599 0.43099 0.43099   0.681489
 C 0.25739 0.38687 0.38687   -0.156361
 C 0.16203 0.43099 0.43099   0.681488
 C 0.38687 0.25739 0.38687   -0.156361
 C 0.43099 0.16203 0.43099   0.681488
 C 0.38687 0.96887 0.38687   -0.156361
 C 0.43099 0.97599 0.43099   0.681489
 C 0.96887 0.38687 0.25739   -0.156362
 C 0.97599 0.43099 0.16203   0.681489
 C 0.25739 0.38687 0.96887   -0.156361
 C 0.16203 0.43099 0.97599   0.681488
 C 0.61313 0.61313 0.03113   -0.156361
 C 0.56901 0.56901 0.02401   0.681488
 C 0.61313 0.61313 0.74261   -0.156361
 C 0.56901 0.56901 0.83797   0.681488
 C 0.74261 0.03113 0.61313   -0.156362
 C 0.83797 0.02401 0.56901   0.681488
 C 0.03113 0.74261 0.61313   -0.156361
 C 0.02401 0.83797 0.56901   0.681488
 C 0.03113 0.61313 0.74261   -0.156362
 C 0.02401 0.56901 0.83797   0.681488
 C 0.74261 0.61313 0.03113   -0.156361
 C 0.83797 0.56901 0.02401   0.681488
 C 0.61313 0.03113 0.61313   -0.156361
 C 0.56901 0.02401 0.56901   0.681488
 C 0.61313 0.74261 0.61313   -0.156361
 C 0.56901 0.83797 0.56901   0.681488
 C 0.74261 0.61313 0.61313   -0.156361
 C 0.83797 0.56901 0.56901   0.681488
 C 0.03113 0.61313 0.61313   -0.156361
 C 0.02401 0.56901 0.56901   0.681488
 C 0.61313 0.03113 0.74261   -0.156362
 C 0.56901 0.02401 0.83797   0.681488
 C 0.61313 0.74261 0.03113   -0.156361
 C 0.56901 0.83797 0.02401   0.681488
 O 0.50759 0.38759 0.97867   -0.558262
 O 0.38759 0.50759 0.12615   -0.558261
 O 0.97867 0.12615 0.50759   -0.558261
 O 0.12615 0.97867 0.38759   -0.558261
 O 0.50759 0.97867 0.12615   -0.558261
 O 0.38759 0.12615 0.97867   -0.558261
 O 0.97867 0.50759 0.38759   -0.558262
 O 0.12615 0.38759 0.50759   -0.558261
 O 0.50759 0.12615 0.38759   -0.558261
 O 0.38759 0.97867 0.50759   -0.558261
 O 0.97867 0.38759 0.12615   -0.558262
 O 0.12615 0.50759 0.97867   -0.558261
 O 0.61241 0.49241 0.02133   -0.558262
 O 0.49241 0.61241 0.87385   -0.558261
 O 0.87385 0.02133 0.49241   -0.558261
 O 0.02133 0.87385 0.61241   -0.558261
 O 0.02133 0.49241 0.87385   -0.558261
 O 0.87385 0.61241 0.02133   -0.558261
 O 0.49241 0.02133 0.61241   -0.558261
 O 0.61241 0.87385 0.49241   -0.558261
 O 0.87385 0.49241 0.61241   -0.558261
 O 0.02133 0.61241 0.49241   -0.558262
 O 0.61241 0.02133 0.87385   -0.558261
 O 0.49241 0.87385 0.02133   -0.558261
 O 0.49241 0.61241 0.02133   -0.558262
 O 0.61241 0.49241 0.87385   -0.558261
 O 0.02133 0.87385 0.49241   -0.558261
 O 0.87385 0.02133 0.61241   -0.558262
 O 0.49241 0.02133 0.87385   -0.558261
 O 0.61241 0.87385 0.02133   -0.558262
 O 0.02133 0.49241 0.61241   -0.558262
 O 0.87385 0.61241 0.49241   -0.558261
 O 0.49241 0.87385 0.61241   -0.558261
 O 0.61241 0.02133 0.49241   -0.558262
 O 0.02133 0.61241 0.87385   -0.558262
 O 0.87385 0.49241 0.02133   -0.558261
 O 0.38759 0.50759 0.97867   -0.558262
 O 0.50759 0.38759 0.12615   -0.558261
 O 0.12615 0.97867 0.50759   -0.558261
 O 0.97867 0.12615 0.38759   -0.558262
 O 0.97867 0.50759 0.12615   -0.558261
 O 0.12615 0.38759 0.97867   -0.558262
 O 0.50759 0.97867 0.38759   -0.558262
 O 0.38759 0.12615 0.50759   -0.558261
 O 0.12615 0.50759 0.38759   -0.558261
 O 0.97867 0.38759 0.50759   -0.558262
 O 0.38759 0.97867 0.12615   -0.558262
 O 0.50759 0.12615 0.97867   -0.558261
