{'_ref': 'TBD', '_srcid': 'CAKYAQ_clean', 'submitters': [{'name': 'Dalar Nazarian Jeff Camp and David Sholl', 'email': 'dalar@gatech.edu jcamp6@gatech.edu'}], '_method': 'VASP DFT with PBE;DDEC'}
data_CuH2(C3O2)2
_symmetry_space_group_name_H-M   'P 1'
_cell_length_a   18.56609978
_cell_length_b   18.56609974
_cell_length_c   18.56610000
_cell_angle_alpha   59.99999954
_cell_angle_beta   59.99999962
_cell_angle_gamma   60.00000069
_symmetry_Int_Tables_number   1
_chemical_formula_structural   CuH2(C3O2)2
_chemical_formula_sum   'Cu12 H24 C72 O48'
_cell_volume   4525.29657032
_cell_formula_units_Z   12
loop_
 _symmetry_equiv_pos_site_id
 _symmetry_equiv_pos_as_xyz
  1  'x, y, z'
loop_
 _atom_site_label
 _atom_site_fract_x
 _atom_site_fract_y
 _atom_site_fract_z
 _atom_site_charge
 Cu 0.0 0.4301 0.5699   0.927561
 Cu 0.4301 0.0 0.0   0.927561
 Cu 0.5699 0.0 0.0   0.927561
 Cu 0.0 0.5699 0.4301   0.927561
 Cu 0.0 0.5699 0.0   0.927561
 Cu 0.4301 0.0 0.5699   0.927561
 Cu 0.5699 0.0 0.4301   0.927561
 Cu 0.0 0.4301 0.0   0.927561
 Cu 0.0 0.0 0.4301   0.927561
 Cu 0.4301 0.5699 0.0   0.927561
 Cu 0.5699 0.4301 0.0   0.927561
 Cu 0.0 0.0 0.5699   0.927561
 H 0.9722 0.2704 0.487   0.113748
 H 0.2704 0.9722 0.2704   0.113748
 H 0.487 0.2704 0.9722   0.113748
 H 0.2704 0.487 0.2704   0.113749
 H 0.9722 0.487 0.2704   0.113748
 H 0.2704 0.2704 0.487   0.113749
 H 0.487 0.9722 0.2704   0.113748
 H 0.2704 0.2704 0.9722   0.113748
 H 0.9722 0.2704 0.2704   0.113748
 H 0.2704 0.487 0.9722   0.113748
 H 0.487 0.2704 0.2704   0.113749
 H 0.2704 0.9722 0.487   0.113748
 H 0.7296 0.0278 0.513   0.113748
 H 0.0278 0.7296 0.7296   0.113748
 H 0.7296 0.513 0.0278   0.113748
 H 0.513 0.7296 0.7296   0.113749
 H 0.513 0.0278 0.7296   0.113748
 H 0.7296 0.7296 0.513   0.113749
 H 0.0278 0.513 0.7296   0.113748
 H 0.7296 0.7296 0.0278   0.113748
 H 0.7296 0.0278 0.7296   0.113748
 H 0.513 0.7296 0.0278   0.113748
 H 0.7296 0.513 0.7296   0.113749
 H 0.0278 0.7296 0.513   0.113748
 C 0.9704 0.3004 0.4288   0.033121
 C 0.3004 0.9704 0.3004   0.033121
 C 0.4288 0.3004 0.9704   0.033121
 C 0.3004 0.4288 0.3004   0.03312
 C 0.9704 0.4288 0.3004   0.03312
 C 0.3004 0.3004 0.4288   0.03312
 C 0.4288 0.9704 0.3004   0.03312
 C 0.3004 0.3004 0.9704   0.033121
 C 0.9704 0.3004 0.3004   0.033121
 C 0.3004 0.4288 0.9704   0.03312
 C 0.4288 0.3004 0.3004   0.03312
 C 0.3004 0.9704 0.4288   0.03312
 C 0.6996 0.0296 0.5712   0.03312
 C 0.0296 0.6996 0.6996   0.033121
 C 0.6996 0.5712 0.0296   0.03312
 C 0.5712 0.6996 0.6996   0.03312
 C 0.5712 0.0296 0.6996   0.03312
 C 0.6996 0.6996 0.5712   0.03312
 C 0.0296 0.5712 0.6996   0.03312
 C 0.6996 0.6996 0.0296   0.033121
 C 0.6996 0.0296 0.6996   0.033121
 C 0.5712 0.6996 0.0296   0.03312
 C 0.6996 0.5712 0.6996   0.03312
 C 0.0296 0.6996 0.5712   0.03312
 C 0.96852 0.387 0.387   -0.167994
 C 0.9786 0.4296 0.4296   0.693264
 C 0.387 0.96852 0.25748   -0.167994
 C 0.4296 0.9786 0.1622   0.693264
 C 0.387 0.25748 0.96852   -0.167994
 C 0.4296 0.1622 0.9786   0.693264
 C 0.25748 0.387 0.387   -0.167993
 C 0.1622 0.4296 0.4296   0.693264
 C 0.96852 0.387 0.25748   -0.167994
 C 0.9786 0.4296 0.1622   0.693264
 C 0.387 0.25748 0.387   -0.167993
 C 0.4296 0.1622 0.4296   0.693264
 C 0.387 0.96852 0.387   -0.167994
 C 0.4296 0.9786 0.4296   0.693264
 C 0.25748 0.387 0.96852   -0.167994
 C 0.1622 0.4296 0.9786   0.693264
 C 0.96852 0.25748 0.387   -0.167993
 C 0.9786 0.1622 0.4296   0.693264
 C 0.387 0.387 0.96852   -0.167993
 C 0.4296 0.4296 0.9786   0.693264
 C 0.387 0.387 0.25748   -0.167993
 C 0.4296 0.4296 0.1622   0.693263
 C 0.25748 0.96852 0.387   -0.167994
 C 0.1622 0.9786 0.4296   0.693264
 C 0.613 0.03148 0.613   -0.167994
 C 0.5704 0.0214 0.5704   0.693264
 C 0.03148 0.613 0.74252   -0.167994
 C 0.0214 0.5704 0.8378   0.693264
 C 0.74252 0.613 0.03148   -0.167994
 C 0.8378 0.5704 0.0214   0.693264
 C 0.613 0.74252 0.613   -0.167993
 C 0.5704 0.8378 0.5704   0.693264
 C 0.613 0.03148 0.74252   -0.167994
 C 0.5704 0.0214 0.8378   0.693264
 C 0.74252 0.613 0.613   -0.167993
 C 0.8378 0.5704 0.5704   0.693263
 C 0.03148 0.613 0.613   -0.167994
 C 0.0214 0.5704 0.5704   0.693264
 C 0.613 0.74252 0.03148   -0.167994
 C 0.5704 0.8378 0.0214   0.693264
 C 0.74252 0.03148 0.613   -0.167994
 C 0.8378 0.0214 0.5704   0.693264
 C 0.613 0.613 0.03148   -0.167993
 C 0.5704 0.5704 0.0214   0.693264
 C 0.613 0.613 0.74252   -0.167993
 C 0.5704 0.5704 0.8378   0.693263
 C 0.03148 0.74252 0.613   -0.167994
 C 0.0214 0.8378 0.5704   0.693264
 O 0.97998 0.38714 0.50664   -0.56796
 O 0.38714 0.97998 0.12624   -0.56796
 O 0.50664 0.12624 0.97998   -0.56796
 O 0.12624 0.50664 0.38714   -0.56796
 O 0.97998 0.50664 0.12624   -0.56796
 O 0.38714 0.12624 0.50664   -0.56796
 O 0.50664 0.97998 0.38714   -0.56796
 O 0.12624 0.38714 0.97998   -0.56796
 O 0.97998 0.12624 0.38714   -0.56796
 O 0.38714 0.50664 0.97998   -0.56796
 O 0.50664 0.38714 0.12624   -0.56796
 O 0.12624 0.97998 0.50664   -0.56796
 O 0.61286 0.02002 0.49336   -0.56796
 O 0.02002 0.61286 0.87376   -0.56796
 O 0.87376 0.49336 0.02002   -0.56796
 O 0.49336 0.87376 0.61286   -0.56796
 O 0.49336 0.02002 0.87376   -0.56796
 O 0.87376 0.61286 0.49336   -0.56796
 O 0.02002 0.49336 0.61286   -0.56796
 O 0.61286 0.87376 0.02002   -0.56796
 O 0.87376 0.02002 0.61286   -0.56796
 O 0.49336 0.61286 0.02002   -0.56796
 O 0.61286 0.49336 0.87376   -0.56796
 O 0.02002 0.87376 0.49336   -0.56796
 O 0.02002 0.61286 0.49336   -0.56796
 O 0.61286 0.02002 0.87376   -0.56796
 O 0.49336 0.87376 0.02002   -0.56796
 O 0.87376 0.49336 0.61286   -0.56796
 O 0.02002 0.49336 0.87376   -0.56796
 O 0.61286 0.87376 0.49336   -0.56796
 O 0.49336 0.02002 0.61286   -0.56796
 O 0.87376 0.61286 0.02002   -0.56796
 O 0.02002 0.87376 0.61286   -0.56796
 O 0.61286 0.49336 0.02002   -0.56796
 O 0.49336 0.61286 0.87376   -0.56796
 O 0.87376 0.02002 0.49336   -0.56796
 O 0.38714 0.97998 0.50664   -0.56796
 O 0.97998 0.38714 0.12624   -0.56796
 O 0.12624 0.50664 0.97998   -0.56796
 O 0.50664 0.12624 0.38714   -0.56796
 O 0.50664 0.97998 0.12624   -0.56796
 O 0.12624 0.38714 0.50664   -0.56796
 O 0.97998 0.50664 0.38714   -0.56796
 O 0.38714 0.12624 0.97998   -0.56796
 O 0.12624 0.97998 0.38714   -0.56796
 O 0.50664 0.38714 0.97998   -0.56796
 O 0.38714 0.50664 0.12624   -0.56796
 O 0.97998 0.12624 0.50664   -0.56796
