{'_ref': 'TBD', '_srcid': 'CAKYAQ_clean', 'submitters': [{'name': 'Dalar Nazarian Jeff Camp and David Sholl', 'email': 'dalar@gatech.edu jcamp6@gatech.edu'}], '_method': 'VASP DFT with PBE;DDEC'}
data_CuH2(C3O2)2
_symmetry_space_group_name_H-M   'P 1'
_cell_length_a   18.34710027
_cell_length_b   18.34709978
_cell_length_c   18.34710000
_cell_angle_alpha   59.99999961
_cell_angle_beta   60.00000049
_cell_angle_gamma   59.99999841
_symmetry_Int_Tables_number   1
_chemical_formula_structural   CuH2(C3O2)2
_chemical_formula_sum   'Cu12 H24 C72 O48'
_cell_volume   4367.04113546
_cell_formula_units_Z   12
loop_
 _symmetry_equiv_pos_site_id
 _symmetry_equiv_pos_as_xyz
  1  'x, y, z'
loop_
 _atom_site_label
 _atom_site_fract_x
 _atom_site_fract_y
 _atom_site_fract_z
 _atom_site_charge
 Cu 0.0 0.4292 0.5708   0.932349
 Cu 0.4292 0.0 0.0   0.932348
 Cu 0.5708 0.0 0.0   0.932345
 Cu 0.0 0.5708 0.4292   0.932347
 Cu 0.0 0.5708 0.0   0.932348
 Cu 0.4292 0.0 0.5708   0.932349
 Cu 0.5708 0.0 0.4292   0.932347
 Cu 0.0 0.4292 0.0   0.932346
 Cu 0.0 0.0 0.4292   0.932348
 Cu 0.4292 0.5708 0.0   0.93235
 Cu 0.5708 0.4292 0.0   0.932347
 Cu 0.0 0.0 0.5708   0.932346
 H 0.9641 0.2725 0.4909   0.114689
 H 0.2725 0.9641 0.2725   0.11469
 H 0.4909 0.2725 0.9641   0.114689
 H 0.2725 0.4909 0.2725   0.11469
 H 0.9641 0.4909 0.2725   0.114689
 H 0.2725 0.2725 0.4909   0.11469
 H 0.4909 0.9641 0.2725   0.114689
 H 0.2725 0.2725 0.9641   0.11469
 H 0.9641 0.2725 0.2725   0.11469
 H 0.2725 0.4909 0.9641   0.114689
 H 0.4909 0.2725 0.2725   0.11469
 H 0.2725 0.9641 0.4909   0.114689
 H 0.7275 0.0359 0.5091   0.114689
 H 0.0359 0.7275 0.7275   0.11469
 H 0.7275 0.5091 0.0359   0.114689
 H 0.5091 0.7275 0.7275   0.11469
 H 0.5091 0.0359 0.7275   0.114689
 H 0.7275 0.7275 0.5091   0.11469
 H 0.0359 0.5091 0.7275   0.114689
 H 0.7275 0.7275 0.0359   0.11469
 H 0.7275 0.0359 0.7275   0.11469
 H 0.5091 0.7275 0.0359   0.114689
 H 0.7275 0.5091 0.7275   0.11469
 H 0.0359 0.7275 0.5091   0.114689
 C 0.9637 0.3025 0.4313   0.028913
 C 0.3025 0.9637 0.3025   0.028913
 C 0.4313 0.3025 0.9637   0.028913
 C 0.3025 0.4313 0.3025   0.028912
 C 0.9637 0.4313 0.3025   0.028913
 C 0.3025 0.3025 0.4313   0.028912
 C 0.4313 0.9637 0.3025   0.028913
 C 0.3025 0.3025 0.9637   0.028913
 C 0.9637 0.3025 0.3025   0.028913
 C 0.3025 0.4313 0.9637   0.028913
 C 0.4313 0.3025 0.3025   0.028912
 C 0.3025 0.9637 0.4313   0.028913
 C 0.6975 0.0363 0.5687   0.028913
 C 0.0363 0.6975 0.6975   0.028913
 C 0.6975 0.5687 0.0363   0.028913
 C 0.5687 0.6975 0.6975   0.028912
 C 0.5687 0.0363 0.6975   0.028913
 C 0.6975 0.6975 0.5687   0.028912
 C 0.0363 0.5687 0.6975   0.028913
 C 0.6975 0.6975 0.0363   0.028913
 C 0.6975 0.0363 0.6975   0.028913
 C 0.5687 0.6975 0.0363   0.028913
 C 0.6975 0.5687 0.6975   0.028912
 C 0.0363 0.6975 0.5687   0.028913
 C 0.9625 0.3891 0.3891   -0.151127
 C 0.9774 0.4306 0.4306   0.669912
 C 0.3891 0.9625 0.2593   -0.151127
 C 0.4306 0.9774 0.1614   0.669913
 C 0.3891 0.2593 0.9625   -0.151127
 C 0.4306 0.1614 0.9774   0.669913
 C 0.2593 0.3891 0.3891   -0.151128
 C 0.1614 0.4306 0.4306   0.669912
 C 0.9625 0.3891 0.2593   -0.151127
 C 0.9774 0.4306 0.1614   0.669913
 C 0.3891 0.2593 0.3891   -0.151127
 C 0.4306 0.1614 0.4306   0.669912
 C 0.3891 0.9625 0.3891   -0.151127
 C 0.4306 0.9774 0.4306   0.669912
 C 0.2593 0.3891 0.9625   -0.151127
 C 0.1614 0.4306 0.9774   0.669913
 C 0.9625 0.2593 0.3891   -0.151127
 C 0.9774 0.1614 0.4306   0.669913
 C 0.3891 0.3891 0.9625   -0.151127
 C 0.4306 0.4306 0.9774   0.669912
 C 0.3891 0.3891 0.2593   -0.151127
 C 0.4306 0.4306 0.1614   0.669912
 C 0.2593 0.9625 0.3891   -0.151127
 C 0.1614 0.9774 0.4306   0.669913
 C 0.6109 0.0375 0.6109   -0.151127
 C 0.5694 0.0226 0.5694   0.669912
 C 0.0375 0.6109 0.7407   -0.151127
 C 0.0226 0.5694 0.8386   0.669913
 C 0.7407 0.6109 0.0375   -0.151127
 C 0.8386 0.5694 0.0226   0.669913
 C 0.6109 0.7407 0.6109   -0.151127
 C 0.5694 0.8386 0.5694   0.669912
 C 0.6109 0.0375 0.7407   -0.151127
 C 0.5694 0.0226 0.8386   0.669913
 C 0.7407 0.6109 0.6109   -0.151127
 C 0.8386 0.5694 0.5694   0.669912
 C 0.0375 0.6109 0.6109   -0.151127
 C 0.0226 0.5694 0.5694   0.669912
 C 0.6109 0.7407 0.0375   -0.151127
 C 0.5694 0.8386 0.0226   0.669913
 C 0.7407 0.0375 0.6109   -0.151127
 C 0.8386 0.0226 0.5694   0.669913
 C 0.6109 0.6109 0.0375   -0.151127
 C 0.5694 0.5694 0.0226   0.669912
 C 0.6109 0.6109 0.7407   -0.151127
 C 0.5694 0.5694 0.8386   0.669912
 C 0.0375 0.7407 0.6109   -0.151127
 C 0.0226 0.8386 0.5694   0.669913
 O 0.9796 0.3872 0.5094   -0.564281
 O 0.3872 0.9796 0.1238   -0.564281
 O 0.5094 0.1238 0.9796   -0.564281
 O 0.1238 0.5094 0.3872   -0.56428
 O 0.9796 0.5094 0.1238   -0.564281
 O 0.3872 0.1238 0.5094   -0.56428
 O 0.5094 0.9796 0.3872   -0.564281
 O 0.1238 0.3872 0.9796   -0.564281
 O 0.9796 0.1238 0.3872   -0.564281
 O 0.3872 0.5094 0.9796   -0.564281
 O 0.5094 0.3872 0.1238   -0.56428
 O 0.1238 0.9796 0.5094   -0.564281
 O 0.6128 0.0204 0.4906   -0.564281
 O 0.0204 0.6128 0.8762   -0.564281
 O 0.8762 0.4906 0.0204   -0.564281
 O 0.4906 0.8762 0.6128   -0.56428
 O 0.4906 0.0204 0.8762   -0.564281
 O 0.8762 0.6128 0.4906   -0.56428
 O 0.0204 0.4906 0.6128   -0.564281
 O 0.6128 0.8762 0.0204   -0.564281
 O 0.8762 0.0204 0.6128   -0.564281
 O 0.4906 0.6128 0.0204   -0.564281
 O 0.6128 0.4906 0.8762   -0.56428
 O 0.0204 0.8762 0.4906   -0.564281
 O 0.0204 0.6128 0.4906   -0.564281
 O 0.6128 0.0204 0.8762   -0.564281
 O 0.4906 0.8762 0.0204   -0.564281
 O 0.8762 0.4906 0.6128   -0.56428
 O 0.0204 0.4906 0.8762   -0.564281
 O 0.6128 0.8762 0.4906   -0.56428
 O 0.4906 0.0204 0.6128   -0.564281
 O 0.8762 0.6128 0.0204   -0.564281
 O 0.0204 0.8762 0.6128   -0.564281
 O 0.6128 0.4906 0.0204   -0.564281
 O 0.4906 0.6128 0.8762   -0.56428
 O 0.8762 0.0204 0.4906   -0.564281
 O 0.3872 0.9796 0.5094   -0.564281
 O 0.9796 0.3872 0.1238   -0.564281
 O 0.1238 0.5094 0.9796   -0.564281
 O 0.5094 0.1238 0.3872   -0.56428
 O 0.5094 0.9796 0.1238   -0.56428
 O 0.1238 0.3872 0.5094   -0.56428
 O 0.9796 0.5094 0.3872   -0.564281
 O 0.3872 0.1238 0.9796   -0.564281
 O 0.1238 0.9796 0.3872   -0.564281
 O 0.5094 0.3872 0.9796   -0.564281
 O 0.3872 0.5094 0.1238   -0.56428
 O 0.9796 0.1238 0.5094   -0.56428
