{'_ref': 'TBD', '_srcid': 'CAKYAQ_clean', 'submitters': [{'name': 'Dalar Nazarian Jeff Camp and David Sholl', 'email': 'dalar@gatech.edu jcamp6@gatech.edu'}], '_method': 'VASP DFT with PBE;DDEC'}
data_CaNiH4(C3O4)2
_symmetry_space_group_name_H-M   'P 1'
_cell_length_a   8.92100000
_cell_length_b   11.93500000
_cell_length_c   13.27400000
_cell_angle_alpha   90.00000000
_cell_angle_beta   90.00000000
_cell_angle_gamma   90.00000000
_symmetry_Int_Tables_number   1
_chemical_formula_structural   CaNiH4(C3O4)2
_chemical_formula_sum   'Ca4 Ni4 H16 C24 O32'
_cell_volume   1413.31111999
_cell_formula_units_Z   4
loop_
 _symmetry_equiv_pos_site_id
 _symmetry_equiv_pos_as_xyz
  1  'x, y, z'
loop_
 _atom_site_label
 _atom_site_fract_x
 _atom_site_fract_y
 _atom_site_fract_z
 _atom_site_charge
 Ca 0.0 0.76175 0.75   1.576038
 Ca 0.5 0.73825 0.25   1.576038
 Ca 0.0 0.23825 0.25   1.576037
 Ca 0.5 0.26175 0.75   1.576037
 Ni 0.5 0.5 0.0   0.73028
 Ni 0.0 0.0 0.5   0.73028
 Ni 0.5 0.5 0.5   0.73028
 Ni 0.0 0.0 0.0   0.73028
 H 0.751 0.782 0.938   0.181878
 H 0.601 0.741 0.895   0.189313
 H 0.749 0.718 0.438   0.181878
 H 0.899 0.759 0.395   0.189313
 H 0.249 0.782 0.562   0.181878
 H 0.399 0.741 0.605   0.189312
 H 0.251 0.718 0.062   0.181878
 H 0.101 0.759 0.105   0.189312
 H 0.249 0.218 0.062   0.181878
 H 0.399 0.259 0.105   0.189313
 H 0.251 0.282 0.562   0.181878
 H 0.101 0.241 0.605   0.189313
 H 0.751 0.218 0.438   0.181878
 H 0.601 0.259 0.395   0.189312
 H 0.749 0.282 0.938   0.181878
 H 0.899 0.241 0.895   0.189312
 C 0.7531 0.6179 0.9027   0.781501
 C 0.6841 0.7256 0.942   -0.569815
 C 0.6221 0.7224 0.0478   0.781841
 C 0.7469 0.8821 0.4027   0.781501
 C 0.8159 0.7744 0.442   -0.569815
 C 0.8779 0.7776 0.5478   0.781841
 C 0.2469 0.6179 0.5973   0.7815
 C 0.3159 0.7256 0.558   -0.569814
 C 0.3779 0.7224 0.4522   0.78184
 C 0.2531 0.8821 0.0973   0.7815
 C 0.1841 0.7744 0.058   -0.569814
 C 0.1221 0.7776 0.9522   0.78184
 C 0.2469 0.3821 0.0973   0.781502
 C 0.3159 0.2744 0.058   -0.569815
 C 0.3779 0.2776 0.9522   0.781841
 C 0.2531 0.1179 0.5973   0.781502
 C 0.1841 0.2256 0.558   -0.569815
 C 0.1221 0.2224 0.4522   0.781841
 C 0.7531 0.3821 0.4027   0.781501
 C 0.6841 0.2744 0.442   -0.569814
 C 0.6221 0.2776 0.5478   0.78184
 C 0.7469 0.1179 0.9027   0.781501
 C 0.8159 0.2256 0.942   -0.569814
 C 0.8779 0.2224 0.0478   0.78184
 O 0.8545 0.6262 0.8386   -0.665765
 O 0.7073 0.5242 0.9348   -0.545947
 O 0.523 0.6498 0.0722   -0.684822
 O 0.8362 0.7058 0.6102   -0.621344
 O 0.6455 0.8738 0.3386   -0.665765
 O 0.7927 0.9758 0.4348   -0.545947
 O 0.977 0.8502 0.5722   -0.684822
 O 0.6638 0.7942 0.1102   -0.621344
 O 0.1455 0.6262 0.6614   -0.665765
 O 0.2927 0.5242 0.5652   -0.545947
 O 0.477 0.6498 0.4278   -0.684822
 O 0.1638 0.7058 0.8898   -0.621344
 O 0.3545 0.8738 0.1614   -0.665765
 O 0.2073 0.9758 0.0652   -0.545947
 O 0.023 0.8502 0.9278   -0.684822
 O 0.3362 0.7942 0.3898   -0.621344
 O 0.1455 0.3738 0.1614   -0.665765
 O 0.2927 0.4758 0.0652   -0.545946
 O 0.477 0.3502 0.9278   -0.684822
 O 0.1638 0.2942 0.3898   -0.621343
 O 0.3545 0.1262 0.6614   -0.665765
 O 0.2073 0.0242 0.5652   -0.545946
 O 0.023 0.1498 0.4278   -0.684822
 O 0.3362 0.2058 0.8898   -0.621343
 O 0.8545 0.3738 0.3386   -0.665765
 O 0.7073 0.4758 0.4348   -0.545946
 O 0.523 0.3502 0.5722   -0.684822
 O 0.8362 0.2942 0.1102   -0.621343
 O 0.6455 0.1262 0.8386   -0.665765
 O 0.7927 0.0242 0.9348   -0.545946
 O 0.977 0.1498 0.0722   -0.684822
 O 0.6638 0.2058 0.6102   -0.621343
