{'_ref': 'TBD', '_srcid': 'CAKYAQ_clean', 'submitters': [{'name': 'Dalar Nazarian Jeff Camp and David Sholl', 'email': 'dalar@gatech.edu jcamp6@gatech.edu'}], '_method': 'VASP DFT with PBE;DDEC'}
data_CoH10C15(NO3)2
_symmetry_space_group_name_H-M   'P 1'
_cell_length_a   10.82329953
_cell_length_b   10.82330018
_cell_length_c   16.79600000
_cell_angle_alpha   95.72809871
_cell_angle_beta   95.72809906
_cell_angle_gamma   102.04499760
_symmetry_Int_Tables_number   1
_chemical_formula_structural   CoH10C15(NO3)2
_chemical_formula_sum   'Co4 H40 C60 N8 O24'
_cell_volume   1899.85238875
_cell_formula_units_Z   4
loop_
 _symmetry_equiv_pos_site_id
 _symmetry_equiv_pos_as_xyz
  1  'x, y, z'
loop_
 _atom_site_label
 _atom_site_fract_x
 _atom_site_fract_y
 _atom_site_fract_z
 _atom_site_charge
 Co 0.04769 0.54403 0.83609   1.151329
 Co 0.95231 0.45597 0.16391   1.151329
 Co 0.45597 0.95231 0.66391   1.151329
 Co 0.54403 0.04769 0.33609   1.151329
 H 0.7657 0.1345 0.866   0.279431
 H 0.1059 0.0457 0.8902   0.110984
 H 0.9233 0.7901 0.0202   0.109938
 H 0.5415 0.6927 0.9478   0.101293
 H 0.306 0.3604 0.9649   0.104114
 H 0.0032 0.6704 0.596   0.108391
 H 0.0277 0.3079 0.5381   0.086342
 H 0.8468 0.473 0.9631   0.085013
 H 0.719 0.272 0.9708   0.11721
 H 0.9261 0.2453 0.7963   0.08918
 H 0.2343 0.8655 0.134   0.279431
 H 0.8941 0.9543 0.1098   0.110983
 H 0.0767 0.2099 0.9798   0.109938
 H 0.4585 0.3073 0.0522   0.101292
 H 0.694 0.6396 0.0351   0.104114
 H 0.9968 0.3296 0.404   0.10839
 H 0.9723 0.6921 0.4619   0.086341
 H 0.1532 0.527 0.0369   0.085013
 H 0.281 0.728 0.0292   0.11721
 H 0.0739 0.7547 0.2037   0.08918
 H 0.8655 0.2343 0.634   0.279432
 H 0.9543 0.8941 0.6098   0.110984
 H 0.2099 0.0767 0.4798   0.109938
 H 0.3073 0.4585 0.5522   0.101293
 H 0.6396 0.694 0.5351   0.104114
 H 0.3296 0.9968 0.904   0.108391
 H 0.6921 0.9723 0.9619   0.086342
 H 0.527 0.1532 0.5369   0.085013
 H 0.728 0.281 0.5292   0.11721
 H 0.7547 0.0739 0.7037   0.089181
 H 0.1345 0.7657 0.366   0.279432
 H 0.0457 0.1059 0.3902   0.110984
 H 0.7901 0.9233 0.5202   0.109938
 H 0.6927 0.5415 0.4478   0.101292
 H 0.3604 0.306 0.4649   0.104114
 H 0.6704 0.0032 0.096   0.10839
 H 0.3079 0.0277 0.0381   0.086342
 H 0.473 0.8468 0.4631   0.085013
 H 0.272 0.719 0.4708   0.11721
 H 0.2453 0.9261 0.2963   0.089181
 C 0.0634 0.027 0.9345   -0.054944
 C 0.0199 0.9023 0.9453   -0.10639
 C 0.9542 0.8742 0.0122   -0.08153
 C 0.0468 0.7962 0.8893   0.626681
 C 0.5247 0.6151 0.9686   -0.058765
 C 0.408 0.531 0.9469   -0.110515
 C 0.3845 0.4167 0.9791   -0.061305
 C 0.307 0.5658 0.8898   0.628121
 C 0.0019 0.6019 0.5576   -0.039849
 C 0.0189 0.4847 0.5825   -0.108568
 C 0.0165 0.3855 0.523   -0.073137
 C 0.0344 0.467 0.6686   0.666913
 C 0.8447 0.4003 0.9279   0.033067
 C 0.7756 0.2916 0.9334   -0.041779
 C 0.8888 0.2806 0.8378   0.211923
 C 0.9366 0.973 0.0655   -0.054938
 C 0.9801 0.0977 0.0547   -0.106393
 C 0.0458 0.1258 0.9878   -0.081524
 C 0.9532 0.2038 0.1107   0.626682
 C 0.4753 0.3849 0.0314   -0.058758
 C 0.592 0.469 0.0531   -0.110518
 C 0.6155 0.5833 0.0209   -0.061298
 C 0.693 0.4342 0.1102   0.628122
 C 0.9981 0.3981 0.4424   -0.039844
 C 0.9811 0.5153 0.4175   -0.10857
 C 0.9835 0.6145 0.477   -0.073132
 C 0.9656 0.533 0.3314   0.666914
 C 0.1553 0.5997 0.0721   0.033067
 C 0.2244 0.7084 0.0666   -0.041779
 C 0.1112 0.7194 0.1622   0.211923
 C 0.973 0.9366 0.5655   -0.054944
 C 0.0977 0.9801 0.5547   -0.106391
 C 0.1258 0.0458 0.4878   -0.08153
 C 0.2038 0.9532 0.6107   0.626682
 C 0.3849 0.4753 0.5314   -0.058765
 C 0.469 0.592 0.5531   -0.110516
 C 0.5833 0.6155 0.5209   -0.061305
 C 0.4342 0.693 0.6102   0.628121
 C 0.3981 0.9981 0.9424   -0.039849
 C 0.5153 0.9811 0.9175   -0.108568
 C 0.6145 0.9835 0.977   -0.073137
 C 0.533 0.9656 0.8314   0.666913
 C 0.5997 0.1553 0.5721   0.033067
 C 0.7084 0.2244 0.5666   -0.041779
 C 0.7194 0.1112 0.6622   0.211922
 C 0.027 0.0634 0.4345   -0.054938
 C 0.9023 0.0199 0.4453   -0.106393
 C 0.8742 0.9542 0.5122   -0.081524
 C 0.7962 0.0468 0.3893   0.626682
 C 0.6151 0.5247 0.4686   -0.058758
 C 0.531 0.408 0.4469   -0.110519
 C 0.4167 0.3845 0.4791   -0.061298
 C 0.5658 0.307 0.3898   0.628121
 C 0.6019 0.0019 0.0576   -0.039844
 C 0.4847 0.0189 0.0825   -0.10857
 C 0.3855 0.0165 0.023   -0.073132
 C 0.467 0.0344 0.1686   0.666914
 C 0.4003 0.8447 0.4279   0.033067
 C 0.2916 0.7756 0.4334   -0.041779
 C 0.2806 0.8888 0.3378   0.211922
 N 0.9151 0.3991 0.8653   -0.423236
 N 0.8002 0.2144 0.8768   -0.184364
 N 0.0849 0.6009 0.1347   -0.423236
 N 0.1998 0.7856 0.1232   -0.184364
 N 0.6009 0.0849 0.6347   -0.423236
 N 0.7856 0.1998 0.6232   -0.184364
 N 0.3991 0.9151 0.3653   -0.423236
 N 0.2144 0.8002 0.3768   -0.184364
 O 0.9936 0.6838 0.897   -0.583957
 O 0.1173 0.8251 0.839   -0.436423
 O 0.1973 0.4959 0.8862   -0.576394
 O 0.3363 0.6571 0.8517   -0.445776
 O 0.04987 0.56653 0.721   -0.543801
 O 0.0253 0.3595 0.6887   -0.579211
 O 0.0064 0.3162 0.103   -0.583957
 O 0.8827 0.1749 0.161   -0.436423
 O 0.8027 0.5041 0.1138   -0.576394
 O 0.6637 0.3429 0.1483   -0.445776
 O 0.95013 0.43347 0.279   -0.543801
 O 0.9747 0.6405 0.3113   -0.579211
 O 0.3162 0.0064 0.603   -0.583957
 O 0.1749 0.8827 0.661   -0.436424
 O 0.5041 0.8027 0.6138   -0.576394
 O 0.3429 0.6637 0.6483   -0.445776
 O 0.43347 0.95013 0.779   -0.543801
 O 0.6405 0.9747 0.8113   -0.579211
 O 0.6838 0.9936 0.397   -0.583957
 O 0.8251 0.1173 0.339   -0.436424
 O 0.4959 0.1973 0.3862   -0.576394
 O 0.6571 0.3363 0.3517   -0.445776
 O 0.56653 0.04987 0.221   -0.543801
 O 0.3595 0.0253 0.1887   -0.579211
