{'_ref': 'TBD', '_srcid': 'CAKYAQ_clean', 'submitters': [{'name': 'Dalar Nazarian Jeff Camp and David Sholl', 'email': 'dalar@gatech.edu jcamp6@gatech.edu'}], '_method': 'VASP DFT with PBE;DDEC'}
data_GdH6(C2O)6
_symmetry_space_group_name_H-M   'P 1'
_cell_length_a   10.68790022
_cell_length_b   10.68789967
_cell_length_c   18.67910000
_cell_angle_alpha   74.20529803
_cell_angle_beta   74.20529887
_cell_angle_gamma   64.70050005
_symmetry_Int_Tables_number   1
_chemical_formula_structural   GdH6(C2O)6
_chemical_formula_sum   'Gd4 H24 C48 O24'
_cell_volume   1826.20752327
_cell_formula_units_Z   4
loop_
 _symmetry_equiv_pos_site_id
 _symmetry_equiv_pos_as_xyz
  1  'x, y, z'
loop_
 _atom_site_label
 _atom_site_fract_x
 _atom_site_fract_y
 _atom_site_fract_z
 _atom_site_charge
 Gd 0.55809 0.43825 0.10218   2.236566
 Gd 0.56175 0.44191 0.39782   2.236567
 Gd 0.44191 0.56175 0.89782   2.236566
 Gd 0.43825 0.55809 0.60218   2.236567
 H 0.4718 0.1154 0.2294   0.107002
 H 0.536 0.7912 0.0891   0.113781
 H 0.3788 0.2106 0.4386   0.095221
 H 0.3685 0.9897 0.4926   0.103485
 H 0.441 0.0188 0.8848   0.111843
 H 0.4645 0.8937 0.2837   0.116687
 H 0.8846 0.5282 0.2706   0.107002
 H 0.2088 0.464 0.4109   0.113781
 H 0.7894 0.6212 0.0614   0.095221
 H 0.0103 0.6315 0.0074   0.103485
 H 0.9812 0.559 0.6152   0.111843
 H 0.1063 0.5355 0.2163   0.116687
 H 0.5282 0.8846 0.7706   0.107002
 H 0.464 0.2088 0.9109   0.113781
 H 0.6212 0.7894 0.5614   0.095221
 H 0.6315 0.0103 0.5074   0.103485
 H 0.559 0.9812 0.1152   0.111843
 H 0.5355 0.1063 0.7163   0.116687
 H 0.1154 0.4718 0.7294   0.107002
 H 0.7912 0.536 0.5891   0.113781
 H 0.2106 0.3788 0.9386   0.095221
 H 0.9897 0.3685 0.9926   0.103485
 H 0.0188 0.441 0.3848   0.111843
 H 0.8937 0.4645 0.7837   0.116687
 C 0.44417 0.32117 0.29411   0.798655
 C 0.48687 0.88625 0.98423   -0.127962
 C 0.42874 0.18318 0.32888   -0.17293
 C 0.45253 0.08933 0.28281   -0.039395
 C 0.52154 0.87576 0.05289   -0.055288
 C 0.39682 0.1461 0.40715   -0.058307
 C 0.4722 0.76578 0.96613   0.765275
 C 0.39135 0.01455 0.43921   -0.044793
 C 0.46512 0.01112 0.93157   -0.058391
 C 0.41929 0.91927 0.39337   -0.133116
 C 0.42701 0.77297 0.4294   0.796608
 C 0.44799 0.95775 0.31507   -0.061305
 C 0.67883 0.55583 0.20589   0.798654
 C 0.11375 0.51313 0.51577   -0.127962
 C 0.81682 0.57126 0.17112   -0.17293
 C 0.91067 0.54747 0.21719   -0.039395
 C 0.12424 0.47846 0.44711   -0.055289
 C 0.8539 0.60318 0.09285   -0.058308
 C 0.23422 0.5278 0.53387   0.765275
 C 0.98545 0.60865 0.06079   -0.044793
 C 0.98888 0.53488 0.56843   -0.058391
 C 0.08073 0.58071 0.10663   -0.133115
 C 0.22703 0.57299 0.0706   0.796607
 C 0.04225 0.55201 0.18493   -0.061307
 C 0.55583 0.67883 0.70589   0.798655
 C 0.51313 0.11375 0.01577   -0.127961
 C 0.57126 0.81682 0.67112   -0.17293
 C 0.54747 0.91067 0.71719   -0.039395
 C 0.47846 0.12424 0.94711   -0.055289
 C 0.60318 0.8539 0.59285   -0.058308
 C 0.5278 0.23422 0.03387   0.765275
 C 0.60865 0.98545 0.56079   -0.044793
 C 0.53488 0.98888 0.06843   -0.058393
 C 0.58071 0.08073 0.60663   -0.133115
 C 0.57299 0.22703 0.5706   0.796608
 C 0.55201 0.04225 0.68493   -0.061306
 C 0.32117 0.44417 0.79411   0.798654
 C 0.88625 0.48687 0.48423   -0.127961
 C 0.18318 0.42874 0.82888   -0.17293
 C 0.08933 0.45253 0.78281   -0.039395
 C 0.87576 0.52154 0.55289   -0.05529
 C 0.1461 0.39682 0.90715   -0.058308
 C 0.76578 0.4722 0.46613   0.765275
 C 0.01455 0.39135 0.93921   -0.044793
 C 0.01112 0.46512 0.43157   -0.058393
 C 0.91927 0.41929 0.89337   -0.133115
 C 0.77297 0.42701 0.9294   0.796607
 C 0.95775 0.44799 0.81507   -0.061307
 O 0.47123 0.35077 0.22407   -0.730489
 O 0.51013 0.64555 0.00789   -0.821865
 O 0.42647 0.40047 0.3389   -0.774181
 O 0.42246 0.7878 0.90796   -0.692814
 O 0.3943 0.7475 0.50048   -0.767565
 O 0.46836 0.68538 0.38635   -0.706717
 O 0.64923 0.52877 0.27593   -0.730489
 O 0.35445 0.48987 0.49211   -0.821866
 O 0.59953 0.57353 0.1611   -0.774181
 O 0.2122 0.57754 0.59204   -0.692814
 O 0.2525 0.6057 0.99952   -0.767565
 O 0.31462 0.53164 0.11365   -0.706717
 O 0.52877 0.64923 0.77593   -0.730489
 O 0.48987 0.35445 0.99211   -0.821865
 O 0.57353 0.59953 0.6611   -0.774181
 O 0.57754 0.2122 0.09204   -0.692814
 O 0.6057 0.2525 0.49952   -0.767565
 O 0.53164 0.31462 0.61365   -0.706717
 O 0.35077 0.47123 0.72407   -0.730489
 O 0.64555 0.51013 0.50789   -0.821866
 O 0.40047 0.42647 0.8389   -0.774181
 O 0.7878 0.42246 0.40796   -0.692814
 O 0.7475 0.3943 0.000480000000003   -0.767565
 O 0.68538 0.46836 0.88635   -0.706717
