{'_ref': 'TBD', '_srcid': 'CAKYAQ_clean', 'submitters': [{'name': 'Dalar Nazarian Jeff Camp and David Sholl', 'email': 'dalar@gatech.edu jcamp6@gatech.edu'}], '_method': 'VASP DFT with PBE;DDEC'}
data_Ba7C24(NO18)2
_symmetry_space_group_name_H-M   'P 1'
_cell_length_a   7.27330052
_cell_length_b   10.60119944
_cell_length_c   17.93010000
_cell_angle_alpha   107.19499861
_cell_angle_beta   100.87100100
_cell_angle_gamma   90.00000107
_symmetry_Int_Tables_number   1
_chemical_formula_structural   Ba7C24(NO18)2
_chemical_formula_sum   'Ba7 C24 N2 O36'
_cell_volume   1294.72677779
_cell_formula_units_Z   1
loop_
 _symmetry_equiv_pos_site_id
 _symmetry_equiv_pos_as_xyz
  1  'x, y, z'
loop_
 _atom_site_label
 _atom_site_fract_x
 _atom_site_fract_y
 _atom_site_fract_z
 _atom_site_charge
 Ba 0.86638 0.2569 0.75906   1.563638
 Ba 0.37402 0.00579 0.76164   1.596837
 Ba 0.01577 0.01642 0.53304   1.492653
 Ba 0.13362 0.49784 0.24094   1.563486
 Ba 0.62598 0.24415 0.23836   1.596754
 Ba 0.98423 0.48338 0.46696   1.492664
 Ba 0.0 0.63062 0.0   1.650072
 C 0.1239 0.0966 0.8998   0.717319
 C 0.0431 0.1372 0.9722   -0.115483
 C 0.3302 0.2697 0.6942   0.782779
 C 0.3241 0.4021 0.6822   -0.132597
 C 0.3111 0.5091 0.6742   -0.115022
 C 0.3043 0.642 0.6626   0.740679
 C 0.8548 0.9268 0.6996   0.782948
 C 0.8424 0.786 0.6868   -0.118522
 C 0.8333 0.6711 0.6766   -0.113877
 C 0.8379 0.5279 0.6638   0.708445
 C 0.6637 0.3205 0.913   0.797089
 C 0.5441 0.3501 0.9742   -0.134573
 C 0.8761 0.1968 0.1002   0.716726
 C 0.9569 0.165 0.0278   -0.114067
 C 0.6698 0.5755 0.3058   0.781469
 C 0.6759 0.7199 0.3178   -0.131018
 C 0.6889 0.8349 0.3258   -0.116215
 C 0.6957 0.9794 0.3374   0.740126
 C 0.1452 0.2272 0.3004   0.783439
 C 0.1576 0.0992 0.3132   -0.120779
 C 0.1667 0.9945 0.3234   -0.111831
 C 0.1621 0.8641 0.3362   0.709154
 C 0.3363 0.4075 0.087   0.796587
 C 0.4559 0.3759 0.0258   -0.133956
 N 0.7316 0.7491 0.4994   0.770236
 N 0.2684 0.2497 0.5006   0.768717
 O 0.1346 0.1748 0.8616   -0.643066
 O 0.1849 0.9804 0.8858   -0.615528
 O 0.4875 0.23 0.7136   -0.678953
 O 0.1804 0.2069 0.6854   -0.749693
 O 0.2419 0.6489 0.597   -0.531585
 O 0.3474 0.7325 0.7266   -0.621597
 O 0.989 0.9735 0.6836   -0.726437
 O 0.7215 0.991 0.7262   -0.709797
 O 0.8378 0.4892 0.7238   -0.619728
 O 0.8363 0.4505 0.593   -0.525617
 O 0.6566 0.859 0.5216   -0.409694
 O 0.9034 0.7509 0.5004   -0.541366
 O 0.6404 0.6424 0.4822   -0.395151
 O 0.6429 0.2018 0.8672   -0.690583
 O 0.7732 0.4077 0.9136   -0.733763
 O 0.7609 0.2026 0.59   -0.208925
 O 0.327 0.8919 0.5942   -0.227234
 O 0.8331 0.5829 0.1258   -0.419436
 O 0.8654 0.3132 0.1384   -0.642706
 O 0.8151 0.0946 0.1142   -0.615496
 O 0.5125 0.5164 0.2864   -0.678902
 O 0.8196 0.5215 0.3146   -0.74904
 O 0.7581 0.0519 0.403   -0.532273
 O 0.6526 0.0059 0.2734   -0.620302
 O 0.011 0.2899 0.3164   -0.726532
 O 0.2785 0.2648 0.2738   -0.709484
 O 0.1622 0.7654 0.2762   -0.620361
 O 0.1637 0.8575 0.407   -0.52593
 O 0.3434 0.3374 0.4784   -0.408998
 O 0.0966 0.2505 0.4996   -0.541707
 O 0.3596 0.1602 0.5178   -0.394173
 O 0.3571 0.3346 0.1328   -0.689947
 O 0.2268 0.4941 0.0864   -0.734217
 O 0.2391 0.6126 0.41   -0.20887
 O 0.673 0.2977 0.4058   -0.227205
 O 0.1669 0.4571 0.8742   -0.41958
