{'_ref': 'TBD', '_srcid': 'CAKYAQ_clean', 'submitters': [{'name': 'Dalar Nazarian Jeff Camp and David Sholl', 'email': 'dalar@gatech.edu jcamp6@gatech.edu'}], '_method': 'VASP DFT with PBE;DDEC'}
data_CoH2(C3O2)2
_symmetry_space_group_name_H-M   'P 1'
_cell_length_a   10.12400045
_cell_length_b   10.28100000
_cell_length_c   16.33000000
_cell_angle_alpha   90.00000000
_cell_angle_beta   95.33999825
_cell_angle_gamma   90.00000000
_symmetry_Int_Tables_number   1
_chemical_formula_structural   CoH2(C3O2)2
_chemical_formula_sum   'Co6 H12 C36 O24'
_cell_volume   1692.3288075
_cell_formula_units_Z   6
loop_
 _symmetry_equiv_pos_site_id
 _symmetry_equiv_pos_as_xyz
  1  'x, y, z'
loop_
 _atom_site_label
 _atom_site_fract_x
 _atom_site_fract_y
 _atom_site_fract_z
 _atom_site_charge
 Co 0.22691 0.75397 0.07756   0.899713
 Co 0.77309 0.25397 0.42244   0.899713
 Co 0.77309 0.24603 0.92244   0.899709
 Co 0.22691 0.74603 0.57756   0.899709
 Co 0.0 0.5 0.5   0.757623
 Co 0.0 0.0 0.0   0.757623
 H 0.3262 0.2704 0.4199   0.105613
 H 0.4316 0.0614 0.2388   0.104154
 H 0.0546 0.1434 0.2477   0.107782
 H 0.6738 0.7704 0.0801   0.105611
 H 0.5684 0.5614 0.2612   0.104153
 H 0.9454 0.6434 0.2523   0.107782
 H 0.6738 0.7296 0.5801   0.105613
 H 0.5684 0.9386 0.7612   0.104154
 H 0.9454 0.8566 0.7523   0.107782
 H 0.3262 0.2296 0.9199   0.105611
 H 0.4316 0.4386 0.7388   0.104153
 H 0.0546 0.3566 0.7477   0.107782
 C 0.1386 0.1483 0.2717   0.027869
 C 0.3026 0.2275 0.3742   0.043116
 C 0.171 0.2175 0.3438   -0.175886
 C 0.4029 0.1695 0.3349   -0.156354
 C 0.2009 0.0163 0.1516   0.69898
 C 0.0643 0.2799 0.3893   0.69146
 C 0.5453 0.1876 0.367   0.645913
 C 0.3687 0.0991 0.263   0.046678
 C 0.2375 0.0897 0.2305   -0.165696
 C 0.8614 0.6483 0.2283   0.027867
 C 0.6974 0.7275 0.1258   0.043117
 C 0.829 0.7175 0.1562   -0.175886
 C 0.5971 0.6695 0.1651   -0.156354
 C 0.7991 0.5163 0.3484   0.69898
 C 0.9357 0.7799 0.1107   0.691461
 C 0.4547 0.6876 0.133   0.645911
 C 0.6313 0.5991 0.237   0.046674
 C 0.7625 0.5897 0.2695   -0.165696
 C 0.8614 0.8517 0.7283   0.027869
 C 0.6974 0.7725 0.6258   0.043116
 C 0.829 0.7825 0.6562   -0.175886
 C 0.5971 0.8305 0.6651   -0.156354
 C 0.7991 0.9837 0.8484   0.69898
 C 0.9357 0.7201 0.6107   0.69146
 C 0.4547 0.8124 0.633   0.645911
 C 0.6313 0.9009 0.737   0.046678
 C 0.7625 0.9103 0.7695   -0.165696
 C 0.1386 0.3517 0.7717   0.027867
 C 0.3026 0.2725 0.8742   0.043116
 C 0.171 0.2825 0.8438   -0.175886
 C 0.4029 0.3305 0.8349   -0.156354
 C 0.2009 0.4837 0.6516   0.69898
 C 0.0643 0.2201 0.8893   0.691461
 C 0.5453 0.3124 0.867   0.64591
 C 0.3687 0.4009 0.763   0.046674
 C 0.2375 0.4103 0.7305   -0.165696
 O 0.2793 0.9289 0.1328   -0.553286
 O 0.1035 0.3602 0.4447   -0.517848
 O 0.6377 0.1615 0.3231   -0.522427
 O 0.9466 0.2467 0.3684   -0.578082
 O 0.5692 0.2319 0.4397   -0.554586
 O 0.0943 0.0499 0.1121   -0.525918
 O 0.7207 0.4289 0.3672   -0.553286
 O 0.8965 0.8602 0.0553   -0.517849
 O 0.3623 0.6615 0.1769   -0.522425
 O 0.0534 0.7467 0.1316   -0.578082
 O 0.4308 0.7319 0.0603   -0.554585
 O 0.9057 0.5499 0.3879   -0.525918
 O 0.7207 0.0711 0.8672   -0.553286
 O 0.8965 0.6398 0.5553   -0.517848
 O 0.3623 0.8385 0.6769   -0.522426
 O 0.0534 0.7533 0.6316   -0.578082
 O 0.4308 0.7681 0.5603   -0.554585
 O 0.9057 0.9501 0.8879   -0.525918
 O 0.2793 0.5711 0.6328   -0.553286
 O 0.1035 0.1398 0.9447   -0.517848
 O 0.6377 0.3385 0.8231   -0.522425
 O 0.9466 0.2533 0.8684   -0.578082
 O 0.5692 0.2681 0.9397   -0.554585
 O 0.0943 0.4501 0.6121   -0.525918
