{'_ref': 'TBD', '_srcid': 'CAKYAQ_clean', 'submitters': [{'name': 'Dalar Nazarian Jeff Camp and David Sholl', 'email': 'dalar@gatech.edu jcamp6@gatech.edu'}], '_method': 'VASP DFT with PBE;DDEC'}
data_CuH10C17NO4
_symmetry_space_group_name_H-M   'P 1'
_cell_length_a   15.25630000
_cell_length_b   16.06987232
_cell_length_c   23.59370000
_cell_angle_alpha   90.00000000
_cell_angle_beta   90.00000000
_cell_angle_gamma   118.33881671
_symmetry_Int_Tables_number   1
_chemical_formula_structural   CuH10C17NO4
_chemical_formula_sum   'Cu4 H40 C68 N4 O16'
_cell_volume   5091.16692403
_cell_formula_units_Z   4
loop_
 _symmetry_equiv_pos_site_id
 _symmetry_equiv_pos_as_xyz
  1  'x, y, z'
loop_
 _atom_site_label
 _atom_site_fract_x
 _atom_site_fract_y
 _atom_site_fract_z
 _atom_site_charge
 Cu 0.09608 0.56176 0.5   0.884509
 Cu 0.90392 0.43824 0.5   0.884507
 Cu 0.46568 0.56176 0.0   0.884529
 Cu 0.53432 0.43824 0.0   0.884526
 H 0.9036 0.248 0.6301   0.109653
 H 0.9331 0.1666 0.7027   0.12471
 H 0.2226 0.3514 0.6974   0.125405
 H 0.1932 0.4354 0.6284   0.106564
 H 0.0461 0.0808 0.6657   0.119883
 H 0.0964 0.752 0.6301   0.109654
 H 0.0669 0.8334 0.7027   0.12471
 H 0.7774 0.6486 0.6974   0.125406
 H 0.8068 0.5646 0.6284   0.106564
 H 0.9539 0.9192 0.6657   0.119885
 H 0.3444 0.248 0.8699   0.109655
 H 0.2335 0.1666 0.7973   0.124736
 H 0.1288 0.3514 0.8026   0.125405
 H 0.2422 0.4354 0.8716   0.106557
 H 0.0347 0.0808 0.8343   0.119879
 H 0.6556 0.752 0.8699   0.109655
 H 0.7665 0.8334 0.7973   0.124736
 H 0.8712 0.6486 0.8026   0.125406
 H 0.7578 0.5646 0.8716   0.106557
 H 0.9653 0.9192 0.8343   0.11988
 H 0.0964 0.752 0.3699   0.109653
 H 0.0669 0.8334 0.2973   0.12471
 H 0.7774 0.6486 0.3026   0.125405
 H 0.8068 0.5646 0.3716   0.106563
 H 0.9539 0.9192 0.3343   0.119886
 H 0.9036 0.248 0.3699   0.109653
 H 0.9331 0.1666 0.2973   0.12471
 H 0.2226 0.3514 0.3026   0.125406
 H 0.1932 0.4354 0.3716   0.106564
 H 0.0461 0.0808 0.3343   0.119888
 H 0.6556 0.752 0.1301   0.109654
 H 0.7665 0.8334 0.2027   0.124736
 H 0.8712 0.6486 0.1974   0.125405
 H 0.7578 0.5646 0.1284   0.106557
 H 0.9653 0.9192 0.1657   0.119881
 H 0.3444 0.248 0.1301   0.109655
 H 0.2335 0.1666 0.2027   0.124736
 H 0.1288 0.3514 0.1974   0.125406
 H 0.2422 0.4354 0.1284   0.106557
 H 0.0347 0.0808 0.1657   0.119883
 C 0.02836 0.4052 0.57599   0.685251
 C 0.04603 0.35056 0.62155   -0.16306
 C 0.96792 0.26948 0.64382   -0.008435
 C 0.98593 0.21996 0.68702   -0.212757
 C 0.08184 0.24964 0.70657   0.177251
 C 0.15805 0.33022 0.68426   -0.206926
 C 0.14043 0.38036 0.64261   -0.002333
 C 0.02624 0.04878 0.70005   -0.154008
 C 0.97164 0.5948 0.57599   0.685251
 C 0.95397 0.64944 0.62155   -0.163059
 C 0.03208 0.73052 0.64382   -0.008434
 C 0.01407 0.78004 0.68702   -0.212757
 C 0.91816 0.75036 0.70657   0.177251
 C 0.84195 0.66978 0.68426   -0.206927
 C 0.85957 0.61964 0.64261   -0.002333
 C 0.97376 0.95122 0.70005   -0.153995
 C 0.37684 0.4052 0.92401   0.685252
 C 0.30453 0.35056 0.87845   -0.16308
 C 0.30156 0.26948 0.85618   -0.008422
 C 0.23403 0.21996 0.81298   -0.212817
 C 0.1678 0.24964 0.79343   0.177298
 C 0.17217 0.33022 0.81574   -0.20695
 C 0.23993 0.38036 0.85739   -0.002327
 C 0.02254 0.04878 0.79995   -0.154007
 C 0.62316 0.5948 0.92401   0.685252
 C 0.69547 0.64944 0.87845   -0.16308
 C 0.69844 0.73052 0.85618   -0.008421
 C 0.76597 0.78004 0.81298   -0.212817
 C 0.8322 0.75036 0.79343   0.177298
 C 0.82783 0.66978 0.81574   -0.20695
 C 0.76007 0.61964 0.85739   -0.002327
 C 0.97746 0.95122 0.79995   -0.153994
 C 0.97164 0.5948 0.42401   0.68525
 C 0.95397 0.64944 0.37845   -0.163059
 C 0.03208 0.73052 0.35618   -0.008434
 C 0.01407 0.78004 0.31298   -0.212757
 C 0.91816 0.75036 0.29343   0.177251
 C 0.84195 0.66978 0.31574   -0.206926
 C 0.85957 0.61964 0.35739   -0.002334
 C 0.97376 0.95122 0.29995   -0.154009
 C 0.02836 0.4052 0.42401   0.68525
 C 0.04603 0.35056 0.37845   -0.163059
 C 0.96792 0.26948 0.35618   -0.008433
 C 0.98593 0.21996 0.31298   -0.212757
 C 0.08184 0.24964 0.29343   0.177251
 C 0.15805 0.33022 0.31574   -0.206927
 C 0.14043 0.38036 0.35739   -0.002333
 C 0.02624 0.04878 0.29995   -0.153996
 C 0.62316 0.5948 0.07599   0.685251
 C 0.69547 0.64944 0.12155   -0.16308
 C 0.69844 0.73052 0.14382   -0.008421
 C 0.76597 0.78004 0.18702   -0.212817
 C 0.8322 0.75036 0.20657   0.177298
 C 0.82783 0.66978 0.18426   -0.20695
 C 0.76007 0.61964 0.14261   -0.002328
 C 0.97746 0.95122 0.20005   -0.154008
 C 0.37684 0.4052 0.07599   0.685251
 C 0.30453 0.35056 0.12155   -0.16308
 C 0.30156 0.26948 0.14382   -0.00842
 C 0.23403 0.21996 0.18702   -0.212818
 C 0.1678 0.24964 0.20657   0.177298
 C 0.17217 0.33022 0.18426   -0.20695
 C 0.23993 0.38036 0.14261   -0.002327
 C 0.02254 0.04878 0.20005   -0.153995
 C 0.04979 0.09958 0.75   0.135
 C 0.95021 0.90042 0.75   0.134996
 C 0.95021 0.90042 0.25   0.135
 C 0.04979 0.09958 0.25   0.134996
 N 0.09965 0.1993 0.75   -0.119247
 N 0.90035 0.8007 0.75   -0.119247
 N 0.90035 0.8007 0.25   -0.119248
 N 0.09965 0.1993 0.25   -0.119247
 O 0.10197 0.47802 0.55836   -0.574265
 O 0.94007 0.3728 0.55837   -0.577064
 O 0.89803 0.52198 0.55836   -0.574264
 O 0.05993 0.6272 0.55837   -0.577064
 O 0.37605 0.47802 0.94164   -0.574268
 O 0.43273 0.3728 0.94163   -0.577065
 O 0.62395 0.52198 0.94164   -0.574268
 O 0.56727 0.6272 0.94163   -0.577066
 O 0.89803 0.52198 0.44164   -0.574264
 O 0.05993 0.6272 0.44163   -0.577064
 O 0.10197 0.47802 0.44164   -0.574265
 O 0.94007 0.3728 0.44163   -0.577064
 O 0.62395 0.52198 0.05836   -0.574268
 O 0.56727 0.6272 0.05837   -0.577066
 O 0.37605 0.47802 0.05836   -0.574268
 O 0.43273 0.3728 0.05837   -0.577065
