{'_ref': 'TBD', '_srcid': 'CAKYAQ_clean', 'submitters': [{'name': 'Dalar Nazarian Jeff Camp and David Sholl', 'email': 'dalar@gatech.edu jcamp6@gatech.edu'}], '_method': 'VASP DFT with PBE;DDEC'}
data_Zn3H18C30(NO)8
_symmetry_space_group_name_H-M   'P 1'
_cell_length_a   11.55800009
_cell_length_b   11.61700011
_cell_length_c   11.84100000
_cell_angle_alpha   64.11000246
_cell_angle_beta   81.05699949
_cell_angle_gamma   72.68999987
_symmetry_Int_Tables_number   1
_chemical_formula_structural   Zn3H18C30(NO)8
_chemical_formula_sum   'Zn3 H18 C30 N8 O8'
_cell_volume   1364.92858677
_cell_formula_units_Z   1
loop_
 _symmetry_equiv_pos_site_id
 _symmetry_equiv_pos_as_xyz
  1  'x, y, z'
loop_
 _atom_site_label
 _atom_site_fract_x
 _atom_site_fract_y
 _atom_site_fract_z
 _atom_site_charge
 Zn 0.0 0.0 0.5   0.930757
 Zn 0.0 0.0 0.0   0.931769
 Zn 0.0 0.5 0.5   0.76401
 H 0.781 0.000599999999999 0.6885   0.095171
 H 0.6398 0.3988 0.368   0.113553
 H 0.832 0.2767 0.3649   0.096846
 H 0.5843 0.1141 0.6993   0.12656
 H 0.4445 0.4528 0.3431   0.130627
 H 0.4164 0.2646 0.7165   0.126626
 H 0.9585 0.3339 0.8173   0.077984
 H 0.2135 0.3624 0.7038   0.081479
 H 0.2397 0.5381 0.3415   0.072444
 H 0.219 0.9994 0.3115   0.09517
 H 0.3602 0.6012 0.632   0.113553
 H 0.168 0.7233 0.6351   0.096845
 H 0.4157 0.8859 0.3007   0.126558
 H 0.5555 0.5472 0.6569   0.130628
 H 0.5836 0.7354 0.2835   0.126625
 H 0.0415 0.6661 0.1827   0.077985
 H 0.7865 0.6376 0.2962   0.081478
 H 0.7603 0.4619 0.6585   0.072445
 C 0.9608 0.0326 0.2333   0.6627
 C 0.02 0.1121 0.7309   -0.039917
 C 0.7512 0.0813 0.6221   0.175778
 C 0.4559 0.3407 0.5308   0.097577
 C 0.5855 0.2718 0.5326   0.085081
 C 0.6655 0.3167 0.4344   -0.196792
 C 0.7812 0.243 0.4332   0.186149
 C 0.6329 0.1495 0.6295   -0.207266
 C 0.3991 0.4291 0.418   -0.203377
 C 0.3826 0.3189 0.6382   -0.210152
 C 0.9784 0.281 0.7731   0.285276
 C 0.0229 0.2219 0.6214   -0.02581
 C 0.0515 0.2461 0.4861   0.643828
 C 0.2603 0.3772 0.6299   0.172898
 C 0.2759 0.4808 0.418   0.185273
 C 0.0392 0.9674 0.7667   0.662701
 C 0.98 0.8879 0.2691   -0.039915
 C 0.2488 0.9187 0.3779   0.175778
 C 0.5441 0.6593 0.4692   0.097577
 C 0.4145 0.7282 0.4674   0.085081
 C 0.3345 0.6833 0.5656   -0.196793
 C 0.2188 0.757 0.5668   0.186149
 C 0.3671 0.8505 0.3705   -0.207266
 C 0.6009 0.5709 0.582   -0.203377
 C 0.6174 0.6811 0.3618   -0.210151
 C 0.0216 0.719 0.2269   0.285276
 C 0.9771 0.7781 0.3786   -0.02581
 C 0.9485 0.7539 0.5139   0.643828
 C 0.7397 0.6228 0.3701   0.172898
 C 0.7241 0.5192 0.582   0.185272
 N 0.9913 0.1529 0.8283   -0.459364
 N 0.8255 0.1254 0.5241   -0.312384
 N 0.9957 0.3296 0.65   -0.371731
 N 0.2055 0.4537 0.5211   -0.315134
 N 0.0087 0.8471 0.1717   -0.459364
 N 0.1745 0.8746 0.4759   -0.312384
 N 0.0043 0.6704 0.35   -0.371731
 N 0.7945 0.5463 0.4789   -0.315134
 O 0.9607 0.0776 0.3103   -0.56467
 O 0.9492 0.1045 0.1169   -0.632649
 O 0.0825 0.1525 0.4536   -0.604563
 O 0.0468 0.3639 0.4127   -0.585307
 O 0.0393 0.9224 0.6897   -0.56467
 O 0.0508 0.8955 0.8831   -0.632649
 O 0.9175 0.8475 0.5464   -0.604563
 O 0.9532 0.6361 0.5873   -0.585307
