{'_ref': 'TBD', '_srcid': 'CAKYAQ_clean', 'submitters': [{'name': 'Dalar Nazarian Jeff Camp and David Sholl', 'email': 'dalar@gatech.edu jcamp6@gatech.edu'}], '_method': 'VASP DFT with PBE;DDEC'}
data_TiH12(C6O)3
_symmetry_space_group_name_H-M   'P 1'
_cell_length_a   10.13700000
_cell_length_b   15.74500028
_cell_length_c   15.98800000
_cell_angle_alpha   90.00000000
_cell_angle_beta   90.00000000
_cell_angle_gamma   107.76000152
_symmetry_Int_Tables_number   1
_chemical_formula_structural   TiH12(C6O)3
_chemical_formula_sum   'Ti4 H48 C72 O12'
_cell_volume   2430.18567047
_cell_formula_units_Z   4
loop_
 _symmetry_equiv_pos_site_id
 _symmetry_equiv_pos_as_xyz
  1  'x, y, z'
loop_
 _atom_site_label
 _atom_site_fract_x
 _atom_site_fract_y
 _atom_site_fract_z
 _atom_site_charge
 Ti 0.8673 0.342 0.67509   1.45099
 Ti 0.6316 0.1573 0.59892   1.459727
 Ti 0.1327 0.658 0.17509   1.45099
 Ti 0.3684 0.8427 0.09892   1.459727
 H 0.9541 0.1087 0.6232   0.138352
 H 0.0477 0.0176 0.7031   0.090628
 H 0.0533 0.9022 0.7758   0.114557
 H 0.1701 0.822 0.8595   0.120889
 H 0.2125 0.9924 0.0464   0.130464
 H 0.1011 0.0759 0.9672   0.102737
 H 0.9121 0.1001 0.9119   0.081753
 H 0.7985 0.1807 0.837   0.141769
 H 0.0718 0.5344 0.7578   0.125124
 H 0.2262 0.6743 0.7545   0.082466
 H 0.394 0.7855 0.745   0.094641
 H 0.5532 0.9132 0.7404   0.106438
 H 0.4377 0.9686 0.5163   0.102058
 H 0.2666 0.8321 0.514   0.103623
 H 0.0969 0.719 0.5323   0.08162
 H 0.9516 0.5714 0.5184   0.147698
 H 0.2772 0.5016 0.228   0.133264
 H 0.3795 0.4173 0.3061   0.098266
 H 0.4273 0.4687 0.5721   0.108135
 H 0.548 0.391 0.6502   0.12233
 H 0.6996 0.3172 0.4403   0.12424
 H 0.5864 0.4005 0.3555   0.108244
 H 0.4386 0.5951 0.4926   0.08768
 H 0.3415 0.6833 0.4177   0.130708
 H 0.0459 0.8913 0.1232   0.138352
 H 0.9523 0.9824 0.2031   0.090629
 H 0.9467 0.0978 0.2758   0.114556
 H 0.8299 0.178 0.3595   0.12089
 H 0.7875 0.0076 0.5464   0.130464
 H 0.8989 0.9241 0.4672   0.102735
 H 0.0879 0.8999 0.4119   0.081754
 H 0.2015 0.8193 0.337   0.141771
 H 0.9282 0.4656 0.2578   0.125124
 H 0.7738 0.3257 0.2545   0.082468
 H 0.606 0.2145 0.245   0.094641
 H 0.4468 0.0868 0.2404   0.106437
 H 0.5623 0.0314 0.0163   0.102058
 H 0.7334 0.1679 0.014   0.103625
 H 0.9031 0.281 0.0323   0.081621
 H 0.0484 0.4286 0.0184   0.147698
 H 0.7228 0.4984 0.728   0.133264
 H 0.6205 0.5827 0.8061   0.098264
 H 0.5727 0.5313 0.0721   0.108135
 H 0.452 0.609 0.1502   0.12233
 H 0.3004 0.6828 0.9403   0.124243
 H 0.4136 0.5995 0.8555   0.108245
 H 0.5614 0.4049 0.9926   0.087678
 H 0.6585 0.3167 0.9177   0.130709
 C 0.8694 0.1548 0.7247   0.306375
 C 0.9441 0.1061 0.6823   -0.215655
 C 0.0024 0.0542 0.7308   -0.076172
 C 0.9987 0.0525 0.8168   0.010089
 C 0.0707 0.9988 0.8647   0.012347
 C 0.0864 0.9222 0.8301   -0.101373
 C 0.1562 0.8745 0.8818   -0.234289
 C 0.2014 0.8983 0.9567   0.384239
 C 0.1815 0.9743 0.9912   -0.234711
 C 0.1153 0.0239 0.9438   -0.089995
 C 0.9202 0.1012 0.8526   -0.066509
 C 0.8538 0.1504 0.8092   -0.243226
 C 0.9877 0.5368 0.638   0.369914
 C 0.0785 0.5702 0.7093   -0.305874
 C 0.1728 0.653 0.7058   -0.031259
 C 0.1958 0.7063 0.6387   -0.019604
 C 0.3015 0.7923 0.6364   0.01475
 C 0.3966 0.8224 0.6976   -0.07224
 C 0.4913 0.8992 0.6943   -0.195609
 C 0.5151 0.9662 0.6299   0.319405
 C 0.427 0.9325 0.5649   -0.256837
 C 0.3225 0.85 0.5624   -0.104654
 C 0.0987 0.6773 0.5749   -0.054673
 C 0.003 0.5911 0.5682   -0.259937
 C 0.2987 0.603 0.3114   0.364458
 C 0.3129 0.5224 0.2817   -0.257898
 C 0.3763 0.4729 0.3275   -0.068831
 C 0.4385 0.5029 0.4074   -0.019503
 C 0.506 0.449 0.4563   0.029778
 C 0.4865 0.4409 0.5448   -0.0973
 C 0.5551 0.3918 0.591   -0.213667
 C 0.6339 0.3439 0.5522   0.324755
 C 0.6454 0.349 0.4671   -0.252364
 C 0.5795 0.4003 0.4148   -0.106634
 C 0.4115 0.5779 0.4366   -0.065608
 C 0.3501 0.6301 0.3937   -0.241581
 C 0.1306 0.8452 0.2247   0.306375
 C 0.0559 0.8939 0.1823   -0.215655
 C 0.9976 0.9458 0.2308   -0.076172
 C 0.0013 0.9475 0.3168   0.010089
 C 0.9293 0.0012 0.3647   0.012346
 C 0.9136 0.0778 0.3301   -0.101373
 C 0.8438 0.1255 0.3818   -0.23429
 C 0.7986 0.1017 0.4567   0.38424
 C 0.8185 0.0257 0.4912   -0.234711
 C 0.8847 0.9761 0.4438   -0.089996
 C 0.0798 0.8988 0.3526   -0.066509
 C 0.1462 0.8496 0.3092   -0.243227
 C 0.0123 0.4632 0.138   0.369914
 C 0.9215 0.4298 0.2093   -0.305874
 C 0.8272 0.347 0.2058   -0.031259
 C 0.8042 0.2937 0.1387   -0.019604
 C 0.6985 0.2077 0.1364   0.014751
 C 0.6034 0.1776 0.1976   -0.07224
 C 0.5087 0.1008 0.1943   -0.195609
 C 0.4849 0.0338 0.1299   0.319404
 C 0.573 0.0675 0.0649   -0.256836
 C 0.6775 0.15 0.0624   -0.104655
 C 0.9013 0.3227 0.0749   -0.054673
 C 0.997 0.4089 0.0682   -0.259937
 C 0.7013 0.397 0.8114   0.364458
 C 0.6871 0.4776 0.7817   -0.257898
 C 0.6237 0.5271 0.8275   -0.068831
 C 0.5615 0.4971 0.9074   -0.019504
 C 0.494 0.551 0.9563   0.029778
 C 0.5135 0.5591 0.0448   -0.0973
 C 0.4449 0.6082 0.091   -0.213667
 C 0.3661 0.6561 0.0522   0.324756
 C 0.3546 0.651 0.9671   -0.252365
 C 0.4205 0.5997 0.9148   -0.106635
 C 0.5885 0.4221 0.9366   -0.065608
 C 0.6499 0.3699 0.8937   -0.241582
 O 0.8046 0.205 0.6749   -0.736009
 O 0.2533 0.8442 0.006   -0.633865
 O 0.8961 0.4592 0.6383   -0.59129
 O 0.6109 0.045 0.6322   -0.565304
 O 0.2429 0.6564 0.2678   -0.603695
 O 0.6939 0.2943 0.5962   -0.708348
 O 0.1954 0.795 0.1749   -0.736009
 O 0.7467 0.1558 0.506   -0.633865
 O 0.1039 0.5408 0.1383   -0.59129
 O 0.3891 0.955 0.1322   -0.565304
 O 0.7571 0.3436 0.7678   -0.603695
 O 0.3061 0.7057 0.0962   -0.708348
