{'_ref': 'TBD', '_srcid': 'CAKYAQ_clean', 'submitters': [{'name': 'Dalar Nazarian Jeff Camp and David Sholl', 'email': 'dalar@gatech.edu jcamp6@gatech.edu'}], '_method': 'VASP DFT with PBE;DDEC'}
data_ZnH3C5N4
_symmetry_space_group_name_H-M   'P 1'
_cell_length_a   9.56999991
_cell_length_b   11.64890002
_cell_length_c   11.64890000
_cell_angle_alpha   80.28599774
_cell_angle_beta   65.74679805
_cell_angle_gamma   65.74689992
_symmetry_Int_Tables_number   1
_chemical_formula_structural   ZnH3C5N4
_chemical_formula_sum   'Zn4 H12 C20 N16'
_cell_volume   1079.50153927
_cell_formula_units_Z   4
loop_
 _symmetry_equiv_pos_site_id
 _symmetry_equiv_pos_as_xyz
  1  'x, y, z'
loop_
 _atom_site_label
 _atom_site_fract_x
 _atom_site_fract_y
 _atom_site_fract_z
 _atom_site_charge
 Zn 0.30292 0.47529 0.83255   0.209443
 Zn 0.61076 0.52471 0.16745   0.210147
 Zn 0.86453 0.83255 0.52471   0.209533
 Zn 0.22179 0.16745 0.47529   0.209813
 H 0.9976 0.4339 0.0505   0.051226
 H 0.5919 0.8202 0.7692   0.064566
 H 0.0781 0.6637 0.6593   0.068974
 H 0.482 0.5661 0.9495   0.049867
 H 0.1813 0.1798 0.2308   0.064374
 H 0.4011 0.3363 0.3407   0.068104
 H 0.9519 0.0505 0.5661   0.051041
 H 0.6389 0.7692 0.1798   0.063835
 H 0.2626 0.6593 0.3363   0.068655
 H 0.5685 0.9495 0.4339   0.050028
 H 0.5879 0.2308 0.8202   0.063127
 H 0.2582 0.3407 0.6637   0.069126
 C 0.9581 0.4914 0.9944   0.256641
 C 0.7901 0.6267 0.9155   0.362844
 C 0.683 0.7634 0.7866   0.320211
 C 0.9732 0.6727 0.7187   0.071472
 C 0.9518 0.6073 0.8335   -0.000535
 C 0.4439 0.5086 0.0056   0.258168
 C 0.3323 0.3733 0.0845   0.364734
 C 0.233 0.2366 0.2134   0.321178
 C 0.3646 0.3273 0.2813   0.071913
 C 0.3926 0.3927 0.1665   -0.001966
 C 0.0475 0.9944 0.5086   0.255534
 C 0.2944 0.9155 0.3733   0.364198
 C 0.5304 0.7866 0.2366   0.322531
 C 0.3081 0.7187 0.3273   0.071139
 C 0.2147 0.8335 0.3927   -0.002366
 C 0.5505 0.0056 0.4914   0.25828
 C 0.5832 0.0845 0.6267   0.364694
 C 0.5536 0.2134 0.7634   0.321883
 C 0.3541 0.2813 0.6727   0.069511
 C 0.4409 0.1665 0.6073   -0.002152
 N 0.0588 0.5223 0.8843   -0.283488
 N 0.7976 0.5499 0.0161   -0.354129
 N 0.6541 0.703 0.8954   -0.462505
 N 0.8358 0.7488 0.6984   -0.30516
 N 0.4654 0.4777 0.1157   -0.282929
 N 0.3636 0.4501 0.9839   -0.354964
 N 0.2525 0.297 0.1046   -0.463061
 N 0.283 0.2512 0.3016   -0.305451
 N 0.0569 0.8843 0.4777   -0.281226
 N 0.1863 0.0161 0.4501   -0.35393
 N 0.4505 0.8954 0.297   -0.463903
 N 0.4658 0.6984 0.2512   -0.304981
 N 0.4189 0.1157 0.5223   -0.282597
 N 0.6525 0.9839 0.5499   -0.355334
 N 0.6429 0.1046 0.703   -0.463647
 N 0.4154 0.3016 0.7488   -0.302465
