{'_ref': 'TBD', '_srcid': 'CAKYAQ_clean', 'submitters': [{'name': 'Dalar Nazarian Jeff Camp and David Sholl', 'email': 'dalar@gatech.edu jcamp6@gatech.edu'}], '_method': 'VASP DFT with PBE;DDEC'}
data_GdH6C21(NO3)6
_symmetry_space_group_name_H-M   'P 1'
_cell_length_a   13.35600043
_cell_length_b   19.44130039
_cell_length_c   19.44130000
_cell_angle_alpha   102.15799886
_cell_angle_beta   93.84740052
_cell_angle_gamma   93.84740042
_symmetry_Int_Tables_number   1
_chemical_formula_structural   GdH6C21(NO3)6
_chemical_formula_sum   'Gd4 H24 C84 N24 O72'
_cell_volume   4906.6366096
_cell_formula_units_Z   4
loop_
 _symmetry_equiv_pos_site_id
 _symmetry_equiv_pos_as_xyz
  1  'x, y, z'
loop_
 _atom_site_label
 _atom_site_fract_x
 _atom_site_fract_y
 _atom_site_fract_z
 _atom_site_charge
 Gd 0.35247 0.98479 0.46126   2.158754
 Gd 0.14753 0.53874 0.01521   2.158754
 Gd 0.64753 0.01521 0.53874   2.158754
 Gd 0.85247 0.46126 0.98479   2.158754
 H 0.2959 0.8307 0.5981   0.107819
 H 0.5701 0.8836 0.6964   0.115115
 H 0.3402 0.5734 0.8118   0.123761
 H 0.2847 0.7495 0.9437   0.136159
 H 0.3223 0.1466 0.5698   0.115788
 H 0.5064 0.1633 0.7431   0.136292
 H 0.2041 0.4019 0.1693   0.107819
 H 0.9299 0.3036 0.1164   0.115115
 H 0.1598 0.1882 0.4266   0.123761
 H 0.2153 0.0563 0.2505   0.136159
 H 0.1777 0.4302 0.8534   0.115788
 H 0.9936 0.2569 0.8367   0.136292
 H 0.7041 0.1693 0.4019   0.107819
 H 0.4299 0.1164 0.3036   0.115115
 H 0.6598 0.4266 0.1882   0.123761
 H 0.7153 0.2505 0.0563   0.136159
 H 0.6777 0.8534 0.4302   0.115788
 H 0.4936 0.8367 0.2569   0.136293
 H 0.7959 0.5981 0.8307   0.107819
 H 0.0701 0.6964 0.8836   0.115115
 H 0.8402 0.8118 0.5734   0.123761
 H 0.7847 0.9437 0.7495   0.136159
 H 0.8223 0.5698 0.1466   0.115788
 H 0.0064 0.7431 0.1633   0.136293
 C 0.4581 0.9088 0.5852   0.798148
 C 0.4375 0.8619 0.6367   -0.160381
 C 0.3444 0.8264 0.6332   0.023029
 C 0.3204 0.7855 0.6789   -0.045138
 C 0.3886 0.7768 0.7328   0.067737
 C 0.4804 0.8146 0.7372   -0.043016
 C 0.5074 0.8583 0.6907   0.038075
 C 0.3648 0.7335 0.7871   0.029531
 C 0.3678 0.6609 0.7757   -0.038634
 C 0.3375 0.6221 0.8221   0.010355
 C 0.303 0.6555 0.8841   -0.099452
 C 0.3038 0.7266 0.9002   0.001994
 C 0.3332 0.7656 0.8518   -0.034522
 C 0.2626 0.612 0.9344   0.681603
 C 0.4954 0.0989 0.6085   0.769497
 C 0.4205 0.1418 0.6506   -0.131276
 C 0.3357 0.1608 0.6186   0.000197
 C 0.2694 0.2013 0.6583   -0.043772
 C 0.2848 0.2231 0.7307   0.032674
 C 0.376 0.2079 0.7623   -0.031179
 C 0.4442 0.1698 0.722   0.020586
 C 0.0419 0.4148 0.0912   0.798148
 C 0.0625 0.3633 0.1381   -0.160381
 C 0.1556 0.3668 0.1736   0.023029
 C 0.1796 0.3211 0.2145   -0.045138
 C 0.1114 0.2672 0.2232   0.067737
 C 0.0196 0.2628 0.1854   -0.043016
 C 0.9926 0.3093 0.1417   0.038075
 C 0.1352 0.2129 0.2665   0.029531
 C 0.1322 0.2243 0.3391   -0.038634
 C 0.1625 0.1779 0.3779   0.010355
 C 0.197 0.1159 0.3445   -0.099452
 C 0.1962 0.0998 0.2734   0.001994
 C 0.1668 0.1482 0.2344   -0.034522
 C 0.2374 0.0656 0.388   0.681603
 C 0.0046 0.3915 0.9011   0.769497
 C 0.0795 0.3494 0.8582   -0.131276
 C 0.1643 0.3814 0.8392   0.000197
 C 0.2306 0.3417 0.7987   -0.043772
 C 0.2152 0.2693 0.7769   0.032674
 C 0.124 0.2377 0.7921   -0.031179
 C 0.0558 0.278 0.8302   0.020586
 C 0.5419 0.0912 0.4148   0.798148
 C 0.5625 0.1381 0.3633   -0.160381
 C 0.6556 0.1736 0.3668   0.023029
 C 0.6796 0.2145 0.3211   -0.045138
 C 0.6114 0.2232 0.2672   0.067737
 C 0.5196 0.1854 0.2628   -0.043016
 C 0.4926 0.1417 0.3093   0.038074
 C 0.6352 0.2665 0.2129   0.029531
 C 0.6322 0.3391 0.2243   -0.038634
 C 0.6625 0.3779 0.1779   0.010355
 C 0.697 0.3445 0.1159   -0.099452
 C 0.6962 0.2734 0.0998   0.001994
 C 0.6668 0.2344 0.1482   -0.034522
 C 0.7374 0.388 0.0656   0.681603
 C 0.5046 0.9011 0.3915   0.769497
 C 0.5795 0.8582 0.3494   -0.131276
 C 0.6643 0.8392 0.3814   0.000197
 C 0.7306 0.7987 0.3417   -0.043772
 C 0.7152 0.7769 0.2693   0.032674
 C 0.624 0.7921 0.2377   -0.031179
 C 0.5558 0.8302 0.278   0.020586
 C 0.9581 0.5852 0.9088   0.798148
 C 0.9375 0.6367 0.8619   -0.160381
 C 0.8444 0.6332 0.8264   0.023029
 C 0.8204 0.6789 0.7855   -0.045138
 C 0.8886 0.7328 0.7768   0.067737
 C 0.9804 0.7372 0.8146   -0.043016
 C 0.0074 0.6907 0.8583   0.038074
 C 0.8648 0.7871 0.7335   0.029531
 C 0.8678 0.7757 0.6609   -0.038634
 C 0.8375 0.8221 0.6221   0.010355
 C 0.803 0.8841 0.6555   -0.099452
 C 0.8038 0.9002 0.7266   0.001994
 C 0.8332 0.8518 0.7656   -0.034522
 C 0.7626 0.9344 0.612   0.681603
 C 0.9954 0.6085 0.0989   0.769497
 C 0.9205 0.6506 0.1418   -0.131276
 C 0.8357 0.6186 0.1608   0.000197
 C 0.7694 0.6583 0.2013   -0.043772
 C 0.7848 0.7307 0.2231   0.032674
 C 0.876 0.7623 0.2079   -0.031179
 C 0.9442 0.722 0.1698   0.020586
 N 0.2205 0.7521 0.6719   0.658064
 N 0.5573 0.8145 0.7959   0.593295
 N 0.4071 0.6228 0.71   0.628488
 N 0.3284 0.8414 0.8704   0.584197
 N 0.1837 0.2198 0.6226   0.646519
 N 0.3997 0.2289 0.8369   0.628159
 N 0.2795 0.3281 0.2479   0.658064
 N 0.9427 0.2041 0.1855   0.593295
 N 0.0929 0.29 0.3772   0.628488
 N 0.1716 0.1296 0.1586   0.584197
 N 0.3163 0.3774 0.7802   0.646519
 N 0.1003 0.1631 0.7711   0.628159
 N 0.7795 0.2479 0.3281   0.658064
 N 0.4427 0.1855 0.2041   0.593295
 N 0.5929 0.3772 0.29   0.628489
 N 0.6716 0.1586 0.1296   0.584197
 N 0.8163 0.7802 0.3774   0.646519
 N 0.6003 0.7711 0.1631   0.628158
 N 0.7205 0.6719 0.7521   0.658064
 N 0.0573 0.7959 0.8145   0.593295
 N 0.9071 0.71 0.6228   0.628489
 N 0.8284 0.8704 0.8414   0.584197
 N 0.6837 0.6226 0.2198   0.646519
 N 0.8997 0.8369 0.2289   0.628158
 O 0.3916 0.9103 0.5389   -0.745185
 O 0.5445 0.9432 0.5976   -0.681049
 O 0.2388 0.5475 0.9097   -0.698639
 O 0.2488 0.6418 0.9956   -0.656747
 O 0.1571 0.768 0.6338   -0.373292
 O 0.1962 0.7111 0.7063   -0.371971
 O 0.6192 0.8706 0.8142   -0.413438
 O 0.5554 0.7746 0.8306   -0.269348
 O 0.4376 0.6555 0.6689   -0.364475
 O 0.4204 0.5629 0.7069   -0.341775
 O 0.3145 0.8744 0.8242   -0.347647
 O 0.3317 0.8702 0.9342   -0.330995
 O 0.4597 0.0597 0.5509   -0.846031
 O 0.5822 0.1025 0.6325   -0.608543
 O 0.11 0.2362 0.649   -0.364899
 O 0.159 0.1991 0.5609   -0.364875
 O 0.3382 0.2393 0.8779   -0.333544
 O 0.4899 0.2394 0.8564   -0.366014
 O 0.1084 0.4611 0.0897   -0.745185
 O 0.9555 0.4024 0.0568   -0.681049
 O 0.2612 0.0903 0.4525   -0.698639
 O 0.2512 0.0044 0.3582   -0.656747
 O 0.3429 0.3662 0.232   -0.373292
 O 0.3038 0.2937 0.2889   -0.371971
 O 0.8808 0.1858 0.1294   -0.413438
 O 0.9446 0.1694 0.2254   -0.269348
 O 0.0624 0.3311 0.3445   -0.364475
 O 0.0796 0.2931 0.4371   -0.341775
 O 0.1855 0.1758 0.1256   -0.347646
 O 0.1683 0.0658 0.1298   -0.330995
 O 0.0403 0.4491 0.9403   -0.846031
 O 0.9178 0.3675 0.8975   -0.608543
 O 0.39 0.351 0.7638   -0.3649
 O 0.341 0.4391 0.8009   -0.364875
 O 0.1618 0.1221 0.7607   -0.333544
 O 0.0101 0.1436 0.7606   -0.366014
 O 0.6084 0.0897 0.4611   -0.745185
 O 0.4555 0.0568 0.4024   -0.681049
 O 0.7612 0.4525 0.0903   -0.698639
 O 0.7512 0.3582 0.0044   -0.656747
 O 0.8429 0.232 0.3662   -0.373293
 O 0.8038 0.2889 0.2937   -0.371971
 O 0.3808 0.1294 0.1858   -0.413438
 O 0.4446 0.2254 0.1694   -0.269347
 O 0.5624 0.3445 0.3311   -0.364475
 O 0.5796 0.4371 0.2931   -0.341776
 O 0.6855 0.1256 0.1758   -0.347646
 O 0.6683 0.1298 0.0658   -0.330995
 O 0.5403 0.9403 0.4491   -0.846031
 O 0.4178 0.8975 0.3675   -0.608543
 O 0.89 0.7638 0.351   -0.364899
 O 0.841 0.8009 0.4391   -0.364875
 O 0.6618 0.7607 0.1221   -0.333544
 O 0.5101 0.7606 0.1436   -0.366014
 O 0.8916 0.5389 0.9103   -0.745185
 O 0.0445 0.5976 0.9432   -0.681049
 O 0.7388 0.9097 0.5475   -0.698639
 O 0.7488 0.9956 0.6418   -0.656747
 O 0.6571 0.6338 0.768   -0.373293
 O 0.6962 0.7063 0.7111   -0.371971
 O 0.1192 0.8142 0.8706   -0.413438
 O 0.0554 0.8306 0.7746   -0.269347
 O 0.9376 0.6689 0.6555   -0.364475
 O 0.9204 0.7069 0.5629   -0.341777
 O 0.8145 0.8242 0.8744   -0.347646
 O 0.8317 0.9342 0.8702   -0.330995
 O 0.9597 0.5509 0.0597   -0.846031
 O 0.0822 0.6325 0.1025   -0.608543
 O 0.61 0.649 0.2362   -0.3649
 O 0.659 0.5609 0.1991   -0.364875
 O 0.8382 0.8779 0.2393   -0.333544
 O 0.9899 0.8564 0.2394   -0.366014
