{'_ref': 'TBD', '_srcid': 'CAKYAQ_clean', 'submitters': [{'name': 'Dalar Nazarian Jeff Camp and David Sholl', 'email': 'dalar@gatech.edu jcamp6@gatech.edu'}], '_method': 'VASP DFT with PBE;DDEC'}
data_GdH6C21(NO3)6
_symmetry_space_group_name_H-M   'P 1'
_cell_length_a   15.30900005
_cell_length_b   18.77530022
_cell_length_c   18.77530000
_cell_angle_alpha   107.98399943
_cell_angle_beta   95.82209824
_cell_angle_gamma   95.82210002
_symmetry_Int_Tables_number   1
_chemical_formula_structural   GdH6C21(NO3)6
_chemical_formula_sum   'Gd4 H24 C84 N24 O72'
_cell_volume   5055.95404658
_cell_formula_units_Z   4
loop_
 _symmetry_equiv_pos_site_id
 _symmetry_equiv_pos_as_xyz
  1  'x, y, z'
loop_
 _atom_site_label
 _atom_site_fract_x
 _atom_site_fract_y
 _atom_site_fract_z
 _atom_site_charge
 Gd 0.61739 0.56668 0.01534   2.158852
 Gd 0.88261 0.98466 0.43332   2.158852
 Gd 0.38261 0.43332 0.98466   2.158852
 Gd 0.11739 0.01534 0.56668   2.158852
 H 0.5085 0.3016 0.1106   0.124582
 H 0.7412 0.4382 0.1588   0.122732
 H 0.7558 0.2047 0.4019   0.132318
 H 0.8136 0.0683 0.2051   0.133622
 H 0.4705 0.7547 0.1837   0.124085
 H 0.3417 0.5516 0.1566   0.1156
 H 0.9915 0.8894 0.6984   0.124582
 H 0.7588 0.8412 0.5618   0.122732
 H 0.7442 0.5981 0.7953   0.132318
 H 0.6864 0.7949 0.9317   0.133623
 H 0.0295 0.8163 0.2453   0.124085
 H 0.1583 0.8434 0.4484   0.1156
 H 0.4915 0.6984 0.8894   0.124582
 H 0.2588 0.5618 0.8412   0.122732
 H 0.2442 0.7953 0.5981   0.132318
 H 0.1864 0.9317 0.7949   0.133622
 H 0.5295 0.2453 0.8163   0.124085
 H 0.6583 0.4484 0.8434   0.1156
 H 0.0085 0.1106 0.3016   0.124582
 H 0.2412 0.1588 0.4382   0.122732
 H 0.2558 0.4019 0.2047   0.132318
 H 0.3136 0.2051 0.0683   0.133623
 H 0.9705 0.1837 0.7547   0.124085
 H 0.8417 0.1566 0.5516   0.1156
 C 0.5779 0.4238 0.086   0.804639
 C 0.6206 0.3781 0.1273   -0.142063
 C 0.5683 0.3128 0.1304   -0.020058
 C 0.609 0.2657 0.1639   -0.033374
 C 0.6983 0.2791 0.1957   0.053358
 C 0.7445 0.3442 0.1922   -0.025646
 C 0.7069 0.3945 0.1589   0.005309
 C 0.7336 0.2303 0.2369   0.029717
 C 0.7299 0.2419 0.3111   -0.011131
 C 0.7579 0.193 0.3502   -0.019145
 C 0.7892 0.1259 0.3097   -0.099451
 C 0.7934 0.112 0.233   -0.014332
 C 0.7686 0.1616 0.1992   -0.007312
 C 0.818 0.0754 0.35   0.67648
 C 0.4829 0.6137 0.1115   0.772438
 C 0.4183 0.6488 0.163   -0.1258
 C 0.423 0.7247 0.1921   0.004618
 C 0.3612 0.7599 0.2335   -0.013128
 C 0.2862 0.7161 0.2455   0.005065
 C 0.2818 0.6381 0.2189   -0.017308
 C 0.3467 0.6041 0.1761   0.011868
 C 0.9221 0.914 0.5762   0.804639
 C 0.8794 0.8727 0.6219   -0.142063
 C 0.9317 0.8696 0.6872   -0.020058
 C 0.891 0.8361 0.7343   -0.033374
 C 0.8017 0.8043 0.7209   0.053358
 C 0.7555 0.8078 0.6558   -0.025646
 C 0.7931 0.8411 0.6055   0.005309
 C 0.7664 0.7631 0.7697   0.029717
 C 0.7701 0.6889 0.7581   -0.011131
 C 0.7421 0.6498 0.807   -0.019145
 C 0.7108 0.6903 0.8741   -0.099451
 C 0.7066 0.767 0.888   -0.014332
 C 0.7314 0.8008 0.8384   -0.007312
 C 0.682 0.65 0.9246   0.67648
 C 0.0171 0.8885 0.3863   0.772438
 C 0.0817 0.837 0.3512   -0.125799
 C 0.077 0.8079 0.2753   0.004618
 C 0.1388 0.7665 0.2401   -0.013128
 C 0.2138 0.7545 0.2839   0.005064
 C 0.2182 0.7811 0.3619   -0.017308
 C 0.1533 0.8239 0.3959   0.011868
 C 0.4221 0.5762 0.914   0.804639
 C 0.3794 0.6219 0.8727   -0.142063
 C 0.4317 0.6872 0.8696   -0.020058
 C 0.391 0.7343 0.8361   -0.033374
 C 0.3017 0.7209 0.8043   0.053358
 C 0.2555 0.6558 0.8078   -0.025646
 C 0.2931 0.6055 0.8411   0.005309
 C 0.2664 0.7697 0.7631   0.029717
 C 0.2701 0.7581 0.6889   -0.011131
 C 0.2421 0.807 0.6498   -0.019145
 C 0.2108 0.8741 0.6903   -0.099451
 C 0.2066 0.888 0.767   -0.014332
 C 0.2314 0.8384 0.8008   -0.007312
 C 0.182 0.9246 0.65   0.67648
 C 0.5171 0.3863 0.8885   0.772438
 C 0.5817 0.3512 0.837   -0.1258
 C 0.577 0.2753 0.8079   0.004619
 C 0.6388 0.2401 0.7665   -0.013128
 C 0.7138 0.2839 0.7545   0.005065
 C 0.7182 0.3619 0.7811   -0.017308
 C 0.6533 0.3959 0.8239   0.011868
 C 0.0779 0.086 0.4238   0.804639
 C 0.1206 0.1273 0.3781   -0.142063
 C 0.0683 0.1304 0.3128   -0.020058
 C 0.109 0.1639 0.2657   -0.033374
 C 0.1983 0.1957 0.2791   0.053358
 C 0.2445 0.1922 0.3442   -0.025646
 C 0.2069 0.1589 0.3945   0.005309
 C 0.2336 0.2369 0.2303   0.029717
 C 0.2299 0.3111 0.2419   -0.011131
 C 0.2579 0.3502 0.193   -0.019145
 C 0.2892 0.3097 0.1259   -0.099451
 C 0.2934 0.233 0.112   -0.014332
 C 0.2686 0.1992 0.1616   -0.007312
 C 0.318 0.35 0.0754   0.67648
 C 0.9829 0.1115 0.6137   0.772438
 C 0.9183 0.163 0.6488   -0.1258
 C 0.923 0.1921 0.7247   0.004619
 C 0.8612 0.2335 0.7599   -0.013128
 C 0.7862 0.2455 0.7161   0.005065
 C 0.7818 0.2189 0.6381   -0.017308
 C 0.8467 0.1761 0.6041   0.011868
 N 0.5495 0.198 0.1626   0.593642
 N 0.8379 0.3647 0.2269   0.650862
 N 0.6909 0.3078 0.3572   0.54882
 N 0.7766 0.1425 0.1181   0.611591
 N 0.3766 0.8446 0.2646   0.587233
 N 0.2053 0.6006 0.2376   0.608357
 N 0.9505 0.8374 0.802   0.593642
 N 0.6621 0.7731 0.6353   0.650862
 N 0.8091 0.6428 0.6922   0.54882
 N 0.7234 0.8819 0.8575   0.611591
 N 0.1234 0.7354 0.1554   0.587233
 N 0.2947 0.7624 0.3994   0.608356
 N 0.4505 0.802 0.8374   0.593642
 N 0.1621 0.6353 0.7731   0.650862
 N 0.3091 0.6922 0.6428   0.54882
 N 0.2234 0.8575 0.8819   0.611591
 N 0.6234 0.1554 0.7354   0.587233
 N 0.7947 0.3994 0.7624   0.608357
 N 0.0495 0.1626 0.198   0.593642
 N 0.3379 0.2269 0.3647   0.650862
 N 0.1909 0.3572 0.3078   0.54882
 N 0.2766 0.1181 0.1425   0.611591
 N 0.8766 0.2646 0.8446   0.587233
 N 0.7053 0.2376 0.6006   0.608356
 O 0.6249 0.4846 0.0912   -0.765729
 O 0.5018 0.4001 0.0525   -0.677877
 O 0.8289 0.0999 0.4227   -0.705782
 O 0.8305 0.0107 0.3129   -0.647065
 O 0.4743 0.1998 0.1648   -0.28922
 O 0.5847 0.1369 0.1437   -0.378732
 O 0.8664 0.4287 0.2439   -0.354372
 O 0.8795 0.3194 0.2404   -0.358789
 O 0.65 0.3006 0.4084   -0.297834
 O 0.7148 0.3697 0.3447   -0.359534
 O 0.7812 0.1937 0.0913   -0.373535
 O 0.7801 0.0782 0.084   -0.321468
 O 0.4618 0.5465 0.0677   -0.833124
 O 0.5533 0.6527 0.1145   -0.625475
 O 0.4449 0.8775 0.2595   -0.332407
 O 0.351 0.8739 0.3249   -0.360985
 O 0.1303 0.6102 0.2302   -0.306819
 O 0.214 0.535 0.2264   -0.358293
 O 0.8751 0.9088 0.5154   -0.765729
 O 0.9982 0.9475 0.5999   -0.677877
 O 0.6711 0.5773 0.9001   -0.705782
 O 0.6695 0.6871 0.9893   -0.647065
 O 0.0257 0.8352 0.8002   -0.28922
 O 0.9153 0.8563 0.8631   -0.378732
 O 0.6336 0.7561 0.5713   -0.354373
 O 0.6205 0.7596 0.6806   -0.358789
 O 0.85 0.5916 0.6994   -0.297835
 O 0.7852 0.6553 0.6303   -0.359536
 O 0.7188 0.9087 0.8063   -0.373535
 O 0.7199 0.916 0.9218   -0.321468
 O 0.0382 0.9323 0.4535   -0.833124
 O 0.9467 0.8855 0.3473   -0.625475
 O 0.0551 0.7405 0.1225   -0.332407
 O 0.149 0.6751 0.1261   -0.360985
 O 0.3697 0.7698 0.3898   -0.306819
 O 0.286 0.7736 0.465   -0.358293
 O 0.3751 0.5154 0.9088   -0.765729
 O 0.4982 0.5999 0.9475   -0.677877
 O 0.1711 0.9001 0.5773   -0.705782
 O 0.1695 0.9893 0.6871   -0.647065
 O 0.5257 0.8002 0.8352   -0.28922
 O 0.4153 0.8631 0.8563   -0.378732
 O 0.1336 0.5713 0.7561   -0.354373
 O 0.1205 0.6806 0.7596   -0.358789
 O 0.35 0.6994 0.5916   -0.297835
 O 0.2852 0.6303 0.6553   -0.359534
 O 0.2188 0.8063 0.9087   -0.373535
 O 0.2199 0.9218 0.916   -0.321468
 O 0.5382 0.4535 0.9323   -0.833124
 O 0.4467 0.3473 0.8855   -0.625475
 O 0.5551 0.1225 0.7405   -0.332407
 O 0.649 0.1261 0.6751   -0.360984
 O 0.8697 0.3898 0.7698   -0.306819
 O 0.786 0.465 0.7736   -0.358292
 O 0.1249 0.0912 0.4846   -0.765729
 O 0.0018 0.0525 0.4001   -0.677877
 O 0.3289 0.4227 0.0999   -0.705782
 O 0.3305 0.3129 0.0107   -0.647065
 O 0.9743 0.1648 0.1998   -0.28922
 O 0.0847 0.1437 0.1369   -0.378732
 O 0.3664 0.2439 0.4287   -0.354373
 O 0.3795 0.2404 0.3194   -0.358789
 O 0.15 0.4084 0.3006   -0.297835
 O 0.2148 0.3447 0.3697   -0.359536
 O 0.2812 0.0913 0.1937   -0.373535
 O 0.2801 0.084 0.0782   -0.321468
 O 0.9618 0.0677 0.5465   -0.833124
 O 0.0533 0.1145 0.6527   -0.625475
 O 0.9449 0.2595 0.8775   -0.332407
 O 0.851 0.3249 0.8739   -0.360985
 O 0.6303 0.2302 0.6102   -0.306819
 O 0.714 0.2264 0.535   -0.358292
