{'_ref': 'TBD', '_srcid': 'CAKYAQ_clean', 'submitters': [{'name': 'Dalar Nazarian Jeff Camp and David Sholl', 'email': 'dalar@gatech.edu jcamp6@gatech.edu'}], '_method': 'VASP DFT with PBE;DDEC'}
data_GdH6C21(NO3)6
_symmetry_space_group_name_H-M   'P 1'
_cell_length_a   13.36200021
_cell_length_b   19.48679994
_cell_length_c   19.48680000
_cell_angle_alpha   101.90100148
_cell_angle_beta   93.03940082
_cell_angle_gamma   93.03939942
_symmetry_Int_Tables_number   1
_chemical_formula_structural   GdH6C21(NO3)6
_chemical_formula_sum   'Gd4 H24 C84 N24 O72'
_cell_volume   4947.34378863
_cell_formula_units_Z   4
loop_
 _symmetry_equiv_pos_site_id
 _symmetry_equiv_pos_as_xyz
  1  'x, y, z'
loop_
 _atom_site_label
 _atom_site_fract_x
 _atom_site_fract_y
 _atom_site_fract_z
 _atom_site_charge
 Gd 0.35252 0.48746 0.96326   2.150704
 Gd 0.14748 0.03674 0.51254   2.150704
 Gd 0.64748 0.51254 0.03674   2.150704
 Gd 0.85252 0.96326 0.48746   2.150704
 H 0.569 0.386 0.197   0.113605
 H 0.2995 0.332 0.0986   0.111724
 H 0.2865 0.2482 0.4442   0.136547
 H 0.3401 0.073 0.3088   0.122482
 H 0.6733 0.3494 0.9322   0.117677
 H 0.4938 0.3374 0.7594   0.137475
 H 0.931 0.803 0.614   0.113605
 H 0.2005 0.9014 0.668   0.111724
 H 0.2135 0.5558 0.7518   0.136547
 H 0.1599 0.6912 0.927   0.122482
 H 0.8267 0.0678 0.6506   0.117677
 H 0.0062 0.2406 0.6626   0.137476
 H 0.431 0.614 0.803   0.113605
 H 0.7005 0.668 0.9014   0.111724
 H 0.7135 0.7518 0.5558   0.136547
 H 0.6599 0.927 0.6912   0.122482
 H 0.3267 0.6506 0.0678   0.117677
 H 0.5062 0.6626 0.2406   0.137475
 H 0.069 0.197 0.386   0.113605
 H 0.7995 0.0986 0.332   0.111724
 H 0.7865 0.4442 0.2482   0.136547
 H 0.8401 0.3088 0.073   0.122482
 H 0.1733 0.9322 0.3494   0.117677
 H 0.9938 0.7594 0.3374   0.137476
 C 0.46 0.4125 0.0877   0.794968
 C 0.4381 0.3646 0.1392   -0.155428
 C 0.5074 0.3604 0.192   0.037563
 C 0.4837 0.3171 0.2377   -0.064762
 C 0.3933 0.2767 0.2343   0.067273
 C 0.3217 0.288 0.1814   -0.045883
 C 0.3464 0.3287 0.1345   0.015786
 C 0.3675 0.2343 0.2877   0.029513
 C 0.3332 0.2638 0.3516   -0.030152
 C 0.3049 0.2253 0.4003   -0.003356
 C 0.304 0.1531 0.3837   -0.104256
 C 0.3396 0.1217 0.3211   0.00874
 C 0.3752 0.163 0.2758   -0.035938
 C 0.2626 0.1099 0.4333   0.685729
 C 0.506 0.4004 0.8954   0.749298
 C 0.5765 0.3554 0.8518   -0.118085
 C 0.6606 0.3355 0.8837   -0.021
 C 0.7276 0.2942 0.8434   -0.062841
 C 0.713 0.2748 0.7706   0.033232
 C 0.623 0.2918 0.7418   -0.007411
 C 0.555 0.3294 0.7806   0.003282
 C 0.04 0.9123 0.5875   0.794968
 C 0.0619 0.8608 0.6354   -0.155428
 C 0.9926 0.808 0.6396   0.037563
 C 0.0163 0.7623 0.6829   -0.064762
 C 0.1067 0.7657 0.7233   0.067273
 C 0.1783 0.8186 0.712   -0.045883
 C 0.1536 0.8655 0.6713   0.015786
 C 0.1325 0.7123 0.7657   0.029513
 C 0.1668 0.6484 0.7362   -0.030152
 C 0.1951 0.5997 0.7747   -0.003356
 C 0.196 0.6163 0.8469   -0.104256
 C 0.1604 0.6789 0.8783   0.00874
 C 0.1248 0.7242 0.837   -0.035938
 C 0.2374 0.5667 0.8901   0.685729
 C 0.994 0.1046 0.5996   0.749298
 C 0.9235 0.1482 0.6446   -0.118085
 C 0.8394 0.1163 0.6645   -0.021
 C 0.7724 0.1566 0.7058   -0.062841
 C 0.787 0.2294 0.7252   0.033231
 C 0.877 0.2582 0.7082   -0.007411
 C 0.945 0.2194 0.6706   0.003282
 C 0.54 0.5875 0.9123   0.794968
 C 0.5619 0.6354 0.8608   -0.155428
 C 0.4926 0.6396 0.808   0.037563
 C 0.5163 0.6829 0.7623   -0.064762
 C 0.6067 0.7233 0.7657   0.067273
 C 0.6783 0.712 0.8186   -0.045883
 C 0.6536 0.6713 0.8655   0.015786
 C 0.6325 0.7657 0.7123   0.029513
 C 0.6668 0.7362 0.6484   -0.030152
 C 0.6951 0.7747 0.5997   -0.003356
 C 0.696 0.8469 0.6163   -0.104257
 C 0.6604 0.8783 0.6789   0.00874
 C 0.6248 0.837 0.7242   -0.035939
 C 0.7374 0.8901 0.5667   0.685729
 C 0.494 0.5996 0.1046   0.749298
 C 0.4235 0.6446 0.1482   -0.118085
 C 0.3394 0.6645 0.1163   -0.021
 C 0.2724 0.7058 0.1566   -0.062841
 C 0.287 0.7252 0.2294   0.033232
 C 0.377 0.7082 0.2582   -0.007411
 C 0.445 0.6706 0.2194   0.003282
 C 0.96 0.0877 0.4125   0.794968
 C 0.9381 0.1392 0.3646   -0.155428
 C 0.0074 0.192 0.3604   0.037563
 C 0.9837 0.2377 0.3171   -0.064762
 C 0.8933 0.2343 0.2767   0.067273
 C 0.8217 0.1814 0.288   -0.045883
 C 0.8464 0.1345 0.3287   0.015786
 C 0.8675 0.2877 0.2343   0.029513
 C 0.8332 0.3516 0.2638   -0.030152
 C 0.8049 0.4003 0.2253   -0.003356
 C 0.804 0.3837 0.1531   -0.104257
 C 0.8396 0.3211 0.1217   0.00874
 C 0.8752 0.2758 0.163   -0.035939
 C 0.7626 0.4333 0.1099   0.685729
 C 0.006 0.8954 0.4004   0.749298
 C 0.0765 0.8518 0.3554   -0.118085
 C 0.1606 0.8837 0.3355   -0.021
 C 0.2276 0.8434 0.2942   -0.062841
 C 0.213 0.7706 0.2748   0.033231
 C 0.123 0.7418 0.2918   -0.007411
 C 0.055 0.7806 0.3294   0.003282
 N 0.5594 0.3163 0.2959   0.669964
 N 0.223 0.2528 0.1734   0.640907
 N 0.3293 0.3429 0.3755   0.582838
 N 0.4147 0.1272 0.2118   0.619432
 N 0.8169 0.2742 0.8784   0.683999
 N 0.602 0.2722 0.6628   0.607683
 N 0.9406 0.7041 0.6837   0.669964
 N 0.277 0.8266 0.7472   0.640907
 N 0.1707 0.6245 0.6571   0.582838
 N 0.0853 0.7882 0.8728   0.619432
 N 0.6831 0.1216 0.7258   0.683999
 N 0.898 0.3372 0.7278   0.607683
 N 0.4406 0.6837 0.7041   0.669964
 N 0.777 0.7472 0.8266   0.640907
 N 0.6707 0.6571 0.6245   0.582838
 N 0.5853 0.8728 0.7882   0.619432
 N 0.1831 0.7258 0.1216   0.683999
 N 0.398 0.7278 0.3372   0.607683
 N 0.0594 0.2959 0.3163   0.669964
 N 0.723 0.1734 0.2528   0.640907
 N 0.8293 0.3755 0.3429   0.582838
 N 0.9147 0.2118 0.1272   0.619432
 N 0.3169 0.8784 0.2742   0.683999
 N 0.102 0.6628 0.2722   0.607683
 O 0.3898 0.4169 0.0451   -0.75201
 O 0.5454 0.444 0.0982   -0.663479
 O 0.2508 0.1392 0.4942   -0.653483
 O 0.2361 0.0479 0.4071   -0.695287
 O 0.619 0.3657 0.3103   -0.419887
 O 0.5522 0.2852 0.3366   -0.31285
 O 0.1587 0.2737 0.1405   -0.353071
 O 0.203 0.2089 0.2071   -0.372998
 O 0.318 0.3757 0.3299   -0.341718
 O 0.335 0.3669 0.4391   -0.322307
 O 0.452 0.1574 0.1714   -0.349815
 O 0.425 0.0643 0.2047   -0.372134
 O 0.4159 0.3991 0.8701   -0.633474
 O 0.5388 0.4393 0.9521   -0.821831
 O 0.818 0.2746 0.937   -0.345004
 O 0.892 0.2718 0.8522   -0.379861
 O 0.67 0.2616 0.6236   -0.357604
 O 0.517 0.2683 0.6413   -0.324491
 O 0.1102 0.9549 0.5831   -0.75201
 O 0.9546 0.9018 0.556   -0.663479
 O 0.2492 0.5058 0.8608   -0.653483
 O 0.2639 0.5929 0.9521   -0.695287
 O 0.881 0.6897 0.6343   -0.419887
 O 0.9478 0.6634 0.7148   -0.31285
 O 0.3413 0.8595 0.7263   -0.353071
 O 0.297 0.7929 0.7911   -0.372998
 O 0.182 0.6701 0.6243   -0.341718
 O 0.165 0.5609 0.6331   -0.322307
 O 0.048 0.8286 0.8426   -0.349815
 O 0.075 0.7953 0.9357   -0.372134
 O 0.0841 0.1299 0.6009   -0.633474
 O 0.9612 0.0479 0.5607   -0.821831
 O 0.682 0.063 0.7254   -0.345004
 O 0.608 0.1478 0.7282   -0.379862
 O 0.83 0.3764 0.7384   -0.357605
 O 0.983 0.3587 0.7317   -0.324491
 O 0.6102 0.5831 0.9549   -0.75201
 O 0.4546 0.556 0.9018   -0.663479
 O 0.7492 0.8608 0.5058   -0.653483
 O 0.7639 0.9521 0.5929   -0.695287
 O 0.381 0.6343 0.6897   -0.419887
 O 0.4478 0.7148 0.6634   -0.31285
 O 0.8413 0.7263 0.8595   -0.353072
 O 0.797 0.7911 0.7929   -0.372998
 O 0.682 0.6243 0.6701   -0.341718
 O 0.665 0.6331 0.5609   -0.322307
 O 0.548 0.8426 0.8286   -0.349816
 O 0.575 0.9357 0.7953   -0.372136
 O 0.5841 0.6009 0.1299   -0.633474
 O 0.4612 0.5607 0.0479   -0.821831
 O 0.182 0.7254 0.063   -0.345004
 O 0.108 0.7282 0.1478   -0.379862
 O 0.33 0.7384 0.3764   -0.357604
 O 0.483 0.7317 0.3587   -0.324491
 O 0.8898 0.0451 0.4169   -0.75201
 O 0.0454 0.0982 0.444   -0.663479
 O 0.7508 0.4942 0.1392   -0.653483
 O 0.7361 0.4071 0.0479   -0.695287
 O 0.119 0.3103 0.3657   -0.419887
 O 0.0522 0.3366 0.2852   -0.31285
 O 0.6587 0.1405 0.2737   -0.353072
 O 0.703 0.2071 0.2089   -0.372998
 O 0.818 0.3299 0.3757   -0.341718
 O 0.835 0.4391 0.3669   -0.322307
 O 0.952 0.1714 0.1574   -0.349816
 O 0.925 0.2047 0.0643   -0.372136
 O 0.9159 0.8701 0.3991   -0.633474
 O 0.0388 0.9521 0.4393   -0.821831
 O 0.318 0.937 0.2746   -0.345004
 O 0.392 0.8522 0.2718   -0.379862
 O 0.17 0.6236 0.2616   -0.357604
 O 0.017 0.6413 0.2683   -0.324491
