{'_ref': 'TBD', '_srcid': 'CAKYAQ_clean', 'submitters': [{'name': 'Dalar Nazarian Jeff Camp and David Sholl', 'email': 'dalar@gatech.edu jcamp6@gatech.edu'}], '_method': 'VASP DFT with PBE;DDEC'}
data_YC2O5
_symmetry_space_group_name_H-M   'P 1'
_cell_length_a   7.81980000
_cell_length_b   8.43538751
_cell_length_c   9.49080000
_cell_angle_alpha   90.00000000
_cell_angle_beta   90.00000000
_cell_angle_gamma   117.61383080
_symmetry_Int_Tables_number   1
_chemical_formula_structural   YC2O5
_chemical_formula_sum   'Y4 C8 O20'
_cell_volume   554.730675611
_cell_formula_units_Z   4
loop_
 _symmetry_equiv_pos_site_id
 _symmetry_equiv_pos_as_xyz
  1  'x, y, z'
loop_
 _atom_site_label
 _atom_site_fract_x
 _atom_site_fract_y
 _atom_site_fract_z
 _atom_site_charge
 Y 0.29284 0.58568 0.75   2.070327
 Y 0.70723 0.41446 0.75   2.08304
 Y 0.70716 0.41432 0.25   2.070358
 Y 0.29277 0.58554 0.25   2.083069
 C 0.6004 0.0022 0.7427   0.575019
 C 0.5295 0.4492 0.5005   1.032368
 C 0.3996 0.9978 0.2427   0.57502
 C 0.4705 0.5508 0.000500000000002   1.032368
 C 0.4018 0.0022 0.7573   0.574152
 C 0.9197 0.4492 0.9995   1.032395
 C 0.5982 0.9978 0.2573   0.574153
 C 0.0803 0.5508 0.4995   1.032395
 O 0.5977 0.8548 0.737   -0.613331
 O 0.7457 0.1544 0.7361   -0.6327
 O 0.4907 0.4932 0.6197   -0.820768
 O 0.6259 0.3604 0.5032   -0.802494
 O 0.4915 0.4948 0.3814   -0.814734
 O 0.4023 0.1452 0.237   -0.613332
 O 0.2543 0.8456 0.2361   -0.632701
 O 0.5093 0.5068 0.1197   -0.820772
 O 0.3741 0.6396 0.0032   -0.802494
 O 0.5085 0.5052 0.8814   -0.814731
 O 0.2571 0.8548 0.763   -0.613255
 O 0.4087 0.1544 0.7639   -0.632121
 O 0.0025 0.4932 0.8803   -0.820448
 O 0.7345 0.3604 0.9968   -0.802774
 O 0.0033 0.4948 0.1186   -0.814705
 O 0.7429 0.1452 0.263   -0.613256
 O 0.5913 0.8456 0.2639   -0.632122
 O 0.9975 0.5068 0.3803   -0.820452
 O 0.2655 0.6396 0.4968   -0.802774
 O 0.9967 0.5052 0.6186   -0.814701
