{'_ref': 'TBD', '_srcid': 'CAKYAQ_clean', 'submitters': [{'name': 'Dalar Nazarian Jeff Camp and David Sholl', 'email': 'dalar@gatech.edu jcamp6@gatech.edu'}], '_method': 'VASP DFT with PBE;DDEC'}
data_MgH2(CO2)2
_symmetry_space_group_name_H-M   'P 1'
_cell_length_a   9.98310000
_cell_length_b   11.37620049
_cell_length_c   15.03580000
_cell_angle_alpha   91.20300155
_cell_angle_beta   90.00000000
_cell_angle_gamma   90.00000000
_symmetry_Int_Tables_number   1
_chemical_formula_structural   MgH2(CO2)2
_chemical_formula_sum   'Mg12 H24 C24 O48'
_cell_volume   1707.23561961
_cell_formula_units_Z   12
loop_
 _symmetry_equiv_pos_site_id
 _symmetry_equiv_pos_as_xyz
  1  'x, y, z'
loop_
 _atom_site_label
 _atom_site_fract_x
 _atom_site_fract_y
 _atom_site_fract_z
 _atom_site_charge
 Mg 0.57062 0.74503 0.36448   1.52186
 Mg 0.37374 0.76002 0.19824   1.499124
 Mg 0.07062 0.75497 0.13552   1.52186
 Mg 0.87374 0.73998 0.30176   1.499124
 Mg 0.42938 0.25497 0.63552   1.52186
 Mg 0.62626 0.23998 0.80176   1.499124
 Mg 0.92938 0.24503 0.86448   1.52186
 Mg 0.12626 0.26002 0.69824   1.499124
 Mg 0.5 0.0 0.5   1.497679
 Mg 0.0 0.5 0.0   1.497679
 Mg 0.5 0.5 0.5   1.510139
 Mg 0.0 0.0 0.0   1.510139
 H 0.4392 0.0234 0.2455   0.005333
 H 0.8685 0.9598 0.4262   -0.000582
 H 0.7852 0.4991 0.4676   0.000387
 H 0.7185 0.643 0.132   -0.001024
 H 0.3689 0.8044 0.5799   -0.006005
 H 0.2709 0.5371 0.2941   -0.005975
 H 0.9392 0.4766 0.2545   0.005332
 H 0.3685 0.5402 0.0738   -0.000582
 H 0.2852 0.000900000000001 0.0324   0.000387
 H 0.2185 0.857 0.368   -0.001024
 H 0.8689 0.6956 0.9201   -0.006005
 H 0.7709 0.9629 0.2059   -0.005975
 H 0.5608 0.9766 0.7545   0.005332
 H 0.1315 0.0402 0.5738   -0.000581
 H 0.2148 0.5009 0.5324   0.000387
 H 0.2815 0.357 0.868   -0.001024
 H 0.6311 0.1956 0.4201   -0.006006
 H 0.7291 0.4629 0.7059   -0.005975
 H 0.0608 0.5234 0.7455   0.005332
 H 0.6315 0.4598 0.9262   -0.000581
 H 0.7148 0.9991 0.9676   0.000387
 H 0.7815 0.143 0.632   -0.001024
 H 0.1311 0.3044 0.0799   -0.006006
 H 0.2291 0.0371 0.7941   -0.005975
 C 0.46238 0.97965 0.29644   0.74537
 C 0.7779 0.93435 0.4283   0.754266
 C 0.7654 0.56451 0.43163   0.75238
 C 0.65159 0.67254 0.17149   0.746287
 C 0.4163 0.75906 0.53637   0.759504
 C 0.34455 0.5599 0.33054   0.747119
 C 0.96238 0.52035 0.20356   0.74537
 C 0.2779 0.56565 0.0717   0.754266
 C 0.2654 0.93549 0.06837   0.75238
 C 0.15159 0.82746 0.32851   0.746287
 C 0.9163 0.74094 0.96363   0.759504
 C 0.84455 0.9401 0.16946   0.747119
 C 0.53762 0.02035 0.70356   0.74537
 C 0.2221 0.06565 0.5717   0.754266
 C 0.2346 0.43549 0.56837   0.75238
 C 0.34841 0.32746 0.82851   0.746287
 C 0.5837 0.24094 0.46363   0.759504
 C 0.65545 0.4401 0.66946   0.747119
 C 0.03762 0.47965 0.79644   0.74537
 C 0.7221 0.43435 0.9283   0.754266
 C 0.7346 0.06451 0.93163   0.75238
 C 0.84841 0.17254 0.67149   0.746287
 C 0.0837 0.25906 0.03637   0.759504
 C 0.15545 0.0599 0.83054   0.747119
 O 0.47951 0.86897 0.28517   -0.832588
 O 0.47329 0.0345 0.36755   -0.672463
 O 0.74609 0.84576 0.37884   -0.826114
 O 0.70201 0.98967 0.4783   -0.672395
 O 0.64359 0.59905 0.42995   -0.820671
 O 0.86002 0.60843 0.39063   -0.68808
 O 0.6859 0.69259 0.25193   -0.814952
 O 0.53813 0.68835 0.14028   -0.681061
 O 0.48039 0.81573 0.4772   -0.831988
 O 0.41024 0.65103 0.54223   -0.687272
 O 0.40608 0.6538 0.31   -0.824387
 O 0.37167 0.49584 0.3933   -0.66998
 O 0.97951 0.63103 0.21483   -0.832588
 O 0.97329 0.4655 0.13245   -0.672463
 O 0.24609 0.65424 0.12116   -0.826114
 O 0.20201 0.51033 0.0217   -0.672395
 O 0.14359 0.90095 0.07005   -0.820671
 O 0.36002 0.89157 0.10937   -0.68808
 O 0.1859 0.80741 0.24807   -0.814952
 O 0.03813 0.81165 0.35972   -0.681061
 O 0.98039 0.68427 0.0228   -0.831988
 O 0.91024 0.84897 0.95777   -0.687272
 O 0.90608 0.8462 0.19   -0.824387
 O 0.87167 0.00416 0.1067   -0.66998
 O 0.52049 0.13103 0.71483   -0.832588
 O 0.52671 0.9655 0.63245   -0.672463
 O 0.25391 0.15424 0.62116   -0.826114
 O 0.29799 0.01033 0.5217   -0.672395
 O 0.35641 0.40095 0.57005   -0.820671
 O 0.13998 0.39157 0.60937   -0.68808
 O 0.3141 0.30741 0.74807   -0.814952
 O 0.46187 0.31165 0.85972   -0.681061
 O 0.51961 0.18427 0.5228   -0.831988
 O 0.58976 0.34897 0.45777   -0.687272
 O 0.59392 0.3462 0.69   -0.824387
 O 0.62833 0.50416 0.6067   -0.66998
 O 0.02049 0.36897 0.78517   -0.832588
 O 0.02671 0.5345 0.86755   -0.672463
 O 0.75391 0.34576 0.87884   -0.826114
 O 0.79799 0.48967 0.9783   -0.672395
 O 0.85641 0.09905 0.92995   -0.820671
 O 0.63998 0.10843 0.89063   -0.68808
 O 0.8141 0.19259 0.75193   -0.814952
 O 0.96187 0.18835 0.64028   -0.681061
 O 0.01961 0.31573 0.9772   -0.831988
 O 0.08976 0.15103 0.04223   -0.687272
 O 0.09392 0.1538 0.81   -0.824387
 O 0.12833 0.99584 0.8933   -0.66998
