{'_ref': 'TBD', '_srcid': 'CAKYAQ_clean', 'submitters': [{'name': 'Dalar Nazarian Jeff Camp and David Sholl', 'email': 'dalar@gatech.edu jcamp6@gatech.edu'}], '_method': 'VASP DFT with PBE;DDEC'}
data_Cd2H5C10N5O6
_symmetry_space_group_name_H-M   'P 1'
_cell_length_a   6.80399974
_cell_length_b   10.34699948
_cell_length_c   11.49800000
_cell_angle_alpha   68.14500076
_cell_angle_beta   77.49199622
_cell_angle_gamma   73.83699823
_symmetry_Int_Tables_number   1
_chemical_formula_structural   Cd2H5C10N5O6
_chemical_formula_sum   'Cd4 H10 C20 N10 O12'
_cell_volume   715.781382131
_cell_formula_units_Z   2
loop_
 _symmetry_equiv_pos_site_id
 _symmetry_equiv_pos_as_xyz
  1  'x, y, z'
loop_
 _atom_site_label
 _atom_site_fract_x
 _atom_site_fract_y
 _atom_site_fract_z
 _atom_site_charge
 Cd 0.89 0.57719 0.62964   1.032694
 Cd 0.63799 0.32123 0.92237   1.139138
 Cd 0.11 0.42281 0.37036   1.032694
 Cd 0.36201 0.67877 0.07763   1.13914
 H 0.3291 0.945 0.6727   0.102407
 H 0.1988 0.9561 0.3435   0.099564
 H 0.4036 0.58 0.6041   0.077514
 H 0.192 0.195 0.144   0.351625
 H 0.987 0.206 0.14   0.345973
 H 0.6709 0.055 0.3273   0.102409
 H 0.8012 0.0439 0.6565   0.099564
 H 0.5964 0.42 0.3959   0.077514
 H 0.808 0.805 0.856   0.351625
 H 0.013 0.794 0.86   0.345974
 C 0.3754 0.7499 0.6572   -0.191262
 C 0.3211 0.8982 0.6193   0.02411
 C 0.255 0.9764 0.5014   -0.143709
 C 0.2405 0.9046 0.423   0.02142
 C 0.2884 0.7562 0.4638   -0.152337
 C 0.3627 0.6789 0.5794   0.000788
 C 0.455 0.6677 0.7833   0.731922
 C 0.2012 0.1368 0.456   0.613999
 C 0.2489 0.6779 0.387   0.740522
 C 0.123 0.2902 0.9812   0.621041
 C 0.6246 0.2501 0.3428   -0.191263
 C 0.6789 0.1018 0.3807   0.02411
 C 0.745 0.0236 0.4986   -0.143709
 C 0.7595 0.0954 0.577   0.02142
 C 0.7116 0.2438 0.5362   -0.152337
 C 0.6373 0.3211 0.4206   0.000788
 C 0.545 0.3323 0.2167   0.731922
 C 0.7988 0.8632 0.544   0.613997
 C 0.7511 0.3221 0.613   0.740522
 C 0.877 0.7098 0.0188   0.621041
 N 0.9737 0.3434 0.906   -0.409417
 N 0.0562 0.4293 0.7986   -0.042304
 N 0.2439 0.4311 0.8062   -0.017121
 N 0.2944 0.342 0.9213   -0.434257
 N 0.1088 0.1907 0.0994   -0.750936
 N 0.0263 0.6566 0.094   -0.409417
 N 0.9438 0.5707 0.2014   -0.042304
 N 0.7561 0.5689 0.1938   -0.017121
 N 0.7056 0.658 0.0787   -0.434257
 N 0.8912 0.8093 0.9006   -0.750936
 O 0.6019 0.5576 0.791   -0.695142
 O 0.3657 0.7115 0.8727   -0.628433
 O 0.2032 0.2008 0.5302   -0.5819
 O 0.159 0.2033 0.3465   -0.595558
 O 0.2873 0.7225 0.2716   -0.625546
 O 0.1794 0.565 0.4532   -0.634793
 O 0.3981 0.4424 0.209   -0.695143
 O 0.6343 0.2885 0.1273   -0.628433
 O 0.7968 0.7992 0.4698   -0.5819
 O 0.841 0.7967 0.6535   -0.595558
 O 0.7127 0.2775 0.7284   -0.625546
 O 0.8206 0.435 0.5468   -0.634793
