{'_ref': 'TBD', '_srcid': 'CAKYAQ_clean', 'submitters': [{'name': 'Dalar Nazarian Jeff Camp and David Sholl', 'email': 'dalar@gatech.edu jcamp6@gatech.edu'}], '_method': 'VASP DFT with PBE;DDEC'}
data_GdH9(C2O)6
_symmetry_space_group_name_H-M   'P 1'
_cell_length_a   7.70699983
_cell_length_b   9.68600014
_cell_length_c   10.57000000
_cell_angle_alpha   106.65000087
_cell_angle_beta   105.25199941
_cell_angle_gamma   100.68900257
_symmetry_Int_Tables_number   1
_chemical_formula_structural   GdH9(C2O)6
_chemical_formula_sum   'Gd2 H18 C24 O12'
_cell_volume   699.695992023
_cell_formula_units_Z   2
loop_
 _symmetry_equiv_pos_site_id
 _symmetry_equiv_pos_as_xyz
  1  'x, y, z'
loop_
 _atom_site_label
 _atom_site_fract_x
 _atom_site_fract_y
 _atom_site_fract_z
 _atom_site_charge
 Gd 0.75327 0.96817 0.54917   2.238442
 Gd 0.24673 0.03183 0.45083   2.238442
 H 0.1871 0.5088 0.0359   0.119225
 H 0.4653 0.1978 0.9504   0.125731
 H 0.4522 0.3762 0.3444   0.117637
 H 0.1547 0.6011 0.2617   0.144409
 H 0.2246 0.5272 0.3761   0.153859
 H 0.3627 0.3194 0.784   0.141179
 H 0.2353 0.43 0.8104   0.153781
 H 0.6351 0.1252 0.1219   0.152743
 H 0.7354 0.2653 0.265   0.146827
 H 0.8129 0.4912 0.9641   0.119226
 H 0.5347 0.8022 0.0496   0.125731
 H 0.5478 0.6238 0.6556   0.117637
 H 0.8453 0.3989 0.7383   0.14441
 H 0.7754 0.4728 0.6239   0.153859
 H 0.6373 0.6806 0.216   0.141179
 H 0.7647 0.57 0.1896   0.153781
 H 0.3649 0.8748 0.8781   0.152744
 H 0.2646 0.7347 0.735   0.146827
 C 0.31 0.4589 0.2064   0.14858
 C 0.2599 0.4478 0.0661   -0.237264
 C 0.3137 0.3501 0.9699   0.175658
 C 0.4252 0.2633 0.0152   -0.246737
 C 0.4778 0.272 0.1542   0.165722
 C 0.418 0.3705 0.2495   -0.23041
 C 0.2625 0.5725 0.3112   -0.375167
 C 0.4271 0.7127 0.3952   0.804172
 C 0.2575 0.3349 0.8183   -0.395387
 C 0.0867 0.2093 0.7265   0.78622
 C 0.6141 0.1901 0.2044   -0.405475
 C 0.5556 0.0925 0.286   0.832068
 C 0.69 0.5411 0.7936   0.14858
 C 0.7401 0.5522 0.9339   -0.237264
 C 0.6863 0.6499 0.0301   0.175658
 C 0.5748 0.7367 0.9848   -0.246737
 C 0.5222 0.728 0.8458   0.165722
 C 0.582 0.6295 0.7505   -0.23041
 C 0.7375 0.4275 0.6888   -0.375167
 C 0.5729 0.2873 0.6048   0.804172
 C 0.7425 0.6651 0.1817   -0.395387
 C 0.9133 0.7907 0.2735   0.78622
 C 0.3859 0.8099 0.7956   -0.405475
 C 0.4444 0.9075 0.714   0.832068
 O 0.4033 0.843 0.4158   -0.848264
 O 0.5881 0.7012 0.4443   -0.679946
 O 0.0667 0.1394 0.5967   -0.859511
 O 0.9581 0.1713 0.7726   -0.646953
 O 0.3944 0.0667 0.289   -0.71768
 O 0.6854 0.0403 0.3428   -0.763461
 O 0.5967 0.157 0.5842   -0.848264
 O 0.4119 0.2988 0.5557   -0.679946
 O 0.9333 0.8606 0.4033   -0.859511
 O 0.0419 0.8287 0.2274   -0.646953
 O 0.6056 0.9333 0.711   -0.71768
 O 0.3146 0.9597 0.6572   -0.763461
