{'_ref': 'TBD', '_srcid': 'CAKYAQ_clean', 'submitters': [{'name': 'Dalar Nazarian Jeff Camp and David Sholl', 'email': 'dalar@gatech.edu jcamp6@gatech.edu'}], '_method': 'VASP DFT with PBE;DDEC'}
data_Zn5H24(C21O10)2
_symmetry_space_group_name_H-M   'P 1'
_cell_length_a   6.33030040
_cell_length_b   12.68189965
_cell_length_c   15.68770000
_cell_angle_alpha   95.71100096
_cell_angle_beta   99.77300379
_cell_angle_gamma   97.97299993
_symmetry_Int_Tables_number   1
_chemical_formula_structural   Zn5H24(C21O10)2
_chemical_formula_sum   'Zn5 H24 C42 O20'
_cell_volume   1219.3288084
_cell_formula_units_Z   1
loop_
 _symmetry_equiv_pos_site_id
 _symmetry_equiv_pos_as_xyz
  1  'x, y, z'
loop_
 _atom_site_label
 _atom_site_fract_x
 _atom_site_fract_y
 _atom_site_fract_z
 _atom_site_charge
 Zn 0.51997 0.95383 0.10046   1.134271
 Zn 0.0586 0.96181 0.18612   1.045849
 Zn 0.48003 0.04617 0.89954   1.134271
 Zn 0.9414 0.03819 0.81388   1.045849
 Zn 0.0 0.0 0.0   1.091294
 H 0.1882 0.7321 0.3565   0.13657
 H 0.5791 0.5141 0.412   0.148043
 H 0.6405 0.6835 0.2113   0.149515
 H 0.118 0.4597 0.2531   0.120725
 H 0.1044 0.3072 0.1583   0.094682
 H 0.4559 0.2703 0.1083   0.104184
 H 0.469 0.424 0.2037   0.122805
 H 0.9325 0.6157 0.5278   0.124687
 H 0.8973 0.746 0.6361   0.092483
 H 0.5202 0.874 0.6561   0.103207
 H 0.5515 0.7473 0.5432   0.130904
 H 0.711 0.9135 0.876   0.448854
 H 0.8118 0.2679 0.6435   0.13657
 H 0.4209 0.4859 0.588   0.148043
 H 0.3595 0.3165 0.7887   0.149514
 H 0.882 0.5403 0.7469   0.120726
 H 0.8956 0.6928 0.8417   0.094683
 H 0.5441 0.7297 0.8917   0.104184
 H 0.531 0.576 0.7963   0.122805
 H 0.0675 0.3843 0.4722   0.124687
 H 0.1027 0.254 0.3639   0.092484
 H 0.4798 0.126 0.3439   0.103207
 H 0.4485 0.2527 0.4568   0.130904
 H 0.289 0.0865 0.124   0.448855
 C 0.3298 0.8032 0.2201   0.684276
 C 0.4019 0.7201 0.2751   -0.036471
 C 0.3004 0.6965 0.3443   -0.202486
 C 0.367 0.6198 0.3948   0.283429
 C 0.5351 0.566 0.3781   -0.305318
 C 0.6358 0.5921 0.3091   0.279797
 C 0.5715 0.6677 0.2573   -0.193686
 C 0.7939 0.456 0.2383   0.307536
 C 0.9847 0.4215 0.2243   -0.232933
 C 0.976 0.3304 0.1674   0.01784
 C 0.7788 0.2727 0.1234   -0.187457
 C 0.5893 0.3082 0.1374   0.035511
 C 0.597 0.4002 0.1947   -0.26561
 C 0.7749 0.173 0.0636   0.680987
 C 0.2443 0.6708 0.5246   0.283658
 C 0.0497 0.6687 0.5526   -0.217366
 C 0.0299 0.7459 0.6181   0.01099
 C 0.2052 0.823 0.6571   -0.181294
 C 0.401 0.823 0.6296   0.016755
 C 0.4203 0.7468 0.5624   -0.244546
 C 0.1852 0.9066 0.7289   0.698362
 C 0.6702 0.1968 0.7799   0.684275
 C 0.5981 0.2799 0.7249   -0.036472
 C 0.6996 0.3035 0.6557   -0.202486
 C 0.633 0.3802 0.6052   0.283429
 C 0.4649 0.434 0.6219   -0.305318
 C 0.3642 0.4079 0.6909   0.279797
 C 0.4285 0.3323 0.7427   -0.193686
 C 0.2061 0.544 0.7617   0.307535
 C 0.0153 0.5785 0.7757   -0.232934
 C 0.024 0.6696 0.8326   0.017837
 C 0.2212 0.7273 0.8766   -0.187458
 C 0.4107 0.6918 0.8626   0.03551
 C 0.403 0.5998 0.8053   -0.26561
 C 0.2251 0.827 0.9364   0.680987
 C 0.7557 0.3292 0.4754   0.283658
 C 0.9503 0.3313 0.4474   -0.217366
 C 0.9701 0.2541 0.3819   0.010988
 C 0.7948 0.177 0.3429   -0.181295
 C 0.599 0.177 0.3704   0.016755
 C 0.5797 0.2532 0.4376   -0.244545
 C 0.8148 0.0934 0.2711   0.698361
 O 0.7497 0.9804 0.8922   -0.960386
 O 0.187 0.0821 0.913   -0.701624
 O 0.4201 0.8184 0.1558   -0.592785
 O 0.1816 0.8515 0.243   -0.595317
 O 0.8191 0.5462 0.2974   -0.237158
 O 0.9528 0.1512 0.0479   -0.552353
 O 0.5911 0.1152 0.0325   -0.636518
 O 0.2614 0.589 0.4611   -0.257147
 O 0.354 0.9548 0.7769   -0.595626
 O 0.992 0.9223 0.7343   -0.605481
 O 0.2503 0.0196 0.1078   -0.960386
 O 0.813 0.9179 0.087   -0.701624
 O 0.5799 0.1816 0.8442   -0.592785
 O 0.8184 0.1485 0.757   -0.595317
 O 0.1809 0.4538 0.7026   -0.237158
 O 0.0472 0.8488 0.9521   -0.552353
 O 0.4089 0.8848 0.9675   -0.636518
 O 0.7386 0.411 0.5389   -0.257147
 O 0.646 0.0452 0.2231   -0.595626
 O 0.008 0.0777 0.2657   -0.605481
