{'_ref': 'TBD', '_srcid': 'CAKYAQ_clean', 'submitters': [{'name': 'Dalar Nazarian Jeff Camp and David Sholl', 'email': 'dalar@gatech.edu jcamp6@gatech.edu'}], '_method': 'VASP DFT with PBE;DDEC'}
data_ZnH8C19(NO3)2
_symmetry_space_group_name_H-M   'P 1'
_cell_length_a   5.64150000
_cell_length_b   14.84700025
_cell_length_c   27.63300000
_cell_angle_alpha   90.00000000
_cell_angle_beta   90.00000000
_cell_angle_gamma   100.14899833
_symmetry_Int_Tables_number   1
_chemical_formula_structural   ZnH8C19(NO3)2
_chemical_formula_sum   'Zn4 H32 C76 N8 O24'
_cell_volume   2278.30649418
_cell_formula_units_Z   4
loop_
 _symmetry_equiv_pos_site_id
 _symmetry_equiv_pos_as_xyz
  1  'x, y, z'
loop_
 _atom_site_label
 _atom_site_fract_x
 _atom_site_fract_y
 _atom_site_fract_z
 _atom_site_charge
 Zn 0.96075 0.58923 0.97628   0.953079
 Zn 0.53925 0.91077 0.47628   0.953079
 Zn 0.03925 0.41077 0.02372   0.953079
 Zn 0.46075 0.08923 0.52372   0.953079
 H 0.2398 0.7605 0.4228   0.099293
 H 0.2227 0.6974 0.3456   0.162738
 H 0.9167 0.8206 0.3249   0.156786
 H 0.9182 0.879 0.4037   0.082135
 H 0.9208 0.5374 0.225   0.112065
 H 0.9138 0.486 0.1449   0.114144
 H 0.1402 0.7517 0.0917   0.130964
 H 0.1631 0.8049 0.172   0.115352
 H 0.2602 0.7395 0.9228   0.099293
 H 0.2773 0.8026 0.8456   0.162738
 H 0.5833 0.6794 0.8249   0.156786
 H 0.5818 0.621 0.9037   0.082135
 H 0.5792 0.9626 0.725   0.112065
 H 0.5862 0.014 0.6449   0.114144
 H 0.3598 0.7483 0.5917   0.130964
 H 0.3369 0.6951 0.672   0.115352
 H 0.7602 0.2395 0.5772   0.099293
 H 0.7773 0.3026 0.6544   0.162738
 H 0.0833 0.1794 0.6751   0.156786
 H 0.0818 0.121 0.5963   0.082135
 H 0.0792 0.4626 0.775   0.112065
 H 0.0862 0.514 0.8551   0.114144
 H 0.8598 0.2483 0.9083   0.130964
 H 0.8369 0.1951 0.828   0.115352
 H 0.7398 0.2605 0.0772   0.099293
 H 0.7227 0.1974 0.1544   0.162738
 H 0.4167 0.3206 0.1751   0.156786
 H 0.4182 0.379 0.0963   0.082135
 H 0.4208 0.0374 0.275   0.112065
 H 0.4138 0.986 0.3551   0.114144
 H 0.6402 0.2517 0.4083   0.130964
 H 0.6631 0.3049 0.328   0.115352
 C 0.3779 0.7731 0.4026   0.188921
 C 0.3654 0.7357 0.35666   -0.238636
 C 0.5651 0.7552 0.3273   0.267213
 C 0.7763 0.8083 0.34447   -0.238613
 C 0.7753 0.8429 0.39129   0.188493
 C 0.7069 0.6601 0.26552   0.527564
 C 0.6935 0.6275 0.21463   -0.181142
 C 0.5408 0.6606 0.18068   0.076997
 C 0.3985 0.7258 0.19502   -0.183635
 C 0.3963 0.7567 0.2463   0.528558
 C 0.8261 0.5617 0.20153   -0.000351
 C 0.8207 0.5309 0.15366   -0.076465
 C 0.6841 0.5639 0.11902   -0.093545
 C 0.5301 0.6284 0.13192   0.044868
 C 0.3656 0.6602 0.09936   -0.07696
 C 0.2388 0.7272 0.1143   -0.087465
 C 0.2534 0.7597 0.16231   -0.00947
 C 0.7292 0.5387 0.06708   0.654
 C 0.2843 0.6121 0.05232   0.661254
 C 0.1221 0.7269 0.9026   0.188921
 C 0.1346 0.7643 0.85666   -0.238636
 C 0.9349 0.7448 0.8273   0.267213
 C 0.7237 0.6917 0.84447   -0.238613
 C 0.7247 0.6571 0.89129   0.188493
 C 0.7931 0.8399 0.76552   0.527564
 C 0.8065 0.8725 0.71463   -0.181142
 C 0.9592 0.8394 0.68068   0.076997
 C 0.1015 0.7742 0.69502   -0.183635
 C 0.1037 0.7433 0.7463   0.528558
 C 0.6739 0.9383 0.70153   -0.000351
 C 0.6793 0.9691 0.65366   -0.076465
 C 0.8159 0.9361 0.61902   -0.093545
 C 0.9699 0.8716 0.63192   0.044868
 C 0.1344 0.8398 0.59936   -0.07696
 C 0.2612 0.7728 0.6143   -0.087465
 C 0.2466 0.7403 0.66231   -0.00947
 C 0.7708 0.9613 0.56708   0.654
 C 0.2157 0.8879 0.55232   0.661254
 C 0.6221 0.2269 0.5974   0.188921
 C 0.6346 0.2643 0.64334   -0.238636
 C 0.4349 0.2448 0.6727   0.267213
 C 0.2237 0.1917 0.65553   -0.238613
 C 0.2247 0.1571 0.60871   0.188493
 C 0.2931 0.3399 0.73448   0.527564
 C 0.3065 0.3725 0.78537   -0.181142
 C 0.4592 0.3394 0.81932   0.076997
 C 0.6015 0.2742 0.80498   -0.183635
 C 0.6037 0.2433 0.7537   0.528558
 C 0.1739 0.4383 0.79847   -0.000351
 C 0.1793 0.4691 0.84634   -0.076465
 C 0.3159 0.4361 0.88098   -0.093545
 C 0.4699 0.3716 0.86808   0.044868
 C 0.6344 0.3398 0.90064   -0.07696
 C 0.7612 0.2728 0.8857   -0.087465
 C 0.7466 0.2403 0.83769   -0.00947
 C 0.2708 0.4613 0.93292   0.654
 C 0.7157 0.3879 0.94768   0.661254
 C 0.8779 0.2731 0.0974   0.188921
 C 0.8654 0.2357 0.14334   -0.238636
 C 0.0651 0.2552 0.1727   0.267213
 C 0.2763 0.3083 0.15553   -0.238613
 C 0.2753 0.3429 0.10871   0.188493
 C 0.2069 0.1601 0.23448   0.527564
 C 0.1935 0.1275 0.28537   -0.181142
 C 0.0408 0.1606 0.31932   0.076997
 C 0.8985 0.2258 0.30498   -0.183635
 C 0.8963 0.2567 0.2537   0.528558
 C 0.3261 0.0617 0.29847   -0.000351
 C 0.3207 0.0309 0.34634   -0.076465
 C 0.1841 0.0639 0.38098   -0.093545
 C 0.0301 0.1284 0.36808   0.044868
 C 0.8656 0.1602 0.40064   -0.07696
 C 0.7388 0.2272 0.3857   -0.087465
 C 0.7534 0.2597 0.33769   -0.00947
 C 0.2292 0.0387 0.43292   0.654
 C 0.7843 0.1121 0.44768   0.661254
 N 0.5762 0.8265 0.41978   -0.33637
 N 0.5557 0.7227 0.27776   -0.268841
 N 0.9238 0.6735 0.91978   -0.33637
 N 0.9443 0.7773 0.77776   -0.268841
 N 0.4238 0.1735 0.58022   -0.33637
 N 0.4443 0.2773 0.72224   -0.268841
 N 0.0762 0.3265 0.08022   -0.33637
 N 0.0557 0.2227 0.22224   -0.268841
 O 0.7566 0.6015 0.03573   -0.550359
 O 0.7623 0.4574 0.06093   -0.59738
 O 0.2321 0.6618 0.01814   -0.568537
 O 0.2478 0.5259 0.05396   -0.600451
 O 0.2709 0.8092 0.26105   -0.475996
 O 0.839 0.6353 0.29599   -0.480206
 O 0.7434 0.8985 0.53573   -0.550359
 O 0.7377 0.0426 0.56093   -0.59738
 O 0.2679 0.8382 0.51814   -0.568537
 O 0.2522 0.9741 0.55396   -0.600451
 O 0.2291 0.6908 0.76105   -0.475996
 O 0.661 0.8647 0.79599   -0.480206
 O 0.2434 0.3985 0.96427   -0.550359
 O 0.2377 0.5426 0.93907   -0.597379
 O 0.7679 0.3382 0.98186   -0.568537
 O 0.7522 0.4741 0.94604   -0.600451
 O 0.7291 0.1908 0.73895   -0.475996
 O 0.161 0.3647 0.70401   -0.480206
 O 0.2566 0.1015 0.46427   -0.550359
 O 0.2623 0.9574 0.43907   -0.597379
 O 0.7321 0.1618 0.48186   -0.568537
 O 0.7478 0.0259 0.44604   -0.600451
 O 0.7709 0.3092 0.23895   -0.475996
 O 0.339 0.1353 0.20401   -0.480206
