{'_ref': 'TBD', '_srcid': 'CAKYAQ_clean', 'submitters': [{'name': 'Dalar Nazarian Jeff Camp and David Sholl', 'email': 'dalar@gatech.edu jcamp6@gatech.edu'}], '_method': 'VASP DFT with PBE;DDEC'}
data_ZnH8C19(NO3)2
_symmetry_space_group_name_H-M   'P 1'
_cell_length_a   5.63640000
_cell_length_b   18.88629955
_cell_length_c   25.30100000
_cell_angle_alpha   90.00000000
_cell_angle_beta   90.00000000
_cell_angle_gamma   95.46999992
_symmetry_Int_Tables_number   1
_chemical_formula_structural   ZnH8C19(NO3)2
_chemical_formula_sum   'Zn4 H32 C76 N8 O24'
_cell_volume   2681.04547186
_cell_formula_units_Z   4
loop_
 _symmetry_equiv_pos_site_id
 _symmetry_equiv_pos_as_xyz
  1  'x, y, z'
loop_
 _atom_site_label
 _atom_site_fract_x
 _atom_site_fract_y
 _atom_site_fract_z
 _atom_site_charge
 Zn 0.103 0.56025 0.53332   0.926227
 Zn 0.897 0.93975 0.03332   0.926227
 Zn 0.897 0.43975 0.46668   0.926227
 Zn 0.103 0.06025 0.96668   0.926227
 H 0.4753 0.9106 0.1074   0.088592
 H 0.3908 0.8453 0.1842   0.161371
 H 0.987 0.7454 0.1583   0.16219
 H 0.0584 0.8155 0.0843   0.091546
 H 0.127 0.6008 0.2569   0.114141
 H 0.0728 0.5344 0.3348   0.122911
 H 0.0295 0.7074 0.4325   0.12698
 H 0.0671 0.7761 0.3558   0.111936
 H 0.5247 0.5894 0.6074   0.088592
 H 0.6092 0.6547 0.6842   0.161371
 H 0.013 0.7546 0.6583   0.16219
 H 0.9416 0.6845 0.5843   0.091547
 H 0.873 0.8992 0.7569   0.114141
 H 0.9272 0.9656 0.8348   0.122911
 H 0.9705 0.7926 0.9325   0.126979
 H 0.9329 0.7239 0.8558   0.111936
 H 0.5247 0.0894 0.8926   0.088592
 H 0.6092 0.1547 0.8158   0.161371
 H 0.013 0.2546 0.8417   0.16219
 H 0.9416 0.1845 0.9157   0.091546
 H 0.873 0.3992 0.7431   0.114141
 H 0.9272 0.4656 0.6652   0.122911
 H 0.9705 0.2926 0.5675   0.12698
 H 0.9329 0.2239 0.6442   0.111935
 H 0.4753 0.4106 0.3926   0.088592
 H 0.3908 0.3453 0.3158   0.161371
 H 0.987 0.2454 0.3417   0.16219
 H 0.0584 0.3155 0.4157   0.091547
 H 0.127 0.1008 0.2431   0.114141
 H 0.0728 0.0344 0.1652   0.122911
 H 0.0295 0.2074 0.0675   0.126979
 H 0.0671 0.2761 0.1442   0.111935
 C 0.5813 0.8774 0.11861   0.191559
 C 0.5299 0.839 0.16413   -0.243222
 C 0.6873 0.7911 0.17976   0.270509
 C 0.883 0.7802 0.14909   -0.235676
 C 0.9212 0.8213 0.1051   0.183591
 C 0.4509 0.7022 0.23209   0.526655
 C 0.4239 0.6611 0.2817   -0.174548
 C 0.5887 0.6734 0.32322   0.071935
 C 0.7847 0.7268 0.31817   -0.181054
 C 0.8206 0.7672 0.26881   0.530279
 C 0.2347 0.6095 0.28559   -0.012742
 C 0.2034 0.57 0.3321   -0.082986
 C 0.3573 0.5813 0.37428   -0.089833
 C 0.5612 0.6322 0.37026   0.051552
 C 0.7385 0.644 0.40998   -0.081764
 C 0.9185 0.698 0.40451   -0.086151
 C 0.9411 0.7391 0.35871   -0.002591
 C 0.2752 0.5448 0.42483   0.661644
 C 0.7744 0.5929 0.45461   0.6648
 C 0.4187 0.6226 0.61861   0.191559
 C 0.4701 0.661 0.66413   -0.243222
 C 0.3127 0.7089 0.67976   0.270509
 C 0.117 0.7198 0.64909   -0.235676
 C 0.0788 0.6787 0.6051   0.183591
 C 0.5491 0.7978 0.73209   0.526655
 C 0.5761 0.8389 0.7817   -0.174548
 C 0.4113 0.8266 0.82322   0.071935
 C 0.2153 0.7732 0.81817   -0.181054
 C 0.1794 0.7328 0.76881   0.530279
 C 0.7653 0.8905 0.78559   -0.012742
 C 0.7966 0.93 0.8321   -0.082986
 C 0.6427 0.9187 0.87428   -0.089833
 C 0.4388 0.8678 0.87026   0.051552
 C 0.2615 0.856 0.90998   -0.081764
 C 0.0815 0.802 0.90451   -0.086151
 C 0.0589 0.7609 0.85871   -0.002591
 C 0.7248 0.9552 0.92483   0.661644
 C 0.2256 0.9071 0.95461   0.6648
 C 0.4187 0.1226 0.88139   0.191559
 C 0.4701 0.161 0.83587   -0.243221
 C 0.3127 0.2089 0.82024   0.270509
 C 0.117 0.2198 0.85091   -0.235676
 C 0.0788 0.1787 0.8949   0.183591
 C 0.5491 0.2978 0.76791   0.526655
 C 0.5761 0.3389 0.7183   -0.174548
 C 0.4113 0.3266 0.67678   0.071935
 C 0.2153 0.2732 0.68183   -0.181054
 C 0.1794 0.2328 0.73119   0.53028
 C 0.7653 0.3905 0.71441   -0.012741
 C 0.7966 0.43 0.6679   -0.082986
 C 0.6427 0.4187 0.62572   -0.089833
 C 0.4388 0.3678 0.62974   0.051552
 C 0.2615 0.356 0.59002   -0.081764
 C 0.0815 0.302 0.59549   -0.086151
 C 0.0589 0.2609 0.64129   -0.00259
 C 0.7248 0.4552 0.57517   0.661644
 C 0.2256 0.4071 0.54539   0.6648
 C 0.5813 0.3774 0.38139   0.191559
 C 0.5299 0.339 0.33587   -0.243221
 C 0.6873 0.2911 0.32024   0.270509
 C 0.883 0.2802 0.35091   -0.235675
 C 0.9212 0.3213 0.3949   0.183591
 C 0.4509 0.2022 0.26791   0.526655
 C 0.4239 0.1611 0.2183   -0.174548
 C 0.5887 0.1734 0.17678   0.071935
 C 0.7847 0.2268 0.18183   -0.181054
 C 0.8206 0.2672 0.23119   0.53028
 C 0.2347 0.1095 0.21441   -0.012741
 C 0.2034 0.07 0.1679   -0.082986
 C 0.3573 0.0813 0.12572   -0.089833
 C 0.5612 0.1322 0.12974   0.051552
 C 0.7385 0.144 0.09002   -0.081764
 C 0.9185 0.198 0.09549   -0.086151
 C 0.9411 0.2391 0.14129   -0.00259
 C 0.2752 0.0448 0.07517   0.661644
 C 0.7744 0.0929 0.04539   0.6648
 N 0.7759 0.86945 0.08952   -0.317628
 N 0.6512 0.7529 0.22903   -0.269872
 N 0.2241 0.63055 0.58952   -0.317628
 N 0.3488 0.7471 0.72903   -0.269872
 N 0.2241 0.13055 0.91048   -0.317628
 N 0.3488 0.2471 0.77097   -0.269872
 N 0.7759 0.36945 0.41048   -0.317628
 N 0.6512 0.2529 0.27097   -0.269872
 O 0.2902 0.582 0.46635   -0.567528
 O 0.1786 0.48232 0.42084   -0.585183
 O 0.7412 0.5277 0.44293   -0.589511
 O 0.8549 0.6183 0.49715   -0.574254
 O 0.3154 0.69422 0.19483   -0.478288
 O 0.9874 0.8119 0.26188   -0.485592
 O 0.7098 0.918 0.96635   -0.567528
 O 0.8214 0.01768 0.92084   -0.585183
 O 0.2588 0.9723 0.94293   -0.589511
 O 0.1451 0.8817 0.99715   -0.574254
 O 0.6846 0.80578 0.69483   -0.478288
 O 0.0126 0.6881 0.76188   -0.485592
 O 0.7098 0.418 0.53365   -0.567528
 O 0.8214 0.51768 0.57916   -0.585183
 O 0.2588 0.4723 0.55707   -0.589511
 O 0.1451 0.3817 0.50285   -0.574253
 O 0.6846 0.30578 0.80517   -0.478288
 O 0.0126 0.1881 0.73812   -0.485592
 O 0.2902 0.082 0.03365   -0.567528
 O 0.1786 0.98232 0.07916   -0.585183
 O 0.7412 0.0277 0.05707   -0.589511
 O 0.8549 0.1183 0.00285   -0.574253
 O 0.3154 0.19422 0.30517   -0.478288
 O 0.9874 0.3119 0.23812   -0.485592
