{'_ref': 'TBD', '_srcid': 'CAKYAQ_clean', 'submitters': [{'name': 'Dalar Nazarian Jeff Camp and David Sholl', 'email': 'dalar@gatech.edu jcamp6@gatech.edu'}], '_method': 'VASP DFT with PBE;DDEC'}
data_CoH15C26N2(O2F3)2
_symmetry_space_group_name_H-M   'P 1'
_cell_length_a   7.19630000
_cell_length_b   14.90900004
_cell_length_c   24.59200000
_cell_angle_alpha   104.31200002
_cell_angle_beta   90.00000000
_cell_angle_gamma   90.00000000
_symmetry_Int_Tables_number   1
_chemical_formula_structural   CoH15C26N2(O2F3)2
_chemical_formula_sum   'Co4 H60 C104 N8 O16 F24'
_cell_volume   2556.57924296
_cell_formula_units_Z   4
loop_
 _symmetry_equiv_pos_site_id
 _symmetry_equiv_pos_as_xyz
  1  'x, y, z'
loop_
 _atom_site_label
 _atom_site_fract_x
 _atom_site_fract_y
 _atom_site_fract_z
 _atom_site_charge
 Co 0.66175 0.43928 0.48835   0.957328
 Co 0.66175 0.56072 0.01165   0.957328
 Co 0.33825 0.56072 0.51165   0.957328
 Co 0.33825 0.43928 0.98835   0.957328
 H 0.0381 0.5693 0.6311   0.095433
 H 0.166 0.6536 0.7129   0.114982
 H 0.7278 0.8237 0.7376   0.091421
 H 0.5946 0.7355 0.6577   0.085332
 H 0.9281 0.6703 0.8207   0.115141
 H 0.039 0.5851 0.8803   0.10618
 H 0.5212 0.7224 0.8927   0.103732
 H 0.4086 0.8082 0.8336   0.089613
 H 0.0276 0.3302 0.512   0.089656
 H 0.6742 0.248 0.3902   0.096019
 H 0.8989 0.1246 0.3839   0.127845
 H 0.3285 0.1622 0.4122   0.103872
 H 0.5448 0.0605 0.4316   0.067936
 H 0.2615 0.0269 0.5514   0.074066
 H 0.0335 0.1146 0.5273   0.090599
 H 0.0381 0.4307 0.8689   0.095432
 H 0.166 0.3464 0.7871   0.114982
 H 0.7278 0.1763 0.7624   0.091421
 H 0.5946 0.2645 0.8423   0.085332
 H 0.9281 0.3297 0.6793   0.11514
 H 0.039 0.4149 0.6197   0.106179
 H 0.5212 0.2776 0.6073   0.103732
 H 0.4086 0.1918 0.6664   0.089613
 H 0.0276 0.6698 0.988   0.089656
 H 0.6742 0.752 0.1098   0.096019
 H 0.8989 0.8754 0.1161   0.127845
 H 0.3285 0.8378 0.0878   0.103872
 H 0.5448 0.9395 0.0684   0.067936
 H 0.2615 0.9731 0.9486   0.074066
 H 0.0335 0.8854 0.9727   0.0906
 H 0.9619 0.4307 0.3689   0.095433
 H 0.834 0.3464 0.2871   0.114982
 H 0.2722 0.1763 0.2624   0.091421
 H 0.4054 0.2645 0.3423   0.085331
 H 0.0719 0.3297 0.1793   0.115141
 H 0.961 0.4149 0.1197   0.10618
 H 0.4788 0.2776 0.1073   0.103732
 H 0.5914 0.1918 0.1664   0.089613
 H 0.9724 0.6698 0.488   0.089656
 H 0.3258 0.752 0.6098   0.096018
 H 0.1011 0.8754 0.6161   0.127845
 H 0.6715 0.8378 0.5878   0.103872
 H 0.4552 0.9395 0.5684   0.067937
 H 0.7385 0.9731 0.4486   0.074067
 H 0.9665 0.8854 0.4727   0.090599
 H 0.9619 0.5693 0.1311   0.095432
 H 0.834 0.6536 0.2129   0.114982
 H 0.2722 0.8237 0.2376   0.091421
 H 0.4054 0.7355 0.1577   0.085331
 H 0.0719 0.6703 0.3207   0.11514
 H 0.961 0.5851 0.3803   0.106179
 H 0.4788 0.7224 0.3927   0.103732
 H 0.5914 0.8082 0.3336   0.089613
 H 0.9724 0.3302 0.012   0.089656
 H 0.3258 0.248 0.8902   0.096018
 H 0.1011 0.1246 0.8839   0.127845
 H 0.6715 0.1622 0.9122   0.103872
 H 0.4552 0.0605 0.9316   0.067937
 H 0.7385 0.0269 0.0514   0.074067
 H 0.9665 0.1146 0.0273   0.0906
 C 0.7115 0.5854 0.5827   0.655325
 C 0.7991 0.6425 0.6353   -0.13845
 C 0.9738 0.6198 0.6527   -0.005559
 C 0.0514 0.6712 0.7014   -0.14966
 C 0.964 0.7486 0.7341   0.071888
 C 0.7903 0.7721 0.7166   -0.15927
 C 0.7112 0.7192 0.6684   -0.018334
 C 0.2132 0.8638 0.761   0.689445
 C 0.066 0.8091 0.7853   -0.298241
 C 0.9389 0.8785 0.8246   0.693708
 C 0.1548 0.7495 0.8215   0.071745
 C 0.0474 0.6815 0.8354   -0.144279
 C 0.1146 0.6296 0.8709   -0.026242
 C 0.2915 0.6432 0.8923   -0.136836
 C 0.4015 0.7116 0.8782   -0.018466
 C 0.3336 0.7635 0.843   -0.156146
 C 0.3658 0.5891 0.9318   0.656793
 C 0.9638 0.2936 0.4816   0.16401
 C 0.773 0.2488 0.4147   0.04775
 C 0.8954 0.1803 0.4112   -0.156945
 C 0.1603 0.1513 0.4693   0.169751
 C 0.3067 0.1343 0.4415   -0.144799
 C 0.4399 0.0725 0.4544   -0.071336
 C 0.4294 0.0327 0.4934   0.053982
 C 0.2807 0.0518 0.5207   -0.067643
 C 0.1442 0.1082 0.5072   -0.15872
 C 0.7115 0.4146 0.9173   0.655324
 C 0.7991 0.3575 0.8647   -0.138451
 C 0.9738 0.3802 0.8473   -0.005558
 C 0.0514 0.3288 0.7986   -0.14966
 C 0.964 0.2514 0.7659   0.071888
 C 0.7903 0.2279 0.7834   -0.15927
 C 0.7112 0.2808 0.8316   -0.018334
 C 0.2132 0.1362 0.739   0.689445
 C 0.066 0.1909 0.7147   -0.298241
 C 0.9389 0.1215 0.6754   0.693708
 C 0.1548 0.2505 0.6785   0.071745
 C 0.0474 0.3185 0.6646   -0.144279
 C 0.1146 0.3704 0.6291   -0.026241
 C 0.2915 0.3568 0.6077   -0.136836
 C 0.4015 0.2884 0.6218   -0.018467
 C 0.3336 0.2365 0.657   -0.156146
 C 0.3658 0.4109 0.5682   0.656792
 C 0.9638 0.7064 0.0184   0.16401
 C 0.773 0.7512 0.0853   0.04775
 C 0.8954 0.8197 0.0888   -0.156945
 C 0.1603 0.8487 0.0307   0.169751
 C 0.3067 0.8657 0.0585   -0.144799
 C 0.4399 0.9275 0.0456   -0.071336
 C 0.4294 0.9673 0.0066   0.053982
 C 0.2807 0.9482 0.9793   -0.067643
 C 0.1442 0.8918 0.9928   -0.158721
 C 0.2885 0.4146 0.4173   0.655324
 C 0.2009 0.3575 0.3647   -0.13845
 C 0.0262 0.3802 0.3473   -0.005559
 C 0.9486 0.3288 0.2986   -0.14966
 C 0.036 0.2514 0.2659   0.071888
 C 0.2097 0.2279 0.2834   -0.15927
 C 0.2888 0.2808 0.3316   -0.018334
 C 0.7868 0.1362 0.239   0.689445
 C 0.934 0.1909 0.2147   -0.298241
 C 0.0611 0.1215 0.1754   0.693708
 C 0.8452 0.2505 0.1785   0.071745
 C 0.9526 0.3185 0.1646   -0.144279
 C 0.8854 0.3704 0.1291   -0.026242
 C 0.7085 0.3568 0.1077   -0.136836
 C 0.5985 0.2884 0.1218   -0.018466
 C 0.6664 0.2365 0.157   -0.156146
 C 0.6342 0.4109 0.0682   0.656793
 C 0.0362 0.7064 0.5184   0.164009
 C 0.227 0.7512 0.5853   0.04775
 C 0.1046 0.8197 0.5888   -0.156945
 C 0.8397 0.8487 0.5307   0.169751
 C 0.6933 0.8657 0.5585   -0.144799
 C 0.5601 0.9275 0.5456   -0.071337
 C 0.5706 0.9673 0.5066   0.053989
 C 0.7193 0.9482 0.4793   -0.067644
 C 0.8558 0.8918 0.4928   -0.15872
 C 0.2885 0.5854 0.0827   0.655323
 C 0.2009 0.6425 0.1353   -0.138451
 C 0.0262 0.6198 0.1527   -0.005559
 C 0.9486 0.6712 0.2014   -0.14966
 C 0.036 0.7486 0.2341   0.071888
 C 0.2097 0.7721 0.2166   -0.15927
 C 0.2888 0.7192 0.1684   -0.018334
 C 0.7868 0.8638 0.261   0.689445
 C 0.934 0.8091 0.2853   -0.298241
 C 0.0611 0.8785 0.3246   0.693708
 C 0.8452 0.7495 0.3215   0.071745
 C 0.9526 0.6815 0.3354   -0.144279
 C 0.8854 0.6296 0.3709   -0.026241
 C 0.7085 0.6432 0.3923   -0.136836
 C 0.5985 0.7116 0.3782   -0.018467
 C 0.6664 0.7635 0.343   -0.156146
 C 0.6342 0.5891 0.4318   0.656792
 C 0.0362 0.2936 0.9816   0.16401
 C 0.227 0.2488 0.9147   0.04775
 C 0.1046 0.1803 0.9112   -0.156945
 C 0.8397 0.1513 0.9693   0.169751
 C 0.6933 0.1343 0.9415   -0.144799
 C 0.5601 0.0725 0.9544   -0.071337
 C 0.5706 0.0327 0.9934   0.053989
 C 0.7193 0.0518 0.0207   -0.067644
 C 0.8558 0.1082 0.0072   -0.158721
 N 0.8149 0.3205 0.45989   -0.365553
 N 0.0145 0.2077 0.4555   0.036833
 N 0.8149 0.6795 0.04011   -0.365553
 N 0.0145 0.7923 0.0445   0.036833
 N 0.1851 0.6795 0.54011   -0.365553
 N 0.9855 0.7923 0.5445   0.036833
 N 0.1851 0.3205 0.95989   -0.365553
 N 0.9855 0.2077 0.9555   0.036833
 O 0.7973 0.516 0.55561   -0.551195
 O 0.5538 0.6114 0.57007   -0.618053
 O 0.2681 0.5237 0.939   -0.562369
 O 0.5165 0.616 0.95646   -0.584024
 O 0.7973 0.484 0.94439   -0.551196
 O 0.5538 0.3886 0.92993   -0.618053
 O 0.2681 0.4763 0.561   -0.562369
 O 0.5165 0.384 0.54354   -0.584025
 O 0.2027 0.484 0.44439   -0.551196
 O 0.4462 0.3886 0.42993   -0.618053
 O 0.7319 0.4763 0.061   -0.562369
 O 0.4835 0.384 0.04354   -0.584025
 O 0.2027 0.516 0.05561   -0.551196
 O 0.4462 0.6114 0.07007   -0.618053
 O 0.7319 0.5237 0.439   -0.562369
 O 0.4835 0.616 0.45646   -0.584025
 F 0.1374 0.9037 0.72309   -0.211105
 F 0.3494 0.8096 0.7349   -0.173195
 F 0.2929 0.9319 0.79981   -0.20902
 F 0.0255 0.9215 0.87181   -0.199898
 F 0.7902 0.838 0.83987   -0.183993
 F 0.8771 0.9461 0.80159   -0.211051
 F 0.1374 0.0963 0.77691   -0.211106
 F 0.3494 0.1904 0.7651   -0.173195
 F 0.2929 0.0681 0.70019   -0.20902
 F 0.0255 0.0785 0.62819   -0.199898
 F 0.7902 0.162 0.66013   -0.183993
 F 0.8771 0.0539 0.69841   -0.211051
 F 0.8626 0.0963 0.27691   -0.211105
 F 0.6506 0.1904 0.2651   -0.173195
 F 0.7071 0.0681 0.20019   -0.20902
 F 0.9745 0.0785 0.12819   -0.199898
 F 0.2098 0.162 0.16013   -0.183993
 F 0.1229 0.0539 0.19841   -0.211051
 F 0.8626 0.9037 0.22309   -0.211106
 F 0.6506 0.8096 0.2349   -0.173195
 F 0.7071 0.9319 0.29981   -0.20902
 F 0.9745 0.9215 0.37181   -0.199898
 F 0.2098 0.838 0.33987   -0.183993
 F 0.1229 0.9461 0.30159   -0.211051
