{'_ref': 'TBD', '_srcid': 'CAKYAQ_clean', 'submitters': [{'name': 'Dalar Nazarian Jeff Camp and David Sholl', 'email': 'dalar@gatech.edu jcamp6@gatech.edu'}], '_method': 'VASP DFT with PBE;DDEC'}
data_ZnH10C17N3O4
_symmetry_space_group_name_H-M   'P 1'
_cell_length_a   11.72099982
_cell_length_b   14.95460015
_cell_length_c   14.95460000
_cell_angle_alpha   96.44850131
_cell_angle_beta   107.06000156
_cell_angle_gamma   107.05999764
_symmetry_Int_Tables_number   1
_chemical_formula_structural   ZnH10C17N3O4
_chemical_formula_sum   'Zn4 H40 C68 N12 O16'
_cell_volume   2338.56023035
_cell_formula_units_Z   4
loop_
 _symmetry_equiv_pos_site_id
 _symmetry_equiv_pos_as_xyz
  1  'x, y, z'
loop_
 _atom_site_label
 _atom_site_fract_x
 _atom_site_fract_y
 _atom_site_fract_z
 _atom_site_charge
 Zn 0.8819 0.80543 0.56081   0.831514
 Zn 0.8819 0.56081 0.80543   0.831513
 Zn 0.1181 0.43919 0.19457   0.831513
 Zn 0.1181 0.19457 0.43919   0.831514
 H 0.0805 0.7404 0.5098   0.088864
 H 0.293 0.7957 0.5307   0.127555
 H 0.3148 0.0503 0.6615   0.120174
 H 0.1049 0.9887 0.6395   0.080759
 H 0.4955 0.8469 0.5685   0.125396
 H 0.8074 0.0826 0.6576   0.118514
 H 0.9516 0.3798 0.848   0.072415
 H 0.8716 0.2165 0.7951   0.136665
 H 0.5549 0.2439 0.6245   0.126213
 H 0.6446 0.4049 0.6781   0.100081
 H 0.0805 0.5098 0.7404   0.088864
 H 0.293 0.5307 0.7957   0.127552
 H 0.3148 0.6615 0.0503   0.120174
 H 0.1049 0.6395 0.9887   0.080759
 H 0.4955 0.5685 0.8469   0.125396
 H 0.8074 0.6576 0.0826   0.118514
 H 0.9516 0.848 0.3798   0.072415
 H 0.8716 0.7951 0.2165   0.136664
 H 0.5549 0.6245 0.2439   0.126213
 H 0.6446 0.6781 0.4049   0.100081
 H 0.9195 0.4902 0.2596   0.088865
 H 0.707 0.4693 0.2043   0.127553
 H 0.6852 0.3385 0.9497   0.120175
 H 0.8951 0.3605 0.0113   0.080759
 H 0.5045 0.4315 0.1531   0.125396
 H 0.1926 0.3424 0.9174   0.118514
 H 0.0484 0.152 0.6202   0.072415
 H 0.1284 0.2049 0.7835   0.136665
 H 0.4451 0.3755 0.7561   0.126213
 H 0.3554 0.3219 0.5951   0.100082
 H 0.9195 0.2596 0.4902   0.088864
 H 0.707 0.2043 0.4693   0.127555
 H 0.6852 0.9497 0.3385   0.120174
 H 0.8951 0.0113 0.3605   0.080759
 H 0.5045 0.1531 0.4315   0.125396
 H 0.1926 0.9174 0.3424   0.118514
 H 0.0484 0.6202 0.152   0.072414
 H 0.1284 0.7835 0.2049   0.136665
 H 0.4451 0.7561 0.3755   0.126213
 H 0.3554 0.5951 0.3219   0.100082
 C 0.1286 0.8037 0.5413   0.147633
 C 0.2566 0.8366 0.5534   -0.192344
 C 0.3303 0.9304 0.5996   0.073621
 C 0.2695 0.9865 0.6307   -0.158117
 C 0.1431 0.9491 0.6169   0.178275
 C 0.4684 0.9711 0.6135   0.215578
 C 0.5359 0.9126 0.5922   -0.141592
 C 0.6638 0.9555 0.6071   0.002003
 C 0.721 0.0527 0.6453   -0.164889
 C 0.6479 0.1055 0.6649   0.220132
 C 0.8712 0.3518 0.8014   0.154079
 C 0.8236 0.2535 0.7705   -0.205598
 C 0.7029 0.2103 0.7019   0.088112
 C 0.6367 0.27 0.6692   -0.188758
 C 0.6906 0.3665 0.7023   0.178859
 C 0.7404 0.8962 0.5834   0.627755
 C 0.1286 0.5413 0.8037   0.14763
 C 0.2566 0.5534 0.8366   -0.192334
 C 0.3303 0.5996 0.9304   0.073618
 C 0.2695 0.6307 0.9865   -0.158117
 C 0.1431 0.6169 0.9491   0.178275
 C 0.4684 0.6135 0.9711   0.215575
 C 0.5359 0.5922 0.9126   -0.141592
 C 0.6638 0.6071 0.9555   0.002002
 C 0.721 0.6453 0.0527   -0.164889
 C 0.6479 0.6649 0.1055   0.220131
 C 0.8712 0.8014 0.3518   0.154079
 C 0.8236 0.7705 0.2535   -0.205601
 C 0.7029 0.7019 0.2103   0.088114
 C 0.6367 0.6692 0.27   -0.188758
 C 0.6906 0.7023 0.3665   0.178859
 C 0.7404 0.5834 0.8962   0.627755
 C 0.9124 0.7274 0.7274   0.520479
 C 0.8667 0.6418 0.6418   0.538075
 C 0.8714 0.4587 0.1963   0.14763
 C 0.7434 0.4466 0.1634   -0.192334
 C 0.6697 0.4004 0.0696   0.073618
 C 0.7305 0.3693 0.0135   -0.158118
 C 0.8569 0.3831 0.0509   0.178275
 C 0.5316 0.3865 0.0289   0.215575
 C 0.4641 0.4078 0.0874   -0.141592
 C 0.3362 0.3929 0.0445   0.002002
 C 0.279 0.3547 0.9473   -0.164889
 C 0.3521 0.3351 0.8945   0.220131
 C 0.1288 0.1986 0.6482   0.154079
 C 0.1764 0.2295 0.7465   -0.205601
 C 0.2971 0.2981 0.7897   0.088114
 C 0.3633 0.3308 0.73   -0.188758
 C 0.3094 0.2977 0.6335   0.178859
 C 0.2596 0.4166 0.1038   0.627755
 C 0.8714 0.1963 0.4587   0.147633
 C 0.7434 0.1634 0.4466   -0.192345
 C 0.6697 0.0696 0.4004   0.073621
 C 0.7305 0.0135 0.3693   -0.158116
 C 0.8569 0.0509 0.3831   0.178275
 C 0.5316 0.0289 0.3865   0.215577
 C 0.4641 0.0874 0.4078   -0.141593
 C 0.3362 0.0445 0.3929   0.002002
 C 0.279 0.9473 0.3547   -0.164889
 C 0.3521 0.8945 0.3351   0.220132
 C 0.1288 0.6482 0.1986   0.154079
 C 0.1764 0.7465 0.2295   -0.205598
 C 0.2971 0.7897 0.2981   0.088112
 C 0.3633 0.73 0.3308   -0.188758
 C 0.3094 0.6335 0.2977   0.178858
 C 0.2596 0.1038 0.4166   0.627755
 C 0.0876 0.2726 0.2726   0.520479
 C 0.1333 0.3582 0.3582   0.538075
 N 0.0716 0.85878 0.57278   -0.31076
 N 0.523 0.06523 0.64837   -0.388332
 N 0.8074 0.40898 0.76808   -0.314997
 N 0.0716 0.57278 0.85878   -0.310759
 N 0.523 0.64837 0.06523   -0.388331
 N 0.8074 0.76808 0.40898   -0.314997
 N 0.9284 0.42722 0.14122   -0.310759
 N 0.477 0.35163 0.93477   -0.388331
 N 0.1926 0.23192 0.59102   -0.314997
 N 0.9284 0.14122 0.42722   -0.31076
 N 0.477 0.93477 0.35163   -0.388332
 N 0.1926 0.59102 0.23192   -0.314997
 O 0.6898 0.8078 0.5596   -0.570555
 O 0.852 0.93956 0.58828   -0.590252
 O 0.9293 0.80817 0.70865   -0.548735
 O 0.85 0.65988 0.55982   -0.568547
 O 0.6898 0.5596 0.8078   -0.570554
 O 0.852 0.58828 0.93956   -0.590252
 O 0.9293 0.70865 0.80817   -0.548735
 O 0.85 0.55982 0.65988   -0.568546
 O 0.3102 0.4404 0.1922   -0.570555
 O 0.148 0.41172 0.06044   -0.590252
 O 0.0707 0.29135 0.19183   -0.548735
 O 0.15 0.44018 0.34012   -0.568546
 O 0.3102 0.1922 0.4404   -0.570554
 O 0.148 0.06044 0.41172   -0.590252
 O 0.0707 0.19183 0.29135   -0.548735
 O 0.15 0.34012 0.44018   -0.568547
