{'_ref': 'TBD', '_srcid': 'CAKYAQ_clean', 'submitters': [{'name': 'Dalar Nazarian Jeff Camp and David Sholl', 'email': 'dalar@gatech.edu jcamp6@gatech.edu'}], '_method': 'VASP DFT with PBE;DDEC'}
data_CoH6(C3O)4
_symmetry_space_group_name_H-M   'P 1'
_cell_length_a   11.23630004
_cell_length_b   11.23629972
_cell_length_c   20.93200000
_cell_angle_alpha   95.52650262
_cell_angle_beta   95.52650247
_cell_angle_gamma   106.97700084
_symmetry_Int_Tables_number   1
_chemical_formula_structural   CoH6(C3O)4
_chemical_formula_sum   'Co6 H36 C72 O24'
_cell_volume   2494.26091259
_cell_formula_units_Z   6
loop_
 _symmetry_equiv_pos_site_id
 _symmetry_equiv_pos_as_xyz
  1  'x, y, z'
loop_
 _atom_site_label
 _atom_site_fract_x
 _atom_site_fract_y
 _atom_site_fract_z
 _atom_site_charge
 Co 0.51029 0.02373 0.80839   0.953342
 Co 0.97627 0.48971 0.69161   0.953336
 Co 0.48971 0.97627 0.19161   0.953342
 Co 0.02373 0.51029 0.30839   0.953336
 Co 0.75194 0.24806 0.75   1.22373
 Co 0.24806 0.75194 0.25   1.22373
 H 0.7336 0.5194 0.9041   0.082076
 H 0.723 0.6556 0.9905   0.101647
 H 0.3978 0.2878 0.9224   0.101766
 H 0.6536 0.048 0.6092   0.104718
 H 0.7421 0.0273 0.5055   0.082494
 H 0.2842 0.9966 0.6057   0.105384
 H 0.0123 0.2377 0.5304   0.113057
 H 0.0722 0.1724 0.4234   0.114781
 H 0.892 0.9788 0.6468   0.113278
 H 0.4806 0.2664 0.5959   0.082077
 H 0.3444 0.277 0.5095   0.101648
 H 0.7122 0.6022 0.5776   0.101768
 H 0.952 0.3464 0.8908   0.104718
 H 0.9727 0.2579 0.9945   0.082494
 H 0.0034 0.7158 0.8943   0.105385
 H 0.7623 0.9877 0.9696   0.113058
 H 0.8276 0.9278 0.0766   0.114781
 H 0.0212 0.108 0.8532   0.11328
 H 0.2664 0.4806 0.0959   0.082076
 H 0.277 0.3444 0.0095   0.101648
 H 0.6022 0.7122 0.0776   0.101772
 H 0.3464 0.952 0.3908   0.104718
 H 0.2579 0.9727 0.4945   0.082492
 H 0.7158 0.0034 0.3943   0.105382
 H 0.9877 0.7623 0.4696   0.113058
 H 0.9278 0.8276 0.5766   0.114785
 H 0.108 0.0212 0.3532   0.113278
 H 0.5194 0.7336 0.4041   0.082077
 H 0.6556 0.723 0.4905   0.101649
 H 0.2878 0.3978 0.4224   0.101773
 H 0.048 0.6536 0.1092   0.104718
 H 0.0273 0.7421 0.0055   0.082492
 H 0.9966 0.2842 0.1057   0.105383
 H 0.2377 0.0123 0.0304   0.113058
 H 0.1724 0.0722 0.9234   0.114785
 H 0.9788 0.892 0.1468   0.11328
 C 0.5785 0.2961 0.8507   0.717999
 C 0.5664 0.3896 0.9051   -0.136332
 C 0.6633 0.5005 0.9258   -0.030952
 C 0.6569 0.5823 0.9773   -0.138517
 C 0.5495 0.5555 0.0107   0.040289
 C 0.4622 0.362 0.9362   -0.078404
 C 0.4872 0.0362 0.6901   0.686975
 C 0.4735 0.0265 0.6182   -0.123647
 C 0.5744 0.0314 0.5859   -0.051919
 C 0.56 0.0114 0.5175   0.038083
 C 0.6629 0.0143 0.4829   -0.110959
 C 0.353 0.0018 0.5835   -0.050803
 C 0.9148 0.2212 0.6401   0.701329
 C 0.946 0.1232 0.5944   -0.131801
 C 0.9926 0.1548 0.5387   -0.081519
 C 0.0117 0.0619 0.4926   0.042066
 C 0.0566 0.091 0.4337   -0.134094
 C 0.9225 0.9997 0.6083   -0.043361
 C 0.7039 0.4215 0.6493   0.717999
 C 0.6104 0.4336 0.5949   -0.136333
 C 0.4995 0.3367 0.5742   -0.030951
 C 0.4177 0.3431 0.5227   -0.138517
 C 0.4445 0.4505 0.4893   0.040289
 C 0.638 0.5378 0.5638   -0.078403
 C 0.9638 0.5128 0.8099   0.686975
 C 0.9735 0.5265 0.8818   -0.123647
 C 0.9686 0.4256 0.9141   -0.051918
 C 0.9886 0.44 0.9825   0.038083
 C 0.9857 0.3371 0.0171   -0.110958
 C 0.9982 0.647 0.9165   -0.050804
 C 0.7788 0.0852 0.8599   0.701329
 C 0.8768 0.054 0.9056   -0.1318
 C 0.8452 0.0074 0.9613   -0.081519
 C 0.9381 0.9883 0.0074   0.042066
 C 0.909 0.9434 0.0663   -0.134094
 C 0.000300000000003 0.0775 0.8917   -0.043362
 C 0.4215 0.7039 0.1493   0.717999
 C 0.4336 0.6104 0.0949   -0.136331
 C 0.3367 0.4995 0.0742   -0.030953
 C 0.3431 0.4177 0.0227   -0.138513
 C 0.4505 0.4445 0.9893   0.040281
 C 0.5378 0.638 0.0638   -0.078408
 C 0.5128 0.9638 0.3099   0.686976
 C 0.5265 0.9735 0.3818   -0.123651
 C 0.4256 0.9686 0.4141   -0.051916
 C 0.44 0.9886 0.4825   0.038081
 C 0.3371 0.9857 0.5171   -0.110938
 C 0.647 0.9982 0.4165   -0.050782
 C 0.0852 0.7788 0.3599   0.701329
 C 0.054 0.8768 0.4056   -0.131803
 C 0.0074 0.8452 0.4613   -0.081519
 C 0.9883 0.9381 0.5074   0.042064
 C 0.9434 0.909 0.5663   -0.134084
 C 0.0775 0.000300000000003 0.3917   -0.04335
 C 0.2961 0.5785 0.3507   0.717999
 C 0.3896 0.5664 0.4051   -0.136332
 C 0.5005 0.6633 0.4258   -0.030952
 C 0.5823 0.6569 0.4773   -0.138513
 C 0.5555 0.5495 0.5107   0.040281
 C 0.362 0.4622 0.4362   -0.078407
 C 0.0362 0.4872 0.1901   0.686976
 C 0.0265 0.4735 0.1182   -0.123651
 C 0.0314 0.5744 0.0859   -0.051916
 C 0.0114 0.56 0.0175   0.038081
 C 0.0143 0.6629 0.9829   -0.110937
 C 0.0018 0.353 0.0835   -0.050782
 C 0.2212 0.9148 0.1401   0.701329
 C 0.1232 0.946 0.0944   -0.131803
 C 0.1548 0.9926 0.0387   -0.081518
 C 0.0619 0.0117 0.9926   0.042064
 C 0.091 0.0566 0.9337   -0.134084
 C 0.9997 0.9225 0.1083   -0.043351
 O 0.4942 0.1932 0.84056   -0.598619
 O 0.67254 0.32986 0.82152   -0.603786
 O 0.59562 0.08178 0.72338   -0.644972
 O 0.39207 0.99513 0.71767   -0.557687
 O 0.85205 0.17735 0.68424   -0.584407
 O 0.9527 0.3323 0.62986   -0.6094
 O 0.8068 0.5058 0.65944   -0.598618
 O 0.67014 0.32746 0.67848   -0.603786
 O 0.91822 0.40438 0.77662   -0.644971
 O 0.00487 0.60793 0.78233   -0.557687
 O 0.82265 0.14795 0.81576   -0.584408
 O 0.6677 0.0473 0.87014   -0.609401
 O 0.5058 0.8068 0.15944   -0.598619
 O 0.32746 0.67014 0.17848   -0.603786
 O 0.40438 0.91822 0.27662   -0.644971
 O 0.60793 0.00487 0.28233   -0.557687
 O 0.14795 0.82265 0.31576   -0.584407
 O 0.0473 0.6677 0.37014   -0.6094
 O 0.1932 0.4942 0.34056   -0.598618
 O 0.32986 0.67254 0.32152   -0.603786
 O 0.08178 0.59562 0.22338   -0.644971
 O 0.99513 0.39207 0.21767   -0.557687
 O 0.17735 0.85205 0.18424   -0.584408
 O 0.3323 0.9527 0.12986   -0.609401
