{'_ref': 'TBD', '_srcid': 'CAKYAQ_clean', 'submitters': [{'name': 'Dalar Nazarian Jeff Camp and David Sholl', 'email': 'dalar@gatech.edu jcamp6@gatech.edu'}], '_method': 'VASP DFT with PBE;DDEC'}
data_MnH5C11O4
_symmetry_space_group_name_H-M   'P 1'
_cell_length_a   7.45740000
_cell_length_b   12.46299962
_cell_length_c   29.45100000
_cell_angle_alpha   96.32400222
_cell_angle_beta   90.00000000
_cell_angle_gamma   90.00000000
_symmetry_Int_Tables_number   1
_chemical_formula_structural   MnH5C11O4
_chemical_formula_sum   'Mn8 H40 C88 O32'
_cell_volume   2720.56600131
_cell_formula_units_Z   8
loop_
 _symmetry_equiv_pos_site_id
 _symmetry_equiv_pos_as_xyz
  1  'x, y, z'
loop_
 _atom_site_label
 _atom_site_fract_x
 _atom_site_fract_y
 _atom_site_fract_z
 _atom_site_charge
 Mn 0.43186 0.48411 0.76729   1.179595
 Mn 0.93186 0.51589 0.73271   1.179594
 Mn 0.56814 0.51589 0.23271   1.179595
 Mn 0.06814 0.48411 0.26729   1.179594
 Mn 0.5 0.0 0.5   1.136762
 Mn 0.0 0.0 0.0   1.136762
 Mn 0.0 0.0 0.5   1.141455
 Mn 0.5 0.0 0.0   1.141455
 H 0.462 0.3592 0.5128   0.091179
 H 0.4646 0.5351 0.5458   0.103856
 H 0.1293 0.4549 0.6426   0.069111
 H 0.1044 0.2847 0.6053   0.090898
 H 0.2709 0.6931 0.5574   0.112333
 H 0.241 0.7888 0.7125   0.115179
 H 0.9993 0.9987 0.6319   0.111118
 H 0.9647 0.1776 0.6608   0.105195
 H 0.3735 0.1483 0.7469   0.09938
 H 0.3955 0.967 0.7207   0.104858
 H 0.962 0.6408 0.9872   0.091179
 H 0.9646 0.4649 0.9542   0.103856
 H 0.6293 0.5451 0.8574   0.069111
 H 0.6044 0.7153 0.8947   0.090898
 H 0.7709 0.3069 0.9426   0.112333
 H 0.741 0.2112 0.7875   0.115179
 H 0.4993 0.0013 0.8681   0.111118
 H 0.4647 0.8224 0.8392   0.105195
 H 0.8735 0.8517 0.7531   0.09938
 H 0.8955 0.033 0.7793   0.104858
 H 0.538 0.6408 0.4872   0.091179
 H 0.5354 0.4649 0.4542   0.103857
 H 0.8707 0.5451 0.3574   0.069111
 H 0.8956 0.7153 0.3947   0.090898
 H 0.7291 0.3069 0.4426   0.112333
 H 0.759 0.2112 0.2875   0.115179
 H 0.000700000000002 0.0013 0.3681   0.111118
 H 0.0353 0.8224 0.3392   0.105195
 H 0.6265 0.8517 0.2531   0.09938
 H 0.6045 0.033 0.2793   0.104858
 H 0.038 0.3592 0.0128   0.091179
 H 0.0354 0.5351 0.0458   0.103857
 H 0.3707 0.4549 0.1426   0.069111
 H 0.3956 0.2847 0.1053   0.090898
 H 0.2291 0.6931 0.0574   0.112333
 H 0.259 0.7888 0.2125   0.115179
 H 0.5007 0.9987 0.1319   0.111118
 H 0.5353 0.1776 0.1608   0.105195
 H 0.1265 0.1483 0.2469   0.09938
 H 0.1045 0.967 0.2207   0.104858
 C 0.2664 0.1908 0.53153   0.744385
 C 0.2783 0.3033 0.55454   -0.159126
 C 0.3895 0.3793 0.53803   -0.024162
 C 0.3941 0.4845 0.55845   -0.140741
 C 0.2961 0.5156 0.59719   0.060661
 C 0.1913 0.437 0.61546   -0.111703
 C 0.1798 0.3344 0.59366   -0.015513
 C 0.2855 0.6305 0.61774   0.053394
 C 0.2671 0.7122 0.58882   -0.105426
 C 0.2437 0.8199 0.60495   -0.098917
 C 0.2308 0.8975 0.56893   0.732142
 C 0.2328 0.8507 0.6521   0.03393
 C 0.2491 0.77 0.68109   -0.084208
 C 0.2771 0.6622 0.66471   -0.152307
 C 0.3111 0.5851 0.69958   0.682788
 C 0.2053 0.9661 0.67172   0.061516
 C 0.0751 0.0287 0.65495   -0.140013
 C 0.0552 0.1364 0.67201   -0.023762
 C 0.1699 0.1829 0.70575   -0.174343
 C 0.2976 0.1186 0.72378   -0.016993
 C 0.313 0.0103 0.70755   -0.143589
 C 0.1629 0.3042 0.72023   0.739432
 C 0.7664 0.8092 0.96847   0.744385
 C 0.7783 0.6967 0.94546   -0.159126
 C 0.8895 0.6207 0.96197   -0.024162
 C 0.8941 0.5155 0.94155   -0.140741
 C 0.7961 0.4844 0.90281   0.060661
 C 0.6913 0.563 0.88454   -0.111703
 C 0.6798 0.6656 0.90634   -0.015513
 C 0.7855 0.3695 0.88226   0.053394
 C 0.7671 0.2878 0.91118   -0.105426
 C 0.7437 0.1801 0.89505   -0.098917
 C 0.7308 0.1025 0.93107   0.732142
 C 0.7328 0.1493 0.8479   0.03393
 C 0.7491 0.23 0.81891   -0.084208
 C 0.7771 0.3378 0.83529   -0.152307
 C 0.8111 0.4149 0.80042   0.682788
 C 0.7053 0.0339 0.82828   0.061516
 C 0.5751 0.9713 0.84505   -0.140013
 C 0.5552 0.8636 0.82799   -0.023762
 C 0.6699 0.8171 0.79425   -0.174343
 C 0.7976 0.8814 0.77622   -0.016993
 C 0.813 0.9897 0.79245   -0.14359
 C 0.6629 0.6958 0.77977   0.739432
 C 0.7336 0.8092 0.46847   0.744385
 C 0.7217 0.6967 0.44546   -0.159126
 C 0.6105 0.6207 0.46197   -0.024162
 C 0.6059 0.5155 0.44155   -0.140741
 C 0.7039 0.4844 0.40281   0.060661
 C 0.8087 0.563 0.38454   -0.111703
 C 0.8202 0.6656 0.40634   -0.015513
 C 0.7145 0.3695 0.38226   0.053394
 C 0.7329 0.2878 0.41118   -0.105426
 C 0.7563 0.1801 0.39505   -0.098917
 C 0.7692 0.1025 0.43107   0.732142
 C 0.7672 0.1493 0.3479   0.03393
 C 0.7509 0.23 0.31891   -0.084208
 C 0.7229 0.3378 0.33529   -0.152307
 C 0.6889 0.4149 0.30042   0.682788
 C 0.7947 0.0339 0.32828   0.061516
 C 0.9249 0.9713 0.34505   -0.140013
 C 0.9448 0.8636 0.32799   -0.023762
 C 0.8301 0.8171 0.29425   -0.174343
 C 0.7024 0.8814 0.27622   -0.016993
 C 0.687 0.9897 0.29245   -0.143589
 C 0.8371 0.6958 0.27977   0.739432
 C 0.2336 0.1908 0.03153   0.744385
 C 0.2217 0.3033 0.05454   -0.159126
 C 0.1105 0.3793 0.03803   -0.024162
 C 0.1059 0.4845 0.05845   -0.140741
 C 0.2039 0.5156 0.09719   0.060661
 C 0.3087 0.437 0.11546   -0.111703
 C 0.3202 0.3344 0.09366   -0.015513
 C 0.2145 0.6305 0.11774   0.053394
 C 0.2329 0.7122 0.08882   -0.105426
 C 0.2563 0.8199 0.10495   -0.098917
 C 0.2692 0.8975 0.06893   0.732142
 C 0.2672 0.8507 0.1521   0.03393
 C 0.2509 0.77 0.18109   -0.084208
 C 0.2229 0.6622 0.16471   -0.152307
 C 0.1889 0.5851 0.19958   0.682788
 C 0.2947 0.9661 0.17172   0.061516
 C 0.4249 0.0287 0.15495   -0.140013
 C 0.4448 0.1364 0.17201   -0.023762
 C 0.3301 0.1829 0.20575   -0.174343
 C 0.2024 0.1186 0.22378   -0.016993
 C 0.187 0.0103 0.20755   -0.14359
 C 0.3371 0.3042 0.22023   0.739432
 O 0.4007 0.1562 0.5085   -0.643086
 O 0.1248 0.1395 0.53598   -0.633469
 O 0.3696 0.9484 0.56081   -0.62789
 O 0.0823 0.8992 0.54896   -0.627559
 O 0.2005 0.58204 0.73241   -0.670574
 O 0.4534 0.5335 0.69756   -0.562662
 O 0.0293 0.3551 0.70825   -0.626775
 O 0.2946 0.3422 0.74304   -0.647243
 O 0.9007 0.8438 0.9915   -0.643086
 O 0.6248 0.8605 0.96402   -0.633469
 O 0.8696 0.0516 0.93919   -0.62789
 O 0.5823 0.1008 0.95104   -0.627559
 O 0.7005 0.41796 0.76759   -0.670574
 O 0.9534 0.4665 0.80244   -0.562662
 O 0.5293 0.6449 0.79175   -0.626776
 O 0.7946 0.6578 0.75696   -0.647243
 O 0.5993 0.8438 0.4915   -0.643086
 O 0.8752 0.8605 0.46402   -0.633469
 O 0.6304 0.0516 0.43919   -0.62789
 O 0.9177 0.1008 0.45104   -0.627559
 O 0.7995 0.41796 0.26759   -0.670574
 O 0.5466 0.4665 0.30244   -0.562662
 O 0.9707 0.6449 0.29175   -0.626775
 O 0.7054 0.6578 0.25696   -0.647243
 O 0.0993 0.1562 0.0085   -0.643086
 O 0.3752 0.1395 0.03598   -0.633469
 O 0.1304 0.9484 0.06081   -0.62789
 O 0.4177 0.8992 0.04896   -0.627559
 O 0.2995 0.58204 0.23241   -0.670574
 O 0.0466 0.5335 0.19756   -0.562662
 O 0.4707 0.3551 0.20825   -0.626776
 O 0.2054 0.3422 0.24304   -0.647243
