{'_ref': 'TBD', '_srcid': 'CAKYAQ_clean', 'submitters': [{'name': 'Dalar Nazarian Jeff Camp and David Sholl', 'email': 'dalar@gatech.edu jcamp6@gatech.edu'}], '_method': 'VASP DFT with PBE;DDEC'}
data_Na2Zn2H2C26Cl12O13
_symmetry_space_group_name_H-M   'P 1'
_cell_length_a   12.79069973
_cell_length_b   12.79069985
_cell_length_c   19.25800000
_cell_angle_alpha   71.12259972
_cell_angle_beta   71.12259953
_cell_angle_gamma   86.73390035
_symmetry_Int_Tables_number   1
_chemical_formula_structural   Na2Zn2H2C26Cl12O13
_chemical_formula_sum   'Na4 Zn4 H4 C52 Cl24 O26'
_cell_volume   2816.82734431
_cell_formula_units_Z   2
loop_
 _symmetry_equiv_pos_site_id
 _symmetry_equiv_pos_as_xyz
  1  'x, y, z'
loop_
 _atom_site_label
 _atom_site_fract_x
 _atom_site_fract_y
 _atom_site_fract_z
 _atom_site_charge
 Na 0.81709 0.01845 0.24256   0.957948
 Na 0.98155 0.18291 0.25744   0.957947
 Na 0.18291 0.98155 0.75744   0.957948
 Na 0.01845 0.81709 0.74256   0.957947
 Zn 0.72528 0.79118 0.41158   1.12721
 Zn 0.20882 0.27472 0.08842   1.12721
 Zn 0.27472 0.20882 0.58842   1.12721
 Zn 0.79118 0.72528 0.91158   1.12721
 H 0.786 0.1822 0.2968   0.471829
 H 0.8178 0.214 0.2032   0.471838
 H 0.214 0.8178 0.7032   0.471829
 H 0.1822 0.786 0.7968   0.471838
 C 0.8401 0.7449 0.2739   0.739827
 C 0.905 0.6628 0.2361   -0.143128
 C 0.8699 0.6255 0.1863   0.09356
 C 0.9324 0.553 0.1505   0.070777
 C 0.0298 0.5162 0.1643   -0.172738
 C 0.0641 0.5525 0.2152   0.089801
 C 0.0026 0.6254 0.25   0.087441
 C 0.1048 0.4468 0.1202   0.718265
 C 0.885 0.9438 0.4067   0.782617
 C 0.947 0.9752 0.4539   -0.183991
 C 0.0513 0.9403 0.4504   0.108396
 C 0.8943 0.0359 0.5028   0.076884
 C 0.7183 0.2653 0.2264   -0.335565
 C 0.2551 0.1599 0.2261   0.739827
 C 0.3372 0.095 0.2639   -0.143129
 C 0.3745 0.1301 0.3137   0.093561
 C 0.447 0.0676 0.3495   0.070779
 C 0.4838 0.9702 0.3357   -0.172738
 C 0.4475 0.9359 0.2848   0.089801
 C 0.3746 0.9974 0.25   0.087441
 C 0.5532 0.8952 0.3798   0.718265
 C 0.0562 0.115 0.0933   0.782617
 C 0.0248 0.053 0.0461   -0.183991
 C 0.0597 0.9487 0.0496   0.108396
 C 0.9641 0.1057 0.9972   0.076883
 C 0.7347 0.2817 0.2736   -0.335317
 C 0.1599 0.2551 0.7261   0.739827
 C 0.095 0.3372 0.7639   -0.143128
 C 0.1301 0.3745 0.8137   0.09356
 C 0.0676 0.447 0.8495   0.070777
 C 0.9702 0.4838 0.8357   -0.172738
 C 0.9359 0.4475 0.7848   0.089801
 C 0.9974 0.3746 0.75   0.087441
 C 0.8952 0.5532 0.8798   0.718265
 C 0.115 0.0562 0.5933   0.782617
 C 0.053 0.0248 0.5461   -0.183991
 C 0.9487 0.0597 0.5496   0.108397
 C 0.1057 0.9641 0.4972   0.076884
 C 0.2817 0.7347 0.7736   -0.335565
 C 0.7449 0.8401 0.7739   0.739827
 C 0.6628 0.905 0.7361   -0.143129
 C 0.6255 0.8699 0.6863   0.093561
 C 0.553 0.9324 0.6505   0.070779
 C 0.5162 0.0298 0.6643   -0.172738
 C 0.5525 0.0641 0.7152   0.089801
 C 0.6254 0.0026 0.75   0.087441
 C 0.4468 0.1048 0.6202   0.718265
 C 0.9438 0.885 0.9067   0.782617
 C 0.9752 0.947 0.9539   -0.183991
 C 0.9403 0.0513 0.9504   0.108397
 C 0.0359 0.8943 0.0028   0.076884
 C 0.2653 0.7183 0.7264   -0.335317
 Cl 0.74932 0.67324 0.16722   -0.054319
 Cl 0.89153 0.51295 0.08503   -0.049097
 Cl 0.04904 0.67452 0.30962   -0.078022
 Cl 0.18357 0.50187 0.23503   -0.060941
 Cl 0.117 0.86552 0.38933   -0.032661
 Cl 0.76365 0.08181 0.5048   -0.041688
 Cl 0.32676 0.25068 0.33278   -0.054318
 Cl 0.48705 0.10847 0.41497   -0.0491
 Cl 0.32548 0.95096 0.19038   -0.078023
 Cl 0.49813 0.81643 0.26497   -0.060942
 Cl 0.13448 0.883 0.11067   -0.032661
 Cl 0.91819 0.23635 0.9952   -0.041687
 Cl 0.25068 0.32676 0.83278   -0.054319
 Cl 0.10847 0.48705 0.91497   -0.049097
 Cl 0.95096 0.32548 0.69038   -0.078022
 Cl 0.81643 0.49813 0.76497   -0.060941
 Cl 0.883 0.13448 0.61067   -0.03266
 Cl 0.23635 0.91819 0.4952   -0.041688
 Cl 0.67324 0.74932 0.66722   -0.054318
 Cl 0.51295 0.89153 0.58503   -0.0491
 Cl 0.67452 0.04904 0.80962   -0.078022
 Cl 0.50187 0.18357 0.73503   -0.060942
 Cl 0.86552 0.117 0.88933   -0.032661
 Cl 0.08181 0.76365 0.0048   -0.041686
 O 0.7832 0.699 0.3452   -0.635686
 O 0.849 0.842 0.2354   -0.670742
 O 0.0818 0.3442 0.1452   -0.755123
 O 0.1828 0.4926 0.0637   -0.548906
 O 0.8929 0.0049 0.3416   -0.75928
 O 0.8304 0.8508 0.4437   -0.628734
 O 0.301 0.2168 0.1548   -0.635686
 O 0.158 0.151 0.2646   -0.670741
 O 0.6558 0.9182 0.3548   -0.755123
 O 0.5074 0.8172 0.4363   -0.548906
 O 0.9951 0.1071 0.1584   -0.759281
 O 0.1492 0.1696 0.0563   -0.628734
 O 0.2168 0.301 0.6548   -0.635686
 O 0.151 0.158 0.7646   -0.670742
 O 0.9182 0.6558 0.8548   -0.755123
 O 0.8172 0.5074 0.9363   -0.548906
 O 0.1071 0.9951 0.6584   -0.75928
 O 0.1696 0.1492 0.5563   -0.628734
 O 0.699 0.7832 0.8452   -0.635686
 O 0.842 0.849 0.7354   -0.670741
 O 0.3442 0.0818 0.6452   -0.755123
 O 0.4926 0.1828 0.5637   -0.548905
 O 0.0049 0.8929 0.8416   -0.759281
 O 0.8508 0.8304 0.9437   -0.628734
 O 0.7961 0.2039 0.25   -0.348125
 O 0.2039 0.7961 0.75   -0.348125
