{'_ref': 'TBD', '_srcid': 'CAKYAQ_clean', 'submitters': [{'name': 'Dalar Nazarian Jeff Camp and David Sholl', 'email': 'dalar@gatech.edu jcamp6@gatech.edu'}], '_method': 'VASP DFT with PBE;DDEC'}
data_MnZn2H36C72(N2O3)4
_symmetry_space_group_name_H-M   'P 1'
_cell_length_a   13.45880034
_cell_length_b   13.45879976
_cell_length_c   14.63880000
_cell_angle_alpha   108.09200177
_cell_angle_beta   111.11599821
_cell_angle_gamma   105.68699857
_symmetry_Int_Tables_number   1
_chemical_formula_structural   MnZn2H36C72(N2O3)4
_chemical_formula_sum   'Mn1 Zn2 H36 C72 N8 O12'
_cell_volume   2121.61548548
_cell_formula_units_Z   1
loop_
 _symmetry_equiv_pos_site_id
 _symmetry_equiv_pos_as_xyz
  1  'x, y, z'
loop_
 _atom_site_label
 _atom_site_fract_x
 _atom_site_fract_y
 _atom_site_fract_z
 _atom_site_charge
 Mn 0.5 0.5 0.0   0.749974
 Zn 0.5279 0.91721 0.44511   0.739271
 Zn 0.4721 0.08279 0.55489   0.739272
 H 0.8789 0.7928 0.0753   0.133382
 H 0.8859 0.523 0.2605   0.117286
 H 0.9239 0.8074 0.2879   0.101266
 H 0.1263 0.9106 0.3837   0.064039
 H 0.1726 0.674 0.211   0.092338
 H 0.9702 0.5708 0.1152   0.090781
 H 0.7427 0.353 0.4869   0.114612
 H 0.7175 0.8036 0.9247   0.134371
 H 0.2625 0.6254 0.7395   0.117252
 H 0.5195 0.636 0.7121   0.101729
 H 0.5269 0.7426 0.6163   0.064027
 H 0.463 0.9616 0.789   0.093407
 H 0.4556 0.855 0.8848   0.091229
 H 0.8661 0.2558 0.5131   0.114998
 H 0.1211 0.2072 0.9247   0.133383
 H 0.1141 0.477 0.7395   0.117279
 H 0.0761 0.1926 0.7121   0.101266
 H 0.8737 0.0894 0.6163   0.064039
 H 0.8274 0.326 0.789   0.092339
 H 0.0298 0.4292 0.8848   0.090783
 H 0.2573 0.647 0.5131   0.114612
 H 0.2825 0.1964 0.0753   0.134371
 H 0.7375 0.3746 0.2605   0.117245
 H 0.4805 0.364 0.2879   0.101729
 H 0.4731 0.2574 0.3837   0.064027
 H 0.537 0.0384 0.211   0.093408
 H 0.5444 0.145 0.1152   0.091231
 H 0.1339 0.7442 0.4869   0.114998
 H 0.5498 0.7456 0.2954   0.091879
 H 0.6669 0.637 0.3039   0.112508
 H 0.8217 0.7801 0.6018   0.147704
 H 0.7101 0.8924 0.6025   0.076522
 H 0.4502 0.2544 0.7046   0.091879
 H 0.3331 0.363 0.6961   0.112508
 H 0.1783 0.2199 0.3982   0.147704
 H 0.2899 0.1076 0.3975   0.076522
 C 0.7981 0.7469 0.04   -0.188678
 C 0.7392 0.6503 0.0549   0.190195
 C 0.7912 0.6164 0.1356   -0.151648
 C 0.7382 0.535 0.152   0.234517
 C 0.8043 0.4967 0.223   -0.169681
 C 0.9285 0.6797 0.1928   0.091294
 C 0.9747 0.7801 0.2722   -0.134706
 C 0.0945 0.8412 0.3289   -0.03736
 C 0.168 0.8017 0.3061   -0.123255
 C 0.1218 0.7013 0.2267   -0.035683
 C 0.002 0.6402 0.17   -0.138941
 C 0.3099 0.8917 0.3868   0.4859
 C 0.785 0.5553 0.4747   0.525301
 C 0.8168 0.3821 0.4925   -0.027234
 C 0.8595 0.482 0.4867   -0.164693
 C 0.7069 0.7581 0.96   -0.189649
 C 0.5954 0.6843 0.9451   0.189935
 C 0.4808 0.6556 0.8644   -0.15066
 C 0.383 0.5862 0.848   0.233386
 C 0.2737 0.5813 0.777   -0.168921
 C 0.4869 0.7357 0.8072   0.090628
 C 0.5079 0.7025 0.7278   -0.135955
 C 0.5123 0.7656 0.6711   -0.036655
 C 0.4956 0.8619 0.6939   -0.120993
 C 0.4746 0.8951 0.7733   -0.039196
 C 0.4702 0.832 0.83   -0.138058
 C 0.5049 0.9231 0.6132   0.484534
 C 0.0806 0.3103 0.5253   0.525988
 C 0.8896 0.3243 0.5075   -0.027854
 C 0.9953 0.3728 0.5133   -0.166546
 C 0.2019 0.2531 0.96   -0.188678
 C 0.2608 0.3497 0.9451   0.190196
 C 0.2088 0.3836 0.8644   -0.151647
 C 0.2618 0.465 0.848   0.234509
 C 0.1957 0.5033 0.777   -0.169617
 C 0.0715 0.3203 0.8072   0.091293
 C 0.0253 0.2199 0.7278   -0.134706
 C 0.9055 0.1588 0.6711   -0.03736
 C 0.832 0.1983 0.6939   -0.123255
 C 0.8782 0.2987 0.7733   -0.035682
 C 0.998 0.3598 0.83   -0.138942
 C 0.6901 0.1083 0.6132   0.485903
 C 0.215 0.4447 0.5253   0.525302
 C 0.1832 0.6179 0.5075   -0.027234
 C 0.1405 0.518 0.5133   -0.164692
 C 0.2931 0.2419 0.04   -0.18965
 C 0.4046 0.3157 0.0549   0.189935
 C 0.5192 0.3444 0.1356   -0.15066
 C 0.617 0.4138 0.152   0.233379
 C 0.7263 0.4187 0.223   -0.168857
 C 0.5131 0.2643 0.1928   0.090627
 C 0.4921 0.2975 0.2722   -0.135955
 C 0.4877 0.2344 0.3289   -0.036654
 C 0.5044 0.1381 0.3061   -0.120993
 C 0.5254 0.1049 0.2267   -0.039196
 C 0.5298 0.168 0.17   -0.138058
 C 0.4951 0.0769 0.3868   0.484538
 C 0.9194 0.6897 0.4747   0.525989
 C 0.1104 0.6757 0.4925   -0.027854
 C 0.0047 0.6272 0.4867   -0.166546
 C 0.603 0.7572 0.3602   0.153759
 C 0.678 0.691 0.369   -0.202013
 C 0.7528 0.7052 0.458   0.25534
 C 0.7657 0.7693 0.535   -0.208509
 C 0.696 0.8394 0.5354   0.131388
 C 0.9654 0.5338 0.4992   0.061733
 C 0.397 0.2428 0.6398   0.153759
 C 0.322 0.309 0.631   -0.202013
 C 0.2472 0.2948 0.542   0.25534
 C 0.2343 0.2307 0.465   -0.208509
 C 0.304 0.1606 0.4646   0.131388
 C 0.0346 0.4662 0.5008   0.061731
 N 0.6147 0.8285 0.4432   -0.186821
 N 0.8257 0.6427 0.4684   -0.181621
 N 0.3853 0.1715 0.5568   -0.186821
 N 0.1743 0.3573 0.5316   -0.181621
 N 0.6186 0.6186 0.0   -0.439468
 N 0.3814 0.3814 0.0   -0.439467
 N 0.6324 0.4808 0.1132   -0.360794
 N 0.3676 0.5192 0.8868   -0.360794
 O 0.3606 0.8221 0.3579   -0.508768
 O 0.3232 0.9593 0.4689   -0.378077
 O 0.7042 0.52 0.483   -0.464127
 O 0.4642 0.0027 0.6421   -0.508828
 O 0.4904 0.8543 0.5311   -0.377712
 O 0.037 0.2212 0.517   -0.46444
 O 0.6394 0.1779 0.6421   -0.508768
 O 0.6768 0.0407 0.5311   -0.378078
 O 0.2958 0.48 0.517   -0.464127
 O 0.5358 0.9973 0.3579   -0.508828
 O 0.5096 0.1457 0.4689   -0.377712
 O 0.963 0.7788 0.483   -0.464441
