{'_ref': 'TBD', '_srcid': 'CAKYAQ_clean', 'submitters': [{'name': 'Dalar Nazarian Jeff Camp and David Sholl', 'email': 'dalar@gatech.edu jcamp6@gatech.edu'}], '_method': 'VASP DFT with PBE;DDEC'}
data_MnZn2H36C72(N2O3)4
_symmetry_space_group_name_H-M   'P 1'
_cell_length_a   13.37200011
_cell_length_b   14.16400051
_cell_length_c   16.71300000
_cell_angle_alpha   69.62599933
_cell_angle_beta   68.78599963
_cell_angle_gamma   73.54400023
_symmetry_Int_Tables_number   1
_chemical_formula_structural   MnZn2H36C72(N2O3)4
_chemical_formula_sum   'Mn1 Zn2 H36 C72 N8 O12'
_cell_volume   2721.15996403
_cell_formula_units_Z   1
loop_
 _symmetry_equiv_pos_site_id
 _symmetry_equiv_pos_as_xyz
  1  'x, y, z'
loop_
 _atom_site_label
 _atom_site_fract_x
 _atom_site_fract_y
 _atom_site_fract_z
 _atom_site_charge
 Mn 0.5 0.0 0.5   0.961027
 Zn 0.08223 0.5671 0.95932   0.878156
 Zn 0.91777 0.4329 0.04068   0.878156
 H 0.9585 0.7741 0.743   0.113499
 H 0.854 0.8734 0.632   0.125691
 H 0.6155 0.7219 0.7879   0.110272
 H 0.7154 0.6239 0.8815   0.09935
 H 0.5944 0.9509 0.7812   0.123102
 H 0.4435 0.0971 0.7818   0.129541
 H 0.188 0.293 0.5731   0.137693
 H 0.1805 0.2831 0.4346   0.141366
 H 0.3964 0.3265 0.6413   0.101101
 H 0.3101 0.4238 0.7526   0.132036
 H 0.0837 0.2346 0.8741   0.135642
 H 0.1842 0.1455 0.7621   0.09354
 H 0.1769 0.5988 0.0814   0.11275
 H 0.2908 0.6967 0.0757   0.141012
 H 0.3112 0.8303 0.8126   0.168465
 H 0.2132 0.7249 0.8316   0.045612
 H 0.2633 0.1331 0.9541   0.102118
 H 0.6552 0.7598 0.0278   0.115657
 H 0.0415 0.2259 0.257   0.1135
 H 0.146 0.1266 0.368   0.125694
 H 0.3845 0.2781 0.2121   0.110271
 H 0.2846 0.3761 0.1185   0.09935
 H 0.4056 0.0491 0.2188   0.123102
 H 0.5565 0.9029 0.2182   0.129541
 H 0.812 0.707 0.4269   0.137695
 H 0.8195 0.7169 0.5654   0.141368
 H 0.6036 0.6735 0.3587   0.101102
 H 0.6899 0.5762 0.2474   0.132036
 H 0.9163 0.7654 0.1259   0.135642
 H 0.8158 0.8545 0.2379   0.09354
 H 0.8231 0.4012 0.9186   0.11275
 H 0.7092 0.3033 0.9243   0.141013
 H 0.6888 0.1697 0.1874   0.168465
 H 0.7868 0.2751 0.1684   0.045612
 H 0.7367 0.8669 0.0459   0.102118
 H 0.3448 0.2402 0.9722   0.115658
 C 0.9141 0.6328 0.884   0.633913
 C 0.8418 0.6905 0.8205   -0.123468
 C 0.8901 0.7629 0.7503   -0.066139
 C 0.826 0.8247 0.684   -0.194733
 C 0.7229 0.8031 0.707   0.108746
 C 0.6852 0.7332 0.7763   -0.154837
 C 0.7444 0.6754 0.8328   0.007717
 C 0.6566 0.8651 0.641   -0.136094
 C 0.5809 0.9465 0.6601   0.206616
 C 0.5575 0.9802 0.7382   -0.154208
 C 0.4744 0.0604 0.7395   -0.158363
 C 0.4442 0.0765 0.6615   0.229054
 C 0.3532 0.1542 0.64   -0.116675
 C 0.3294 0.1717 0.5624   0.212511
 C 0.2353 0.2487 0.5399   -0.147191
 C 0.2308 0.2431 0.4652   -0.151363
 C 0.3202 0.1618 0.4385   0.202743
 C 0.2992 0.2188 0.6987   0.077002
 C 0.3364 0.3072 0.6891   -0.149911
 C 0.2822 0.3701 0.7535   -0.085678
 C 0.1872 0.3415 0.8144   -0.120449
 C 0.1449 0.2548 0.8282   -0.073201
 C 0.211 0.2006 0.7602   -0.110398
 C 0.1193 0.4083 0.8888   0.598175
 C 0.2032 0.6457 0.0274   0.085992
 C 0.2713 0.7116 0.024   -0.219644
 C 0.3109 0.7915 0.9572   0.267085
 C 0.285 0.7881 0.8694   -0.295979
 C 0.2208 0.7172 0.8868   0.230952
 C 0.327 0.9523 0.9525   0.487411
 C 0.467 0.802 0.9831   0.446344
 C 0.3296 0.1061 0.9667   -0.003968
 C 0.369 0.008 0.9712   -0.160664
 C 0.4772 0.9639 0.9928   0.047557
 C 0.522 0.8616 0.998   -0.135376
 C 0.6218 0.8281 0.0209   -0.046423
 C 0.0859 0.3672 0.116   0.633913
 C 0.1582 0.3095 0.1795   -0.123468
 C 0.1099 0.2371 0.2497   -0.066138
 C 0.174 0.1753 0.316   -0.194734
 C 0.2771 0.1969 0.293   0.108746
 C 0.3148 0.2668 0.2237   -0.154837
 C 0.2556 0.3246 0.1672   0.007717
 C 0.3434 0.1349 0.359   -0.136096
 C 0.4191 0.0535 0.3399   0.206617
 C 0.4425 0.0198 0.2618   -0.154208
 C 0.5256 0.9396 0.2605   -0.158363
 C 0.5558 0.9235 0.3385   0.229054
 C 0.6468 0.8458 0.36   -0.116675
 C 0.6706 0.8283 0.4376   0.212511
 C 0.7647 0.7513 0.4601   -0.147191
 C 0.7692 0.7569 0.5348   -0.151363
 C 0.6798 0.8382 0.5615   0.202742
 C 0.7008 0.7812 0.3013   0.077002
 C 0.6636 0.6928 0.3109   -0.149911
 C 0.7178 0.6299 0.2465   -0.085678
 C 0.8128 0.6585 0.1856   -0.120449
 C 0.8551 0.7452 0.1718   -0.073201
 C 0.789 0.7994 0.2398   -0.110398
 C 0.8807 0.5917 0.1112   0.598175
 C 0.7968 0.3543 0.9726   0.085992
 C 0.7287 0.2884 0.976   -0.219644
 C 0.6891 0.2085 0.0428   0.267085
 C 0.715 0.2119 0.1306   -0.295979
 C 0.7792 0.2828 0.1132   0.230952
 C 0.673 0.0477 0.0475   0.487411
 C 0.533 0.198 0.0169   0.446344
 C 0.6704 0.8939 0.0333   -0.00397
 C 0.631 0.992 0.0288   -0.160663
 C 0.5228 0.0361 0.0072   0.047557
 C 0.478 0.1384 0.002   -0.135375
 C 0.3782 0.1719 0.9791   -0.046425
 N 0.5055 0.0106 0.6119   -0.458483
 N 0.3752 0.1119 0.5046   -0.440985
 N 0.1696 0.6501 0.9379   -0.263926
 N 0.3645 0.8529 0.9594   -0.193328
 N 0.4945 0.9894 0.3881   -0.458483
 N 0.6248 0.8881 0.4954   -0.440985
 N 0.8304 0.3499 0.0621   -0.263925
 N 0.6355 0.1471 0.0406   -0.193328
 O 0.9985 0.6589 0.8749   -0.516804
 O 0.8684 0.5545 0.9415   -0.61177
 O 0.0331 0.3755 0.94   -0.550524
 O 0.1618 0.4838 0.874   -0.520795
 O 0.237 0.9788 0.9327   -0.51907
 O 0.5033 0.7082 0.9884   -0.448489
 O 0.0015 0.3411 0.1251   -0.516804
 O 0.1316 0.4455 0.0585   -0.611771
 O 0.9669 0.6245 0.06   -0.550524
 O 0.8382 0.5162 0.126   -0.520795
 O 0.763 0.0212 0.0673   -0.51907
 O 0.4967 0.2918 0.0116   -0.448489
