{'_ref': 'TBD', '_srcid': 'CAKYAQ_clean', 'submitters': [{'name': 'Dalar Nazarian Jeff Camp and David Sholl', 'email': 'dalar@gatech.edu jcamp6@gatech.edu'}], '_method': 'VASP DFT with PBE;DDEC'}
data_ZnH4(C2O)4
_symmetry_space_group_name_H-M   'P 1'
_cell_length_a   12.69770000
_cell_length_b   15.10330000
_cell_length_c   18.90300000
_cell_angle_alpha   90.00000000
_cell_angle_beta   90.00000000
_cell_angle_gamma   90.00000000
_symmetry_Int_Tables_number   1
_chemical_formula_structural   ZnH4(C2O)4
_chemical_formula_sum   'Zn8 H32 C64 O32'
_cell_volume   3625.16389007
_cell_formula_units_Z   8
loop_
 _symmetry_equiv_pos_site_id
 _symmetry_equiv_pos_as_xyz
  1  'x, y, z'
loop_
 _atom_site_label
 _atom_site_fract_x
 _atom_site_fract_y
 _atom_site_fract_z
 _atom_site_charge
 Zn 0.19879 0.04828 0.22575   1.035127
 Zn 0.12767 0.19123 0.38199   1.026023
 Zn 0.30121 0.95172 0.72575   1.035127
 Zn 0.37233 0.80877 0.88199   1.026023
 Zn 0.80121 0.54828 0.27425   1.035127
 Zn 0.87233 0.69123 0.11801   1.026023
 Zn 0.69879 0.45172 0.77425   1.035127
 Zn 0.62767 0.30877 0.61801   1.026023
 H 0.466 0.9765 0.319   0.096024
 H 0.6422 0.9633 0.3514   0.102664
 H 0.7109 0.0521 0.4395   0.08459
 H 0.4317 0.1743 0.4598   0.114229
 H 0.2194 0.2639 0.1056   0.093809
 H 0.1913 0.3726 0.0214   0.11876
 H 0.0902 0.4957 0.0493   0.112281
 H 0.0512 0.404 0.247   0.099266
 H 0.034 0.0235 0.819   0.096024
 H 0.8578 0.0367 0.8514   0.102664
 H 0.7891 0.9479 0.9395   0.08459
 H 0.0683 0.8257 0.9598   0.114229
 H 0.2806 0.7361 0.6056   0.093809
 H 0.3087 0.6274 0.5214   0.11876
 H 0.4098 0.5043 0.5493   0.112281
 H 0.4488 0.596 0.747   0.099266
 H 0.534 0.4765 0.181   0.096024
 H 0.3578 0.4633 0.1486   0.102664
 H 0.2891 0.5521 0.0605   0.08459
 H 0.5683 0.6743 0.0402   0.114229
 H 0.7806 0.7639 0.3944   0.093809
 H 0.8087 0.8726 0.4786   0.11876
 H 0.9098 0.9957 0.4507   0.112281
 H 0.9488 0.904 0.253   0.099265
 H 0.966 0.5235 0.681   0.096024
 H 0.1422 0.5367 0.6486   0.102664
 H 0.2109 0.4479 0.5605   0.08459
 H 0.9317 0.3257 0.5402   0.114229
 H 0.7194 0.2361 0.8944   0.093809
 H 0.6913 0.1274 0.9786   0.11876
 H 0.5902 0.0043 0.9507   0.112281
 H 0.5512 0.096 0.753   0.099266
 C 0.3172 0.08755 0.36565   0.736587
 C 0.4312 0.07645 0.38643   -0.192327
 C 0.494 0.01315 0.35376   -0.02057
 C 0.5995 0.0049 0.37354   -0.136422
 C 0.6409 0.0586 0.42598   -0.008427
 C 0.5785 0.12219 0.45859   -0.149934
 C 0.4736 0.13143 0.43849   0.013346
 C 0.6245 0.17848 0.51717   0.645926
 C 0.1557 0.25148 0.23937   0.73497
 C 0.1799 0.31379 0.11701   -0.010539
 C 0.1627 0.37855 0.06641   -0.131456
 C 0.1024 0.45242 0.08329   0.007111
 C 0.06032 0.46203 0.15074   -0.185569
 C 0.0787 0.39745 0.20174   0.024563
 C 0.1385 0.32279 0.18488   -0.184776
 C 0.98846 0.53926 0.16717   0.728416
 C 0.1828 0.91245 0.86565   0.736587
 C 0.0688 0.92355 0.88643   -0.192327
 C 0.006 0.98685 0.85376   -0.020569
 C 0.9005 0.9951 0.87354   -0.136422
 C 0.8591 0.9414 0.92598   -0.008427
 C 0.9215 0.87781 0.95859   -0.149934
 C 0.0264 0.86857 0.93849   0.013346
 C 0.8755 0.82152 0.01717   0.645926
 C 0.3443 0.74852 0.73937   0.73497
 C 0.3201 0.68621 0.61701   -0.010539
 C 0.3373 0.62145 0.56641   -0.131456
 C 0.3976 0.54758 0.58329   0.007111
 C 0.43968 0.53797 0.65074   -0.185569
 C 0.4213 0.60255 0.70174   0.024563
 C 0.3615 0.67721 0.68488   -0.184776
 C 0.51154 0.46074 0.66717   0.728416
 C 0.6828 0.58755 0.13435   0.736587
 C 0.5688 0.57645 0.11357   -0.192327
 C 0.506 0.51315 0.14624   -0.02057
 C 0.4005 0.5049 0.12646   -0.136423
 C 0.3591 0.5586 0.07402   -0.008427
 C 0.4215 0.62219 0.04141   -0.149934
 C 0.5264 0.63143 0.06151   0.013346
 C 0.3755 0.67848 0.98283   0.645926
 C 0.8443 0.75148 0.26063   0.734971
 C 0.8201 0.81379 0.38299   -0.010539
 C 0.8373 0.87855 0.43359   -0.131456
 C 0.8976 0.95242 0.41671   0.007111
 C 0.93968 0.96203 0.34926   -0.185569
 C 0.9213 0.89745 0.29826   0.024563
 C 0.8615 0.82279 0.31512   -0.184776
 C 0.01154 0.03926 0.33283   0.728416
 C 0.8172 0.41245 0.63435   0.736587
 C 0.9312 0.42355 0.61357   -0.192327
 C 0.994 0.48685 0.64624   -0.020569
 C 0.0995 0.4951 0.62646   -0.136422
 C 0.1409 0.4414 0.57402   -0.008427
 C 0.0785 0.37781 0.54141   -0.149934
 C 0.9736 0.36857 0.56151   0.013346
 C 0.1245 0.32152 0.48283   0.645926
 C 0.6557 0.24852 0.76063   0.734971
 C 0.6799 0.18621 0.88299   -0.010539
 C 0.6627 0.12145 0.93359   -0.131456
 C 0.6024 0.04758 0.91671   0.007111
 C 0.56032 0.03797 0.84926   -0.185569
 C 0.5787 0.10255 0.79826   0.024563
 C 0.6385 0.17721 0.81512   -0.184776
 C 0.48846 0.96074 0.83283   0.728416
 O 0.27835 0.03562 0.32094   -0.657333
 O 0.26971 0.14922 0.39702   -0.568441
 O 0.56602 0.24118 0.54013   -0.587151
 O 0.7128 0.16217 0.53976   -0.495457
 O 0.21224 0.18659 0.22331   -0.653598
 O 0.11016 0.2639 0.29802   -0.575457
 O 0.95354 0.54777 0.22813   -0.647467
 O 0.96897 0.58954 0.11529   -0.568766
 O 0.22165 0.96438 0.82094   -0.657333
 O 0.23029 0.85078 0.89702   -0.568441
 O 0.93398 0.75882 0.04013   -0.587151
 O 0.7872 0.83783 0.03976   -0.495457
 O 0.28776 0.81341 0.72331   -0.653598
 O 0.38984 0.7361 0.79802   -0.575457
 O 0.54646 0.45223 0.72813   -0.647467
 O 0.53103 0.41046 0.61529   -0.568766
 O 0.72165 0.53562 0.17906   -0.657333
 O 0.73029 0.64922 0.10298   -0.568441
 O 0.43398 0.74118 0.95987   -0.587151
 O 0.2872 0.66217 0.96024   -0.495457
 O 0.78776 0.68659 0.27669   -0.653598
 O 0.88984 0.7639 0.20198   -0.575457
 O 0.04646 0.04777 0.27187   -0.647467
 O 0.03103 0.08954 0.38471   -0.568766
 O 0.77835 0.46438 0.67906   -0.657333
 O 0.76971 0.35078 0.60298   -0.568441
 O 0.06602 0.25882 0.45987   -0.587151
 O 0.2128 0.33783 0.46024   -0.495457
 O 0.71224 0.31341 0.77669   -0.653598
 O 0.61016 0.2361 0.70198   -0.575457
 O 0.45354 0.95223 0.77187   -0.647467
 O 0.46897 0.91046 0.88471   -0.568766
