{'_ref': 'TBD', '_srcid': 'CAKYAQ_clean', 'submitters': [{'name': 'Dalar Nazarian Jeff Camp and David Sholl', 'email': 'dalar@gatech.edu jcamp6@gatech.edu'}], '_method': 'VASP DFT with PBE;DDEC'}
data_ZnH4(CN)3
_symmetry_space_group_name_H-M   'P 1'
_cell_length_a   11.38869995
_cell_length_b   13.74947757
_cell_length_c   13.74949568
_cell_angle_alpha   80.12389737
_cell_angle_beta   65.53424259
_cell_angle_gamma   65.53430706
_symmetry_Int_Tables_number   1
_chemical_formula_structural   ZnH4(CN)3
_chemical_formula_sum   'Zn8 H32 C24 N24'
_cell_volume   1783.73174118
_cell_formula_units_Z   8
loop_
 _symmetry_equiv_pos_site_id
 _symmetry_equiv_pos_as_xyz
  1  'x, y, z'
loop_
 _atom_site_label
 _atom_site_fract_x
 _atom_site_fract_y
 _atom_site_fract_z
 _atom_site_charge
 Zn 0.36086 0.52706 0.4492   -0.002628
 Zn 0.83712 0.97294 0.0508   -0.00193
 Zn 0.38792 0.9492 0.47294   -0.001656
 Zn 0.31006 0.5508 0.02706   -0.001968
 Zn 0.63914 0.47294 0.5508   -0.002628
 Zn 0.16288 0.02706 0.9492   -0.00193
 Zn 0.61208 0.0508 0.52706   -0.001656
 Zn 0.68994 0.4492 0.97294   -0.001968
 H 0.675 0.657 0.5782   0.117033
 H 0.5672 0.7733 0.6153   0.142206
 H 0.6824 0.7532 0.4992   0.143516
 H 0.3036 0.774 0.4264   0.068082
 H 0.4102 0.843 0.9218   0.117883
 H 0.4558 0.7267 0.8847   0.143099
 H 0.4348 0.7468 0.000799999999998   0.14364
 H 0.004 0.726 0.0736   0.068086
 H 0.832 0.0782 0.343   0.117565
 H 0.8405 0.1153 0.2267   0.142542
 H 0.9356 0.9992 0.2468   0.143064
 H 0.5776 0.9264 0.226   0.069177
 H 0.7532 0.4218 0.157   0.117272
 H 0.6825 0.3847 0.2733   0.142857
 H 0.6816 0.5008 0.2532   0.1429
 H 0.23 0.5736 0.274   0.068097
 H 0.325 0.343 0.4218   0.117033
 H 0.4328 0.2267 0.3847   0.142206
 H 0.3176 0.2468 0.5008   0.143516
 H 0.6964 0.226 0.5736   0.068082
 H 0.5898 0.157 0.0782   0.117883
 H 0.5442 0.2733 0.1153   0.143099
 H 0.5652 0.2532 0.9992   0.14364
 H 0.996 0.274 0.9264   0.068086
 H 0.168 0.9218 0.657   0.117565
 H 0.1595 0.8847 0.7733   0.142542
 H 0.0644 0.000799999999998 0.7532   0.143064
 H 0.4224 0.0736 0.774   0.069177
 H 0.2468 0.5782 0.843   0.117272
 H 0.3175 0.6153 0.7267   0.142857
 H 0.3184 0.4992 0.7468   0.1429
 H 0.77 0.4264 0.726   0.068097
 C 0.6209 0.7247 0.5559   -0.407374
 C 0.5247 0.7097 0.5171   0.358671
 C 0.37213 0.73949 0.45465   0.173972
 C 0.4015 0.7753 0.9441   -0.410588
 C 0.2515 0.7903 0.9829   0.363065
 C 0.06627 0.76051 0.04535   0.174686
 C 0.8456 0.0559 0.2753   -0.408884
 C 0.7344 0.0171 0.2903   0.360893
 C 0.61162 0.95465 0.26051   0.170899
 C 0.6768 0.4441 0.2247   -0.407981
 C 0.5418 0.4829 0.2097   0.360301
 C 0.32678 0.54535 0.23949   0.173392
 C 0.3791 0.2753 0.4441   -0.407374
 C 0.4753 0.2903 0.4829   0.358671
 C 0.62787 0.26051 0.54535   0.173972
 C 0.5985 0.2247 0.0559   -0.410588
 C 0.7485 0.2097 0.0171   0.363065
 C 0.93373 0.23949 0.95465   0.174686
 C 0.1544 0.9441 0.7247   -0.408884
 C 0.2656 0.9829 0.7097   0.360893
 C 0.38838 0.04535 0.73949   0.170899
 C 0.3232 0.5559 0.7753   -0.407981
 C 0.4582 0.5171 0.7903   0.360301
 C 0.67322 0.45465 0.76051   0.173392
 N 0.41926 0.63668 0.4732   -0.11431
 N 0.51917 0.61703 0.51383   -0.16839
 N 0.43399 0.78951 0.48111   -0.310965
 N 0.02914 0.86332 0.0268   -0.115008
 N 0.15003 0.88297 0.98617   -0.170121
 N 0.20461 0.71049 0.01889   -0.313306
 N 0.55594 0.9732 0.36332   -0.115438
 N 0.6362 0.01383 0.38297   -0.169492
 N 0.7235 0.98111 0.21049   -0.30846
 N 0.39246 0.5268 0.13668   -0.116231
 N 0.533 0.48617 0.11703   -0.169168
 N 0.4151 0.51889 0.28951   -0.309002
 N 0.58074 0.36332 0.5268   -0.11431
 N 0.48083 0.38297 0.48617   -0.16839
 N 0.56601 0.21049 0.51889   -0.310965
 N 0.97086 0.13668 0.9732   -0.115008
 N 0.84997 0.11703 0.01383   -0.170121
 N 0.79539 0.28951 0.98111   -0.313306
 N 0.44406 0.0268 0.63668   -0.115438
 N 0.3638 0.98617 0.61703   -0.169492
 N 0.2765 0.01889 0.78951   -0.30846
 N 0.60754 0.4732 0.86332   -0.116231
 N 0.467 0.51383 0.88297   -0.169168
 N 0.5849 0.48111 0.71049   -0.309002
