{'_ref': 'TBD', '_srcid': 'CAKYAQ_clean', 'submitters': [{'name': 'Dalar Nazarian Jeff Camp and David Sholl', 'email': 'dalar@gatech.edu jcamp6@gatech.edu'}], '_method': 'VASP DFT with PBE;DDEC'}
data_Nd2Co3H18C42(NO4)6
_symmetry_space_group_name_H-M   'P 1'
_cell_length_a   15.27640000
_cell_length_b   15.43180015
_cell_length_c   15.43180000
_cell_angle_alpha   119.99999968
_cell_angle_beta   90.00000000
_cell_angle_gamma   90.00000000
_symmetry_Int_Tables_number   1
_chemical_formula_structural   Nd2Co3H18C42(NO4)6
_chemical_formula_sum   'Nd4 Co6 H36 C84 N12 O48'
_cell_volume   3150.5387897
_cell_formula_units_Z   2
loop_
 _symmetry_equiv_pos_site_id
 _symmetry_equiv_pos_as_xyz
  1  'x, y, z'
loop_
 _atom_site_label
 _atom_site_fract_x
 _atom_site_fract_y
 _atom_site_fract_z
 _atom_site_charge
 Nd 0.75 0.33333 0.66666   2.141795
 Nd 0.75 0.66667 0.33334   2.141795
 Nd 0.25 0.66667 0.33334   2.141793
 Nd 0.25 0.33333 0.66666   2.141793
 Co 0.0 0.5 0.5   1.127753
 Co 0.0 0.0 0.5   1.136046
 Co 0.0 0.5 0.0   1.133769
 Co 0.5 0.0 0.5   1.127762
 Co 0.5 0.5 0.5   1.136049
 Co 0.5 0.5 0.0   1.133764
 H 0.8444 0.7129 0.7659   0.117349
 H 0.8444 0.053 0.2871   0.117335
 H 0.8444 0.2341 0.947   0.117361
 H 0.8444 0.2871 0.2341   0.11735
 H 0.8444 0.947 0.7129   0.117336
 H 0.8444 0.7659 0.053   0.117362
 H 0.6556 0.947 0.2341   0.117348
 H 0.6556 0.7659 0.7129   0.117337
 H 0.6556 0.2871 0.053   0.11736
 H 0.6556 0.053 0.7659   0.117349
 H 0.6556 0.2341 0.2871   0.117338
 H 0.6556 0.7129 0.947   0.117361
 H 0.1556 0.2871 0.2341   0.117353
 H 0.1556 0.947 0.7129   0.117341
 H 0.1556 0.7659 0.053   0.117365
 H 0.1556 0.7129 0.7659   0.117354
 H 0.1556 0.053 0.2871   0.117341
 H 0.1556 0.2341 0.947   0.117366
 H 0.3444 0.053 0.7659   0.117352
 H 0.3444 0.2341 0.2871   0.117341
 H 0.3444 0.7129 0.947   0.117364
 H 0.3444 0.947 0.2341   0.117353
 H 0.3444 0.7659 0.7129   0.117342
 H 0.3444 0.2871 0.053   0.117365
 H 0.75 0.8 0.9   0.084632
 H 0.75 0.1 0.2   0.084656
 H 0.75 0.1 0.9   0.084636
 H 0.75 0.2 0.1   0.084643
 H 0.75 0.9 0.8   0.084666
 H 0.75 0.9 0.1   0.084646
 H 0.25 0.2 0.1   0.084632
 H 0.25 0.9 0.8   0.084656
 H 0.25 0.9 0.1   0.084636
 H 0.25 0.8 0.9   0.084643
 H 0.25 0.1 0.2   0.084666
 H 0.25 0.1 0.9   0.084646
 C 0.8612 0.5115 0.6465   0.66371
 C 0.8034 0.5754 0.735   0.145791
 C 0.806 0.679 0.7854   -0.123346
 C 0.8612 0.135 0.4885   0.664929
 C 0.8034 0.1596 0.4246   0.145525
 C 0.806 0.1064 0.321   -0.123071
 C 0.8612 0.3535 0.865   0.664661
 C 0.8034 0.265 0.8404   0.14553
 C 0.806 0.2146 0.8936   -0.123259
 C 0.8612 0.4885 0.3535   0.663709
 C 0.8034 0.4246 0.265   0.145791
 C 0.806 0.321 0.2146   -0.123345
 C 0.8612 0.865 0.5115   0.664929
 C 0.8034 0.8404 0.5754   0.145525
 C 0.806 0.8936 0.679   -0.12307
 C 0.8612 0.6465 0.135   0.664661
 C 0.8034 0.735 0.1596   0.14553
 C 0.806 0.7854 0.1064   -0.123258
 C 0.6388 0.865 0.3535   0.663713
 C 0.6966 0.8404 0.265   0.145791
 C 0.694 0.8936 0.2146   -0.123344
 C 0.6388 0.6465 0.5115   0.664929
 C 0.6966 0.735 0.5754   0.145525
 C 0.694 0.7854 0.679   -0.123071
 C 0.6388 0.4885 0.135   0.664656
 C 0.6966 0.4246 0.1596   0.14553
 C 0.694 0.321 0.1064   -0.123258
 C 0.6388 0.135 0.6465   0.663712
 C 0.6966 0.1596 0.735   0.145791
 C 0.694 0.1064 0.7854   -0.123345
 C 0.6388 0.3535 0.4885   0.664929
 C 0.6966 0.265 0.4246   0.145525
 C 0.694 0.2146 0.321   -0.123073
 C 0.6388 0.5115 0.865   0.664656
 C 0.6966 0.5754 0.8404   0.145531
 C 0.694 0.679 0.8936   -0.12326
 C 0.1388 0.4885 0.3535   0.663709
 C 0.1966 0.4246 0.265   0.145792
 C 0.194 0.321 0.2146   -0.123347
 C 0.1388 0.865 0.5115   0.664928
 C 0.1966 0.8404 0.5754   0.145526
 C 0.194 0.8936 0.679   -0.123072
 C 0.1388 0.6465 0.135   0.664659
 C 0.1966 0.735 0.1596   0.145531
 C 0.194 0.7854 0.1064   -0.12326
 C 0.1388 0.5115 0.6465   0.663709
 C 0.1966 0.5754 0.735   0.145792
 C 0.194 0.679 0.7854   -0.123346
 C 0.1388 0.135 0.4885   0.664928
 C 0.1966 0.1596 0.4246   0.145526
 C 0.194 0.1064 0.321   -0.123071
 C 0.1388 0.3535 0.865   0.664659
 C 0.1966 0.265 0.8404   0.145531
 C 0.194 0.2146 0.8936   -0.123259
 C 0.3612 0.135 0.6465   0.663712
 C 0.3034 0.1596 0.735   0.145791
 C 0.306 0.1064 0.7854   -0.123344
 C 0.3612 0.3535 0.4885   0.664928
 C 0.3034 0.265 0.4246   0.145526
 C 0.306 0.2146 0.321   -0.123071
 C 0.3612 0.5115 0.865   0.664656
 C 0.3034 0.5754 0.8404   0.145531
 C 0.306 0.679 0.8936   -0.123259
 C 0.3612 0.865 0.3535   0.663712
 C 0.3034 0.8404 0.265   0.145791
 C 0.306 0.8936 0.2146   -0.123346
 C 0.3612 0.6465 0.5115   0.664928
 C 0.3034 0.735 0.5754   0.145526
 C 0.306 0.7854 0.679   -0.123073
 C 0.3612 0.4885 0.135   0.664655
 C 0.3034 0.4246 0.1596   0.145531
 C 0.306 0.321 0.1064   -0.123261
 C 0.75 0.7304 0.8652   -0.022761
 C 0.75 0.1348 0.2696   -0.022882
 C 0.75 0.1348 0.8652   -0.022762
 C 0.75 0.2696 0.1348   -0.022765
 C 0.75 0.8652 0.7304   -0.022885
 C 0.75 0.8652 0.1348   -0.022766
 C 0.25 0.2696 0.1348   -0.02276
 C 0.25 0.8652 0.7304   -0.022881
 C 0.25 0.8652 0.1348   -0.022762
 C 0.25 0.7304 0.8652   -0.022764
 C 0.25 0.1348 0.2696   -0.022885
 C 0.25 0.1348 0.8652   -0.022765
 N 0.75 0.5249 0.76245   -0.404346
 N 0.75 0.23755 0.4751   -0.404081
 N 0.75 0.23755 0.76245   -0.404346
 N 0.75 0.4751 0.23755   -0.404346
 N 0.75 0.76245 0.5249   -0.404081
 N 0.75 0.76245 0.23755   -0.404346
 N 0.25 0.4751 0.23755   -0.404346
 N 0.25 0.76245 0.5249   -0.404081
 N 0.25 0.76245 0.23755   -0.404346
 N 0.25 0.5249 0.76245   -0.404346
 N 0.25 0.23755 0.4751   -0.404081
 N 0.25 0.23755 0.76245   -0.404346
 O 0.8585 0.4174 0.6134   -0.676528
 O 0.906 0.5546 0.6126   -0.59534
 O 0.8585 0.196 0.5826   -0.675893
 O 0.906 0.058 0.4454   -0.598037
 O 0.8585 0.3866 0.804   -0.675933
 O 0.906 0.3874 0.942   -0.59746
 O 0.8585 0.5826 0.3866   -0.676528
 O 0.906 0.4454 0.3874   -0.59534
 O 0.8585 0.804 0.4174   -0.675893
 O 0.906 0.942 0.5546   -0.598037
 O 0.8585 0.6134 0.196   -0.675933
 O 0.906 0.6126 0.058   -0.59746
 O 0.6415 0.804 0.3866   -0.676528
 O 0.594 0.942 0.3874   -0.59534
 O 0.6415 0.6134 0.4174   -0.675892
 O 0.594 0.6126 0.5546   -0.598037
 O 0.6415 0.5826 0.196   -0.675933
 O 0.594 0.4454 0.058   -0.597461
 O 0.6415 0.196 0.6134   -0.676528
 O 0.594 0.058 0.6126   -0.59534
 O 0.6415 0.3866 0.5826   -0.675892
 O 0.594 0.3874 0.4454   -0.598037
 O 0.6415 0.4174 0.804   -0.675933
 O 0.594 0.5546 0.942   -0.597461
 O 0.1415 0.5826 0.3866   -0.676528
 O 0.094 0.4454 0.3874   -0.595339
 O 0.1415 0.804 0.4174   -0.675893
 O 0.094 0.942 0.5546   -0.598035
 O 0.1415 0.6134 0.196   -0.675932
 O 0.094 0.6126 0.058   -0.597459
 O 0.1415 0.4174 0.6134   -0.676528
 O 0.094 0.5546 0.6126   -0.595339
 O 0.1415 0.196 0.5826   -0.675893
 O 0.094 0.058 0.4454   -0.598035
 O 0.1415 0.3866 0.804   -0.675932
 O 0.094 0.3874 0.942   -0.597459
 O 0.3585 0.196 0.6134   -0.676528
 O 0.406 0.058 0.6126   -0.595339
 O 0.3585 0.3866 0.5826   -0.675892
 O 0.406 0.3874 0.4454   -0.598035
 O 0.3585 0.4174 0.804   -0.675933
 O 0.406 0.5546 0.942   -0.59746
 O 0.3585 0.804 0.3866   -0.676528
 O 0.406 0.942 0.3874   -0.595339
 O 0.3585 0.6134 0.4174   -0.675892
 O 0.406 0.6126 0.5546   -0.598035
 O 0.3585 0.5826 0.196   -0.675933
 O 0.406 0.4454 0.058   -0.59746
