{'_ref': 'TBD', '_srcid': 'CAKYAQ_clean', 'submitters': [{'name': 'Dalar Nazarian Jeff Camp and David Sholl', 'email': 'dalar@gatech.edu jcamp6@gatech.edu'}], '_method': 'VASP DFT with PBE;DDEC'}
data_DyH3C8NO6
_symmetry_space_group_name_H-M   'P 1'
_cell_length_a   7.62159986
_cell_length_b   9.83300000
_cell_length_c   14.76200000
_cell_angle_alpha   90.00000000
_cell_angle_beta   98.19100236
_cell_angle_gamma   90.00000000
_symmetry_Int_Tables_number   1
_chemical_formula_structural   DyH3C8NO6
_chemical_formula_sum   'Dy4 H12 C32 N4 O24'
_cell_volume   1095.02548546
_cell_formula_units_Z   4
loop_
 _symmetry_equiv_pos_site_id
 _symmetry_equiv_pos_as_xyz
  1  'x, y, z'
loop_
 _atom_site_label
 _atom_site_fract_x
 _atom_site_fract_y
 _atom_site_fract_z
 _atom_site_charge
 Dy 0.64943 0.54507 0.36089   2.31044
 Dy 0.85057 0.04507 0.13911   2.310439
 Dy 0.35057 0.45493 0.63911   2.31044
 Dy 0.14943 0.95493 0.86089   2.310439
 H 0.7994 0.6103 0.8622   0.079756
 H 0.8271 0.6141 0.1357   0.101878
 H 0.6166 0.3011 0.9845   0.072063
 H 0.7006 0.1103 0.6378   0.079756
 H 0.6729 0.1141 0.3643   0.101878
 H 0.8834 0.8011 0.5155   0.072063
 H 0.2006 0.3897 0.1378   0.079756
 H 0.1729 0.3859 0.8643   0.101878
 H 0.3834 0.6989 0.0155   0.072063
 H 0.2994 0.8897 0.3622   0.079756
 H 0.3271 0.8859 0.6357   0.101878
 H 0.1166 0.1989 0.4845   0.072063
 C 0.7754 0.5691 0.9158   0.250473
 C 0.8271 0.6356 0.9993   -0.274328
 C 0.797 0.5715 0.0794   0.10745
 C 0.7204 0.4415 0.0741   -0.292638
 C 0.6698 0.3864 0.9883   0.273902
 C 0.9123 0.7731 0.000700000000002   0.896663
 C 0.6932 0.3624 0.1576   0.854273
 C 0.4572 0.9692 0.039   0.566118
 C 0.7246 0.0691 0.5842   0.250473
 C 0.6729 0.1356 0.5007   -0.274328
 C 0.703 0.0715 0.4206   0.10745
 C 0.7796 0.9415 0.4259   -0.292638
 C 0.8302 0.8864 0.5117   0.273902
 C 0.5877 0.2731 0.4993   0.896663
 C 0.8068 0.8624 0.3424   0.854273
 C 0.0428 0.4692 0.461   0.566118
 C 0.2246 0.4309 0.0842   0.250473
 C 0.1729 0.3644 0.000700000000002   -0.274328
 C 0.203 0.4285 0.9206   0.10745
 C 0.2796 0.5585 0.9259   -0.292638
 C 0.3302 0.6136 0.0117   0.273903
 C 0.0877 0.2269 0.9993   0.896663
 C 0.3068 0.6376 0.8424   0.854273
 C 0.5428 0.0308 0.961   0.566119
 C 0.2754 0.9309 0.4158   0.250473
 C 0.3271 0.8644 0.4993   -0.274328
 C 0.297 0.9285 0.5794   0.10745
 C 0.2204 0.0585 0.5741   -0.292638
 C 0.1698 0.1136 0.4883   0.273903
 C 0.4123 0.7269 0.5007   0.896663
 C 0.1932 0.1376 0.6576   0.854273
 C 0.9572 0.5308 0.539   0.566119
 N 0.6931 0.4489 0.9104   -0.474094
 N 0.8069 0.9489 0.5896   -0.474094
 N 0.3069 0.5511 0.0896   -0.474094
 N 0.1931 0.0511 0.4104   -0.474094
 O 0.9805 0.8083 0.9322   -0.824348
 O 0.9066 0.8438 0.0707   -0.789409
 O 0.6958 0.4219 0.2319   -0.794267
 O 0.6668 0.2353 0.1473   -0.779223
 O 0.5531 0.9529 0.115   -0.628866
 O 0.2957 0.9372 0.0204   -0.655844
 O 0.5195 0.3083 0.5678   -0.824348
 O 0.5934 0.3438 0.4293   -0.789409
 O 0.8042 0.9219 0.2681   -0.794267
 O 0.8332 0.7353 0.3527   -0.779223
 O 0.9469 0.4529 0.385   -0.628866
 O 0.2043 0.4372 0.4796   -0.655844
 O 0.0195 0.1917 0.0678   -0.824348
 O 0.0934 0.1562 0.9293   -0.789409
 O 0.3042 0.5781 0.7681   -0.794267
 O 0.3332 0.7647 0.8527   -0.779223
 O 0.4469 0.0471 0.885   -0.628866
 O 0.7043 0.0628 0.9796   -0.655844
 O 0.4805 0.6917 0.4322   -0.824348
 O 0.4066 0.6562 0.5707   -0.789409
 O 0.1958 0.0781 0.7319   -0.794267
 O 0.1668 0.2647 0.6473   -0.779223
 O 0.0531 0.5471 0.615   -0.628866
 O 0.7957 0.5628 0.5204   -0.655844
