{'_ref': 'TBD', '_srcid': 'CAKYAQ_clean', 'submitters': [{'name': 'Dalar Nazarian Jeff Camp and David Sholl', 'email': 'dalar@gatech.edu jcamp6@gatech.edu'}], '_method': 'VASP DFT with PBE;DDEC'}
data_Ce2Cu7H28C42I6(NO2)7
_symmetry_space_group_name_H-M   'P 1'
_cell_length_a   7.10540000
_cell_length_b   18.24190006
_cell_length_c   24.94770000
_cell_angle_alpha   90.00000000
_cell_angle_beta   90.00000000
_cell_angle_gamma   99.52199989
_symmetry_Int_Tables_number   1
_chemical_formula_structural   Ce2Cu7H28C42I6(NO2)7
_chemical_formula_sum   'Ce4 Cu14 H56 C84 I12 N14 O28'
_cell_volume   3189.06867364
_cell_formula_units_Z   2
loop_
 _symmetry_equiv_pos_site_id
 _symmetry_equiv_pos_as_xyz
  1  'x, y, z'
loop_
 _atom_site_label
 _atom_site_fract_x
 _atom_site_fract_y
 _atom_site_fract_z
 _atom_site_charge
 Ce 0.77882 0.9838 0.59859   2.231395
 Ce 0.22118 0.0162 0.09859   2.231395
 Ce 0.22118 0.0162 0.40141   2.23138
 Ce 0.77882 0.9838 0.90141   2.23138
 Cu 0.25102 0.55361 0.68316   0.139851
 Cu 0.17371 0.43896 0.58014   0.163908
 Cu 0.37816 0.54422 0.49231   0.135703
 Cu 0.74898 0.44639 0.18316   0.139851
 Cu 0.82629 0.56104 0.08014   0.163908
 Cu 0.62184 0.45578 0.99231   0.135703
 Cu 0.74898 0.44639 0.31684   0.139853
 Cu 0.82629 0.56104 0.41986   0.163908
 Cu 0.62184 0.45578 0.50769   0.135704
 Cu 0.25102 0.55361 0.81684   0.139853
 Cu 0.17371 0.43896 0.91986   0.163908
 Cu 0.37816 0.54422 0.00769   0.135704
 Cu 0.23017 0.43386 0.75   0.101924
 Cu 0.76983 0.56614 0.25   0.101924
 H 0.2989 0.8273 0.659   0.121923
 H 0.4049 0.7172 0.6747   0.075356
 H 0.8941 0.6061 0.6557   0.052061
 H 0.7748 0.713 0.6398   0.12226
 H 0.1942 0.2172 0.4654   0.112033
 H 0.1937 0.3399 0.4853   0.061231
 H 0.1126 0.2934 0.6366   0.068081
 H 0.0999 0.1692 0.6203   0.124634
 H 0.6948 0.1955 0.473   0.119575
 H 0.6795 0.3177 0.4543   0.064449
 H 0.588 0.3582 0.6043   0.068356
 H 0.61 0.2384 0.6277   0.134795
 H 0.7011 0.1727 0.159   0.121923
 H 0.5951 0.2828 0.1747   0.075356
 H 0.1059 0.3939 0.1557   0.052061
 H 0.2252 0.287 0.1398   0.12226
 H 0.8058 0.7828 0.9654   0.112033
 H 0.8063 0.6601 0.9853   0.061231
 H 0.8874 0.7066 0.1366   0.068081
 H 0.9001 0.8308 0.1203   0.124634
 H 0.3052 0.8045 0.973   0.119575
 H 0.3205 0.6823 0.9543   0.064449
 H 0.412 0.6418 0.1043   0.068356
 H 0.39 0.7616 0.1277   0.134795
 H 0.7011 0.1727 0.341   0.121921
 H 0.5951 0.2828 0.3253   0.075356
 H 0.1059 0.3939 0.3443   0.05206
 H 0.2252 0.287 0.3602   0.122261
 H 0.8058 0.7828 0.5346   0.112033
 H 0.8063 0.6601 0.5147   0.061231
 H 0.8874 0.7066 0.3634   0.068081
 H 0.9001 0.8308 0.3797   0.124634
 H 0.3052 0.8045 0.527   0.119575
 H 0.3205 0.6823 0.5457   0.064449
 H 0.412 0.6418 0.3957   0.068356
 H 0.39 0.7616 0.3723   0.134795
 H 0.2989 0.8273 0.841   0.121921
 H 0.4049 0.7172 0.8253   0.075356
 H 0.8941 0.6061 0.8443   0.05206
 H 0.7748 0.713 0.8602   0.122261
 H 0.1942 0.2172 0.0346   0.112033
 H 0.1937 0.3399 0.0147   0.061231
 H 0.1126 0.2934 0.8634   0.068081
 H 0.0999 0.1692 0.8797   0.124634
 H 0.6948 0.1955 0.027   0.119575
 H 0.6795 0.3177 0.0457   0.064449
 H 0.588 0.3582 0.8957   0.068356
 H 0.61 0.2384 0.8723   0.134795
 H 0.7654 0.2912 0.75   0.103958
 H 0.6173 0.3927 0.75   0.042052
 H 0.1196 0.2667 0.75   0.080142
 H 0.257 0.162 0.75   0.133271
 H 0.2346 0.7088 0.25   0.103958
 H 0.3827 0.6073 0.25   0.042052
 H 0.8804 0.7333 0.25   0.080142
 H 0.743 0.838 0.25   0.133271
 C 0.9465 0.8542 0.6376   0.678976
 C 0.0242 0.783 0.6486   -0.028326
 C 0.2131 0.7829 0.6585   -0.129162
 C 0.2759 0.7162 0.6678   0.122116
 C 0.9769 0.6513 0.6567   0.143175
 C 0.9039 0.7152 0.6472   -0.138566
 C 0.1441 0.0976 0.5284   0.817887
 C 0.1469 0.1789 0.54057   -0.106844
 C 0.1756 0.2313 0.5005   -0.110214
 C 0.1765 0.3051 0.5129   0.123376
 C 0.1274 0.2778 0.6016   0.135497
 C 0.1212 0.2031 0.5922   -0.112052
 C 0.6725 0.1246 0.5671   0.639939
 C 0.6539 0.2031 0.5524   -0.029775
 C 0.6738 0.2278 0.5004   -0.132949
 C 0.6623 0.301 0.4894   0.11364
 C 0.6098 0.325 0.5777   0.127522
 C 0.6224 0.2532 0.592   -0.12427
 C 0.0535 0.1458 0.1376   0.678976
 C 0.9758 0.217 0.1486   -0.028326
 C 0.7869 0.2171 0.1585   -0.129162
 C 0.7241 0.2838 0.1678   0.122116
 C 0.0231 0.3487 0.1567   0.143175
 C 0.0961 0.2848 0.1472   -0.138566
 C 0.8559 0.9024 0.0284   0.817887
 C 0.8531 0.8211 0.04057   -0.106844
 C 0.8244 0.7687 0.000500000000002   -0.110214
 C 0.8235 0.6949 0.0129   0.123376
 C 0.8726 0.7222 0.1016   0.135497
 C 0.8788 0.7969 0.0922   -0.112052
 C 0.3275 0.8754 0.0671   0.639939
 C 0.3461 0.7969 0.0524   -0.029775
 C 0.3262 0.7722 0.000399999999999   -0.132949
 C 0.3377 0.699 0.9894   0.11364
 C 0.3902 0.675 0.0777   0.127522
 C 0.3776 0.7468 0.092   -0.12427
 C 0.0535 0.1458 0.3624   0.678974
 C 0.9758 0.217 0.3514   -0.028326
 C 0.7869 0.2171 0.3415   -0.129164
 C 0.7241 0.2838 0.3322   0.122117
 C 0.0231 0.3487 0.3433   0.143176
 C 0.0961 0.2848 0.3528   -0.138565
 C 0.8559 0.9024 0.4716   0.817887
 C 0.8531 0.8211 0.45943   -0.106844
 C 0.8244 0.7687 0.4995   -0.110214
 C 0.8235 0.6949 0.4871   0.123376
 C 0.8726 0.7222 0.3984   0.135497
 C 0.8788 0.7969 0.4078   -0.112052
 C 0.3275 0.8754 0.4329   0.639939
 C 0.3461 0.7969 0.4476   -0.029775
 C 0.3262 0.7722 0.4996   -0.132949
 C 0.3377 0.699 0.5106   0.11364
 C 0.3902 0.675 0.4223   0.127522
 C 0.3776 0.7468 0.408   -0.12427
 C 0.9465 0.8542 0.8624   0.678974
 C 0.0242 0.783 0.8514   -0.028326
 C 0.2131 0.7829 0.8415   -0.129164
 C 0.2759 0.7162 0.8322   0.122117
 C 0.9769 0.6513 0.8433   0.143176
 C 0.9039 0.7152 0.8528   -0.138565
 C 0.1441 0.0976 0.9716   0.817887
 C 0.1469 0.1789 0.95943   -0.106844
 C 0.1756 0.2313 0.9995   -0.110214
 C 0.1765 0.3051 0.9871   0.123376
 C 0.1274 0.2778 0.8984   0.135497
 C 0.1212 0.2031 0.9078   -0.112052
 C 0.6725 0.1246 0.9329   0.639939
 C 0.6539 0.2031 0.9476   -0.029775
 C 0.6738 0.2278 0.9996   -0.132949
 C 0.6623 0.301 0.0106   0.11364
 C 0.6098 0.325 0.9223   0.127522
 C 0.6224 0.2532 0.908   -0.12427
 C 0.6301 0.1455 0.75   0.676427
 C 0.5291 0.2134 0.75   0.00473
 C 0.6328 0.2846 0.75   -0.162672
 C 0.5429 0.3457 0.75   0.124561
 C 0.2521 0.2721 0.75   0.113693
 C 0.3342 0.2084 0.75   -0.138124
 C 0.3699 0.8545 0.25   0.676427
 C 0.4709 0.7866 0.25   0.00473
 C 0.3672 0.7154 0.25   -0.162672
 C 0.4571 0.6543 0.25   0.124561
 C 0.7479 0.7279 0.25   0.113693
 C 0.6658 0.7916 0.25   -0.138124
 I 0.9817 0.44286 0.67015   -0.19746
 I 0.50922 0.52958 0.58924   -0.199613
 I 0.0183 0.55714 0.17015   -0.19746
 I 0.49078 0.47042 0.08924   -0.199613
 I 0.0183 0.55714 0.32985   -0.197459
 I 0.49078 0.47042 0.41076   -0.199613
 I 0.9817 0.44286 0.82985   -0.197459
 I 0.50922 0.52958 0.91076   -0.199613
 I 0.52523 0.55811 0.75   -0.219512
 I 0.47477 0.44189 0.25   -0.219512
 I 0.0 0.5 0.5   -0.286707
 I 0.0 0.5 0.0   -0.286707
 N 0.1616 0.6507 0.6674   -0.215702
 N 0.1536 0.3288 0.5629   -0.229103
 N 0.6275 0.349 0.52728   -0.212879
 N 0.8384 0.3493 0.1674   -0.215702
 N 0.8464 0.6712 0.0629   -0.229103
 N 0.3725 0.651 0.02728   -0.212879
 N 0.8384 0.3493 0.3326   -0.215702
 N 0.8464 0.6712 0.4371   -0.229103
 N 0.3725 0.651 0.47272   -0.212879
 N 0.1616 0.6507 0.8326   -0.215702
 N 0.1536 0.3288 0.9371   -0.229103
 N 0.6275 0.349 0.97272   -0.212879
 N 0.352 0.3405 0.75   -0.233117
 N 0.648 0.6595 0.25   -0.233117
 O 0.0597 0.9128 0.6297   -0.662164
 O 0.7693 0.8508 0.6359   -0.732621
 O 0.2092 0.0831 0.48348   -0.748031
 O 0.0793 0.05058 0.56302   -0.711206
 O 0.6988 0.08011 0.53045   -0.678315
 O 0.6665 0.1068 0.61552   -0.671014
 O 0.9403 0.0872 0.1297   -0.662164
 O 0.2307 0.1492 0.1359   -0.732621
 O 0.7908 0.9169 0.98348   -0.748031
 O 0.9207 0.94942 0.06302   -0.711206
 O 0.3012 0.91989 0.03045   -0.678315
 O 0.3335 0.8932 0.11552   -0.671014
 O 0.9403 0.0872 0.3703   -0.662164
 O 0.2307 0.1492 0.3641   -0.732621
 O 0.7908 0.9169 0.51652   -0.748031
 O 0.9207 0.94942 0.43698   -0.711206
 O 0.3012 0.91989 0.46955   -0.678315
 O 0.3335 0.8932 0.38448   -0.671013
 O 0.0597 0.9128 0.8703   -0.662164
 O 0.7693 0.8508 0.8641   -0.732621
 O 0.2092 0.0831 0.01652   -0.748031
 O 0.0793 0.05058 0.93698   -0.711206
 O 0.6988 0.08011 0.96955   -0.678315
 O 0.6665 0.1068 0.88448   -0.671013
 O 0.805 0.1553 0.75   -0.674948
 O 0.5254 0.0836 0.75   -0.720615
 O 0.195 0.8447 0.25   -0.674948
 O 0.4746 0.9164 0.25   -0.720615
