{'_ref': 'TBD', '_srcid': 'CAKYAQ_clean', 'submitters': [{'name': 'Dalar Nazarian Jeff Camp and David Sholl', 'email': 'dalar@gatech.edu jcamp6@gatech.edu'}], '_method': 'VASP DFT with PBE;DDEC'}
data_Zn2H13C24N2O9
_symmetry_space_group_name_H-M   'P 1'
_cell_length_a   13.65700000
_cell_length_b   18.77700000
_cell_length_c   19.98300000
_cell_angle_alpha   90.00000000
_cell_angle_beta   90.00000000
_cell_angle_gamma   90.00000000
_symmetry_Int_Tables_number   1
_chemical_formula_structural   Zn2H13C24N2O9
_chemical_formula_sum   'Zn16 H104 C192 N16 O72'
_cell_volume   5124.39034269
_cell_formula_units_Z   8
loop_
 _symmetry_equiv_pos_site_id
 _symmetry_equiv_pos_as_xyz
  1  'x, y, z'
loop_
 _atom_site_label
 _atom_site_fract_x
 _atom_site_fract_y
 _atom_site_fract_z
 _atom_site_charge
 Zn 0.36632 0.06072 0.10727   1.016483
 Zn 0.40652 0.95108 0.9903   0.945177
 Zn 0.63368 0.43928 0.60727   1.016483
 Zn 0.59348 0.54892 0.4903   0.945177
 Zn 0.63368 0.93928 0.89273   1.016483
 Zn 0.59348 0.04892 0.0097   0.945176
 Zn 0.36632 0.56072 0.39273   1.016483
 Zn 0.40652 0.45108 0.5097   0.945176
 Zn 0.86632 0.93928 0.39273   1.016483
 Zn 0.90652 0.04892 0.5097   0.945177
 Zn 0.13368 0.56072 0.89273   1.016483
 Zn 0.09348 0.45108 0.0097   0.945177
 Zn 0.13368 0.06072 0.60727   1.016483
 Zn 0.09348 0.95108 0.4903   0.945176
 Zn 0.86632 0.43928 0.10727   1.016483
 Zn 0.90652 0.54892 0.9903   0.945176
 H 0.4103 0.688 0.2148   0.109839
 H 0.4189 0.776 0.1347   0.088067
 H 0.3976 0.9252 0.2745   0.09975
 H 0.3852 0.8386 0.355   0.103448
 H 0.0415 0.0607 0.0961   0.095352
 H 0.1185 0.949 0.9344   0.099018
 H 0.3994 0.7867 0.0204   0.080549
 H 0.3817 0.6782 0.963   0.129137
 H 0.3602 0.681 0.8486   0.101591
 H 0.3276 0.9998 0.7045   0.101822
 H 0.3321 0.0965 0.773   0.135224
 H 0.3643 0.0817 0.8855   0.093296
 H 0.566 0.91 0.995   0.449224
 H 0.5897 0.812 0.7148   0.109839
 H 0.5811 0.724 0.6347   0.088067
 H 0.6024 0.5748 0.7745   0.09975
 H 0.6148 0.6614 0.855   0.103448
 H 0.9585 0.4393 0.5961   0.095352
 H 0.8815 0.551 0.4344   0.099018
 H 0.6006 0.7133 0.5204   0.080549
 H 0.6183 0.8218 0.463   0.129137
 H 0.6398 0.819 0.3486   0.101591
 H 0.6724 0.5002 0.2045   0.101822
 H 0.6679 0.4035 0.273   0.135224
 H 0.6357 0.4183 0.3855   0.093296
 H 0.434 0.59 0.495   0.449224
 H 0.5897 0.312 0.7852   0.10984
 H 0.5811 0.224 0.8653   0.088067
 H 0.6024 0.0748 0.7255   0.09975
 H 0.6148 0.1614 0.645   0.103448
 H 0.9585 0.9393 0.9039   0.095351
 H 0.8815 0.051 0.0656   0.099017
 H 0.6006 0.2133 0.9796   0.080549
 H 0.6183 0.3218 0.037   0.129137
 H 0.6398 0.319 0.1514   0.101592
 H 0.6724 0.0002 0.2955   0.101823
 H 0.6679 0.9035 0.227   0.135225
 H 0.6357 0.9183 0.1145   0.093296
 H 0.434 0.09 0.005   0.449224
 H 0.4103 0.188 0.2852   0.10984
 H 0.4189 0.276 0.3653   0.088067
 H 0.3976 0.4252 0.2255   0.09975
 H 0.3852 0.3386 0.145   0.103448
 H 0.0415 0.5607 0.4039   0.095351
 H 0.1185 0.449 0.5656   0.099017
 H 0.3994 0.2867 0.4796   0.080549
 H 0.3817 0.1782 0.537   0.129137
 H 0.3602 0.181 0.6514   0.101592
 H 0.3276 0.4998 0.7955   0.101823
 H 0.3321 0.5965 0.727   0.135225
 H 0.3643 0.5817 0.6145   0.093296
 H 0.566 0.41 0.505   0.449224
 H 0.9103 0.312 0.2852   0.109839
 H 0.9189 0.224 0.3653   0.088067
 H 0.8976 0.0748 0.2255   0.099751
 H 0.8852 0.1614 0.145   0.103449
 H 0.5415 0.9393 0.4039   0.095353
 H 0.6185 0.051 0.5656   0.099019
 H 0.8994 0.2133 0.4796   0.080549
 H 0.8817 0.3218 0.537   0.129137
 H 0.8602 0.319 0.6514   0.101592
 H 0.8276 0.0002 0.7955   0.101823
 H 0.8321 0.9035 0.727   0.135224
 H 0.8643 0.9183 0.6145   0.093295
 H 0.066 0.09 0.505   0.449224
 H 0.0897 0.188 0.7852   0.109839
 H 0.0811 0.276 0.8653   0.088067
 H 0.1024 0.4252 0.7255   0.099751
 H 0.1148 0.3386 0.645   0.103449
 H 0.4585 0.5607 0.9039   0.095353
 H 0.3815 0.449 0.0656   0.099019
 H 0.1006 0.2867 0.9796   0.080549
 H 0.1183 0.1782 0.037   0.129137
 H 0.1398 0.181 0.1514   0.101592
 H 0.1724 0.4998 0.2955   0.101823
 H 0.1679 0.5965 0.227   0.135224
 H 0.1357 0.5817 0.1145   0.093295
 H 0.934 0.41 0.005   0.449224
 H 0.0897 0.688 0.7148   0.10984
 H 0.0811 0.776 0.6347   0.088067
 H 0.1024 0.9252 0.7745   0.099751
 H 0.1148 0.8386 0.855   0.103449
 H 0.4585 0.0607 0.5961   0.095353
 H 0.3815 0.949 0.4344   0.099018
 H 0.1006 0.7867 0.5204   0.080549
 H 0.1183 0.6782 0.463   0.129137
 H 0.1398 0.681 0.3486   0.101593
 H 0.1724 0.9998 0.2045   0.101823
 H 0.1679 0.0965 0.273   0.135225
 H 0.1357 0.0817 0.3855   0.093295
 H 0.934 0.91 0.495   0.449224
 H 0.9103 0.812 0.2148   0.10984
 H 0.9189 0.724 0.1347   0.088067
 H 0.8976 0.5748 0.2745   0.099751
 H 0.8852 0.6614 0.355   0.103449
 H 0.5415 0.4393 0.0961   0.095353
 H 0.6185 0.551 0.9344   0.099018
 H 0.8994 0.7133 0.0204   0.080549
 H 0.8817 0.8218 0.963   0.129137
 H 0.8602 0.819 0.8486   0.101593
 H 0.8276 0.5002 0.7045   0.101823
 H 0.8321 0.4035 0.773   0.135225
 H 0.8643 0.4183 0.8855   0.093295
 H 0.066 0.59 0.995   0.449224
 C 0.3955 0.7541 0.2931   -0.113165
 C 0.4065 0.7357 0.2273   -0.063183
 C 0.4119 0.7891 0.1793   -0.016905
 C 0.4073 0.8594 0.1944   -0.143815
 C 0.3987 0.8775 0.2621   -0.062516
 C 0.3921 0.8256 0.3104   -0.085407
 C 0.3854 0.6979 0.3473   0.648278
 C 0.4094 0.916 0.1416   0.675767
 C 0.2041 0.0075 0.0385   0.689557
 C 0.0973 0.0033 0.0196   -0.120095
 C 0.0248 0.0356 0.0576   -0.065429
 C 0.0704 0.9692 0.9613   -0.050048
 C 0.3901 0.7871 0.9743   0.222671
 C 0.3796 0.7212 0.9401   -0.141098
 C 0.3665 0.7232 0.8726   0.071412
 C 0.3624 0.7872 0.8402   -0.178725
 C 0.351 0.7878 0.7677   0.353698
 C 0.3484 0.8604 0.7339   0.324839
 C 0.3514 0.9263 0.7771   -0.150237
 C 0.3386 0.9942 0.7502   0.07204
 C 0.3421 0.0511 0.7903   -0.155326
 C 0.3611 0.0417 0.8581   0.196851
 C 0.3668 0.9192 0.844   0.185743
 C 0.3736 0.8485 0.8771   0.208479
 C 0.6045 0.7459 0.7931   -0.113165
 C 0.5935 0.7643 0.7273   -0.063183
 C 0.5881 0.7109 0.6793   -0.016905
 C 0.5927 0.6406 0.6944   -0.143815
 C 0.6013 0.6225 0.7621   -0.062516
 C 0.6079 0.6744 0.8104   -0.085407
 C 0.6146 0.8021 0.8473   0.648278
 C 0.5906 0.584 0.6416   0.675767
 C 0.7959 0.4925 0.5385   0.689557
 C 0.9027 0.4967 0.5196   -0.120095
 C 0.9752 0.4644 0.5576   -0.065429
 C 0.9296 0.5308 0.4613   -0.050048
 C 0.6099 0.7129 0.4743   0.222671
 C 0.6204 0.7788 0.4401   -0.141098
 C 0.6335 0.7768 0.3726   0.071412
 C 0.6376 0.7128 0.3402   -0.178725
 C 0.649 0.7122 0.2677   0.353698
 C 0.6516 0.6396 0.2339   0.324839
 C 0.6486 0.5737 0.2771   -0.150237
 C 0.6614 0.5058 0.2502   0.07204
 C 0.6579 0.4489 0.2903   -0.155326
 C 0.6389 0.4583 0.3581   0.196851
 C 0.6332 0.5808 0.344   0.185743
 C 0.6264 0.6515 0.3771   0.208479
 C 0.6045 0.2459 0.7069   -0.113164
 C 0.5935 0.2643 0.7727   -0.063183
 C 0.5881 0.2109 0.8207   -0.016905
 C 0.5927 0.1406 0.8056   -0.143815
 C 0.6013 0.1225 0.7379   -0.062515
 C 0.6079 0.1744 0.6896   -0.085407
 C 0.6146 0.3021 0.6527   0.648278
 C 0.5906 0.084 0.8584   0.675767
 C 0.7959 0.9925 0.9615   0.689557
 C 0.9027 0.9967 0.9804   -0.120099
 C 0.9752 0.9644 0.9424   -0.06542
 C 0.9296 0.0308 0.0387   -0.050039
 C 0.6099 0.2129 0.0257   0.222671
 C 0.6204 0.2788 0.0599   -0.141098
 C 0.6335 0.2768 0.1274   0.071412
 C 0.6376 0.2128 0.1598   -0.178725
 C 0.649 0.2122 0.2323   0.353698
 C 0.6516 0.1396 0.2661   0.324839
 C 0.6486 0.0737 0.2229   -0.150237
 C 0.6614 0.0058 0.2498   0.07204
 C 0.6579 0.9489 0.2097   -0.155326
 C 0.6389 0.9583 0.1419   0.196851
 C 0.6332 0.0808 0.156   0.185743
 C 0.6264 0.1515 0.1229   0.208479
 C 0.3955 0.2541 0.2069   -0.113165
 C 0.4065 0.2357 0.2727   -0.063183
 C 0.4119 0.2891 0.3207   -0.016905
 C 0.4073 0.3594 0.3056   -0.143815
 C 0.3987 0.3775 0.2379   -0.062515
 C 0.3921 0.3256 0.1896   -0.085407
 C 0.3854 0.1979 0.1527   0.648278
 C 0.4094 0.416 0.3584   0.675767
 C 0.2041 0.5075 0.4615   0.689557
 C 0.0973 0.5033 0.4804   -0.120099
 C 0.0248 0.5356 0.4424   -0.06542
 C 0.0704 0.4692 0.5387   -0.050039
 C 0.3901 0.2871 0.5257   0.222671
 C 0.3796 0.2212 0.5599   -0.141098
 C 0.3665 0.2232 0.6274   0.071412
 C 0.3624 0.2872 0.6598   -0.178725
 C 0.351 0.2878 0.7323   0.353698
 C 0.3484 0.3604 0.7661   0.324839
 C 0.3514 0.4263 0.7229   -0.150237
 C 0.3386 0.4942 0.7498   0.07204
 C 0.3421 0.5511 0.7097   -0.155326
 C 0.3611 0.5417 0.6419   0.196851
 C 0.3668 0.4192 0.656   0.185743
 C 0.3736 0.3485 0.6229   0.208479
 C 0.8955 0.2459 0.2069   -0.113165
 C 0.9065 0.2643 0.2727   -0.063183
 C 0.9119 0.2109 0.3207   -0.016905
 C 0.9073 0.1406 0.3056   -0.143815
 C 0.8987 0.1225 0.2379   -0.062516
 C 0.8921 0.1744 0.1896   -0.085407
 C 0.8854 0.3021 0.1527   0.648278
 C 0.9094 0.084 0.3584   0.675767
 C 0.7041 0.9925 0.4615   0.689557
 C 0.5973 0.9967 0.4804   -0.120095
 C 0.5248 0.9644 0.4424   -0.065429
 C 0.5704 0.0308 0.5387   -0.050048
 C 0.8901 0.2129 0.5257   0.22267
 C 0.8796 0.2788 0.5599   -0.141097
 C 0.8665 0.2768 0.6274   0.071412
 C 0.8624 0.2128 0.6598   -0.178725
 C 0.851 0.2122 0.7323   0.353698
 C 0.8484 0.1396 0.7661   0.324839
 C 0.8514 0.0737 0.7229   -0.150237
 C 0.8386 0.0058 0.7498   0.07204
 C 0.8421 0.9489 0.7097   -0.155326
 C 0.8611 0.9583 0.6419   0.196851
 C 0.8668 0.0808 0.656   0.185743
 C 0.8736 0.1515 0.6229   0.208479
 C 0.1045 0.2541 0.7069   -0.113165
 C 0.0935 0.2357 0.7727   -0.063183
 C 0.0881 0.2891 0.8207   -0.016905
 C 0.0927 0.3594 0.8056   -0.143815
 C 0.1013 0.3775 0.7379   -0.062516
 C 0.1079 0.3256 0.6896   -0.085407
 C 0.1146 0.1979 0.6527   0.648278
 C 0.0906 0.416 0.8584   0.675767
 C 0.2959 0.5075 0.9615   0.689557
 C 0.4027 0.5033 0.9804   -0.120095
 C 0.4752 0.5356 0.9424   -0.065429
 C 0.4296 0.4692 0.0387   -0.050048
 C 0.1099 0.2871 0.0257   0.22267
 C 0.1204 0.2212 0.0599   -0.141097
 C 0.1335 0.2232 0.1274   0.071412
 C 0.1376 0.2872 0.1598   -0.178726
 C 0.149 0.2878 0.2323   0.353698
 C 0.1516 0.3604 0.2661   0.324839
 C 0.1486 0.4263 0.2229   -0.150237
 C 0.1614 0.4942 0.2498   0.07204
 C 0.1579 0.5511 0.2097   -0.155326
 C 0.1389 0.5417 0.1419   0.196851
 C 0.1332 0.4192 0.156   0.185743
 C 0.1264 0.3485 0.1229   0.208479
 C 0.1045 0.7541 0.7931   -0.113165
 C 0.0935 0.7357 0.7273   -0.063183
 C 0.0881 0.7891 0.6793   -0.016905
 C 0.0927 0.8594 0.6944   -0.143814
 C 0.1013 0.8775 0.7621   -0.062516
 C 0.1079 0.8256 0.8104   -0.085407
 C 0.1146 0.6979 0.8473   0.648278
 C 0.0906 0.916 0.6416   0.675766
 C 0.2959 0.0075 0.5385   0.689557
 C 0.4027 0.0033 0.5196   -0.120099
 C 0.4752 0.0356 0.5576   -0.06542
 C 0.4296 0.9692 0.4613   -0.050039
 C 0.1099 0.7871 0.4743   0.22267
 C 0.1204 0.7212 0.4401   -0.141097
 C 0.1335 0.7232 0.3726   0.071411
 C 0.1376 0.7872 0.3402   -0.178725
 C 0.149 0.7878 0.2677   0.353698
 C 0.1516 0.8604 0.2339   0.324839
 C 0.1486 0.9263 0.2771   -0.150237
 C 0.1614 0.9942 0.2502   0.07204
 C 0.1579 0.0511 0.2903   -0.155326
 C 0.1389 0.0417 0.3581   0.196851
 C 0.1332 0.9192 0.344   0.185743
 C 0.1264 0.8485 0.3771   0.208479
 C 0.8955 0.7459 0.2931   -0.113165
 C 0.9065 0.7643 0.2273   -0.063184
 C 0.9119 0.7109 0.1793   -0.016905
 C 0.9073 0.6406 0.1944   -0.143814
 C 0.8987 0.6225 0.2621   -0.062516
 C 0.8921 0.6744 0.3104   -0.085407
 C 0.8854 0.8021 0.3473   0.648278
 C 0.9094 0.584 0.1416   0.675766
 C 0.7041 0.4925 0.0385   0.689557
 C 0.5973 0.4967 0.0196   -0.120099
 C 0.5248 0.4644 0.0576   -0.06542
 C 0.5704 0.5308 0.9613   -0.050039
 C 0.8901 0.7129 0.9743   0.22267
 C 0.8796 0.7788 0.9401   -0.141097
 C 0.8665 0.7768 0.8726   0.071411
 C 0.8624 0.7128 0.8402   -0.178725
 C 0.851 0.7122 0.7677   0.353698
 C 0.8484 0.6396 0.7339   0.324839
 C 0.8514 0.5737 0.7771   -0.150237
 C 0.8386 0.5058 0.7502   0.07204
 C 0.8421 0.4489 0.7903   -0.155326
 C 0.8611 0.4583 0.8581   0.196851
 C 0.8668 0.5808 0.844   0.185743
 C 0.8736 0.6515 0.8771   0.208479
 N 0.3869 0.8488 0.9429   -0.319278
 N 0.3751 0.9768 0.8859   -0.346922
 N 0.6131 0.6512 0.4429   -0.319278
 N 0.6249 0.5232 0.3859   -0.346922
 N 0.6131 0.1512 0.0571   -0.319278
 N 0.6249 0.0232 0.1141   -0.346922
 N 0.3869 0.3488 0.5571   -0.319278
 N 0.3751 0.4768 0.6141   -0.346922
 N 0.8869 0.1512 0.5571   -0.319278
 N 0.8751 0.0232 0.6141   -0.346922
 N 0.1131 0.3488 0.0571   -0.319278
 N 0.1249 0.4768 0.1141   -0.346922
 N 0.1131 0.8488 0.4429   -0.319278
 N 0.1249 0.9768 0.3859   -0.346922
 N 0.8869 0.6512 0.9429   -0.319278
 N 0.8751 0.5232 0.8859   -0.346922
 O 0.3898 0.6334 0.3272   -0.635566
 O 0.372 0.7172 0.404   -0.59623
 O 0.4245 0.8982 0.0828   -0.586391
 O 0.3941 0.9782 0.1637   -0.597681
 O 0.2601 0.9663 0.0087   -0.593776
 O 0.2273 0.0512 0.0838   -0.608528
 O 0.3422 0.7354 0.7341   -0.363287
 O 0.3429 0.8667 0.6721   -0.349007
 O 0.5591 0.9463 0.9765   -0.954704
 O 0.6102 0.8666 0.8272   -0.635566
 O 0.628 0.7828 0.904   -0.59623
 O 0.5755 0.6018 0.5828   -0.586391
 O 0.6059 0.5218 0.6637   -0.597681
 O 0.7399 0.5337 0.5087   -0.593776
 O 0.7727 0.4488 0.5838   -0.608528
 O 0.6578 0.7646 0.2341   -0.363287
 O 0.6571 0.6333 0.1721   -0.349007
 O 0.4409 0.5537 0.4765   -0.954704
 O 0.6102 0.3666 0.6728   -0.635566
 O 0.628 0.2828 0.596   -0.59623
 O 0.5755 0.1018 0.9172   -0.586391
 O 0.6059 0.0218 0.8363   -0.597681
 O 0.7399 0.0337 0.9913   -0.593776
 O 0.7727 0.9488 0.9162   -0.608528
 O 0.6578 0.2646 0.2659   -0.363287
 O 0.6571 0.1333 0.3279   -0.349007
 O 0.4409 0.0537 0.0235   -0.954704
 O 0.3898 0.1334 0.1728   -0.635566
 O 0.372 0.2172 0.096   -0.59623
 O 0.4245 0.3982 0.4172   -0.586391
 O 0.3941 0.4782 0.3363   -0.597681
 O 0.2601 0.4663 0.4913   -0.593776
 O 0.2273 0.5512 0.4162   -0.608528
 O 0.3422 0.2354 0.7659   -0.363287
 O 0.3429 0.3667 0.8279   -0.349007
 O 0.5591 0.4463 0.5235   -0.954704
 O 0.8898 0.3666 0.1728   -0.635566
 O 0.872 0.2828 0.096   -0.59623
 O 0.9245 0.1018 0.4172   -0.586391
 O 0.8941 0.0218 0.3363   -0.597681
 O 0.7601 0.0337 0.4913   -0.593776
 O 0.7273 0.9488 0.4162   -0.608528
 O 0.8422 0.2646 0.7659   -0.363287
 O 0.8429 0.1333 0.8279   -0.349007
 O 0.0591 0.0537 0.5235   -0.954704
 O 0.1102 0.1334 0.6728   -0.635566
 O 0.128 0.2172 0.596   -0.59623
 O 0.0755 0.3982 0.9172   -0.586391
 O 0.1059 0.4782 0.8363   -0.597681
 O 0.2399 0.4663 0.9913   -0.593776
 O 0.2727 0.5512 0.9162   -0.608528
 O 0.1578 0.2354 0.2659   -0.363287
 O 0.1571 0.3667 0.3279   -0.349007
 O 0.9409 0.4463 0.0235   -0.954704
 O 0.1102 0.6334 0.8272   -0.635566
 O 0.128 0.7172 0.904   -0.59623
 O 0.0755 0.8982 0.5828   -0.586391
 O 0.1059 0.9782 0.6637   -0.597681
 O 0.2399 0.9663 0.5087   -0.593776
 O 0.2727 0.0512 0.5838   -0.608528
 O 0.1578 0.7354 0.2341   -0.363287
 O 0.1571 0.8667 0.1721   -0.349007
 O 0.9409 0.9463 0.4765   -0.954704
 O 0.8898 0.8666 0.3272   -0.635566
 O 0.872 0.7828 0.404   -0.59623
 O 0.9245 0.6018 0.0828   -0.586391
 O 0.8941 0.5218 0.1637   -0.597681
 O 0.7601 0.5337 0.0087   -0.593776
 O 0.7273 0.4488 0.0838   -0.608528
 O 0.8422 0.7646 0.7341   -0.363287
 O 0.8429 0.6333 0.6721   -0.349007
 O 0.0591 0.5537 0.9765   -0.954704
