{'_ref': 'TBD', '_srcid': 'CAKYAQ_clean', 'submitters': [{'name': 'Dalar Nazarian Jeff Camp and David Sholl', 'email': 'dalar@gatech.edu jcamp6@gatech.edu'}], '_method': 'VASP DFT with PBE;DDEC'}
data_Co2H14C14N2O9
_symmetry_space_group_name_H-M   'P 1'
_cell_length_a   6.30289972
_cell_length_b   16.41300000
_cell_length_c   17.13900000
_cell_angle_alpha   90.00000000
_cell_angle_beta   98.62999789
_cell_angle_gamma   90.00000000
_symmetry_Int_Tables_number   1
_chemical_formula_structural   Co2H14C14N2O9
_chemical_formula_sum   'Co8 H56 C56 N8 O36'
_cell_volume   1752.94663871
_cell_formula_units_Z   4
loop_
 _symmetry_equiv_pos_site_id
 _symmetry_equiv_pos_as_xyz
  1  'x, y, z'
loop_
 _atom_site_label
 _atom_site_fract_x
 _atom_site_fract_y
 _atom_site_fract_z
 _atom_site_charge
 Co 0.7594 0.52269 0.32269   1.164788
 Co 0.92573 0.58952 0.50794   0.984004
 Co 0.7406 0.02269 0.17731   1.164788
 Co 0.57427 0.08952 0.99206   0.984004
 Co 0.2406 0.47731 0.67731   1.164791
 Co 0.07427 0.41048 0.49206   0.984007
 Co 0.2594 0.97731 0.82269   1.164791
 Co 0.42573 0.91048 0.00794   0.984007
 H 0.1271 0.6624 0.6312   0.289263
 H 0.6977 0.4645 0.4624   0.40422
 H 0.0613 0.8809 0.5831   0.310334
 H 0.1819 0.8992 0.6534   0.270595
 H 0.6635 0.8113 0.3818   0.102193
 H 0.9222 0.7878 0.2822   0.095864
 H 0.3181 0.6984 0.5368   0.117328
 H 0.1154 0.7616 0.5048   0.083237
 H 0.3898 0.7888 0.6584   0.115748
 H 0.3906 0.8443 0.5686   0.137135
 H 0.0848 0.789 0.7184   0.108418
 H 0.8741 0.8521 0.6904   0.152369
 H 0.7936 0.7161 0.6445   0.101017
 H 0.7907 0.7629 0.5656   0.065959
 H 0.3729 0.1624 0.8688   0.289263
 H 0.8023 0.9645 0.0376   0.40422
 H 0.4387 0.3809 0.9169   0.310334
 H 0.3181 0.3992 0.8466   0.270595
 H 0.8365 0.3113 0.1182   0.102193
 H 0.5778 0.2878 0.2178   0.095864
 H 0.1819 0.1984 0.9632   0.117328
 H 0.3846 0.2616 0.9952   0.083237
 H 0.1102 0.2888 0.8416   0.115748
 H 0.1094 0.3443 0.9314   0.137135
 H 0.4152 0.289 0.7816   0.108418
 H 0.6259 0.3521 0.8096   0.152369
 H 0.7064 0.2161 0.8555   0.101017
 H 0.7093 0.2629 0.9344   0.065959
 H 0.8729 0.3376 0.3688   0.289264
 H 0.3023 0.5355 0.5376   0.404227
 H 0.9387 0.1191 0.4169   0.310326
 H 0.8181 0.1008 0.3466   0.270594
 H 0.3365 0.1887 0.6182   0.102193
 H 0.0778 0.2122 0.7178   0.095865
 H 0.6819 0.3016 0.4632   0.117331
 H 0.8846 0.2384 0.4952   0.083237
 H 0.6102 0.2112 0.3416   0.115748
 H 0.6094 0.1557 0.4314   0.137135
 H 0.9152 0.211 0.2816   0.108419
 H 0.1259 0.1479 0.3096   0.152369
 H 0.2064 0.2839 0.3555   0.101017
 H 0.2093 0.2371 0.4344   0.065959
 H 0.6271 0.8376 0.1312   0.289264
 H 0.1977 0.0355 0.9624   0.404227
 H 0.5613 0.6191 0.0831   0.310326
 H 0.6819 0.6008 0.1534   0.270594
 H 0.1635 0.6887 0.8818   0.102193
 H 0.4222 0.7122 0.7822   0.095865
 H 0.8181 0.8016 0.0368   0.117331
 H 0.6154 0.7384 0.0048   0.083237
 H 0.8898 0.7112 0.1584   0.115748
 H 0.8906 0.6557 0.0686   0.137135
 H 0.5848 0.711 0.2184   0.108419
 H 0.3741 0.6479 0.1904   0.152369
 H 0.2936 0.7839 0.1445   0.101017
 H 0.2907 0.7371 0.0656   0.065959
 C 0.559 0.6621 0.39593   0.686318
 C 0.0795 0.6495 0.3564   0.701134
 C 0.5229 0.9504 0.3058   0.706521
 C 0.4194 0.7349 0.36977   -0.097556
 C 0.5167 0.8102 0.36248   -0.09213
 C 0.4034 0.8756 0.32565   -0.06059
 C 0.1853 0.8661 0.29838   -0.082096
 C 0.085 0.792 0.30736   -0.096167
 C 0.2002 0.7259 0.34208   -0.108077
 C 0.0491 0.9342 0.2602   0.678804
 C 0.2098 0.7389 0.5526   -0.01285
 C 0.3063 0.8095 0.6032   -0.113231
 C 0.9857 0.8126 0.6685   -0.138398
 C 0.895 0.7418 0.618   0.013535
 C 0.941 0.1621 0.10407   0.686318
 C 0.4205 0.1495 0.1436   0.701134
 C 0.9771 0.4504 0.1942   0.706521
 C 0.0806 0.2349 0.13023   -0.097556
 C 0.9833 0.3102 0.13752   -0.09213
 C 0.0966 0.3756 0.17435   -0.06059
 C 0.3147 0.3661 0.20162   -0.082096
 C 0.415 0.292 0.19264   -0.096167
 C 0.2998 0.2259 0.15792   -0.108077
 C 0.4509 0.4342 0.2398   0.678803
 C 0.2902 0.2389 0.9474   -0.01285
 C 0.1937 0.3095 0.8968   -0.113231
 C 0.5143 0.3126 0.8315   -0.138398
 C 0.605 0.2418 0.882   0.013535
 C 0.441 0.3379 0.60407   0.686318
 C 0.9205 0.3505 0.6436   0.701134
 C 0.4771 0.0496 0.6942   0.706521
 C 0.5806 0.2651 0.63023   -0.097556
 C 0.4833 0.1898 0.63752   -0.09213
 C 0.5966 0.1244 0.67435   -0.06059
 C 0.8147 0.1339 0.70162   -0.082096
 C 0.915 0.208 0.69264   -0.096168
 C 0.7998 0.2741 0.65792   -0.108077
 C 0.9509 0.0658 0.7398   0.678803
 C 0.7902 0.2611 0.4474   -0.012851
 C 0.6937 0.1905 0.3968   -0.113231
 C 0.0143 0.1874 0.3315   -0.138399
 C 0.105 0.2582 0.382   0.013535
 C 0.059 0.8379 0.89593   0.686318
 C 0.5795 0.8505 0.8564   0.701134
 C 0.0229 0.5496 0.8058   0.706521
 C 0.9194 0.7651 0.86977   -0.097556
 C 0.0167 0.6898 0.86248   -0.09213
 C 0.9034 0.6244 0.82565   -0.06059
 C 0.6853 0.6339 0.79838   -0.082096
 C 0.585 0.708 0.80736   -0.096168
 C 0.7002 0.7741 0.84208   -0.108077
 C 0.5491 0.5658 0.7602   0.678803
 C 0.7098 0.7611 0.0526   -0.012851
 C 0.8063 0.6905 0.1032   -0.113231
 C 0.4857 0.6874 0.1685   -0.138399
 C 0.395 0.7582 0.118   0.013535
 N 0.0562 0.68936 0.58918   -0.452872
 N 0.1292 0.8613 0.6252   -0.089511
 N 0.4438 0.18936 0.91082   -0.452872
 N 0.3708 0.3613 0.8748   -0.089511
 N 0.9438 0.31064 0.41082   -0.452873
 N 0.8708 0.1387 0.3748   -0.089507
 N 0.5562 0.81064 0.08918   -0.452873
 N 0.6292 0.6387 0.1252   -0.089507
 O 0.5266 0.59983 0.35424   -0.59511
 O 0.8351 0.48721 0.43807   -0.936058
 O 0.9268 0.62801 0.30493   -0.619567
 O 0.5337 0.95752 0.23401   -0.634307
 O 0.942 0.91861 0.19221   -0.641499
 O 0.7035 0.6721 0.45469   -0.638186
 O 0.1353 0.61508 0.42283   -0.631055
 O 0.035 0.99919 0.294   -0.602335
 O 0.6072 0.99545 0.3595   -0.647193
 O 0.9734 0.09983 0.14576   -0.595109
 O 0.6649 0.98721 0.06193   -0.936058
 O 0.5732 0.12801 0.19507   -0.619567
 O 0.9663 0.45752 0.26599   -0.634307
 O 0.558 0.41861 0.30779   -0.641499
 O 0.7965 0.1721 0.04531   -0.638186
 O 0.3647 0.11508 0.07717   -0.631055
 O 0.465 0.49919 0.206   -0.602335
 O 0.8928 0.49545 0.1405   -0.647192
 O 0.4734 0.40017 0.64576   -0.59511
 O 0.1649 0.51279 0.56193   -0.936061
 O 0.0732 0.37199 0.69507   -0.619567
 O 0.4663 0.04248 0.76599   -0.634307
 O 0.058 0.08139 0.80779   -0.641499
 O 0.2965 0.3279 0.54531   -0.638186
 O 0.8647 0.38492 0.57717   -0.631054
 O 0.965 0.000810000000001 0.706   -0.602335
 O 0.3928 0.00455 0.6405   -0.647194
 O 0.0266 0.90017 0.85424   -0.595109
 O 0.3351 0.01279 0.93807   -0.93606
 O 0.4268 0.87199 0.80493   -0.619567
 O 0.0337 0.54248 0.73401   -0.634307
 O 0.442 0.58139 0.69221   -0.641499
 O 0.2035 0.8279 0.95469   -0.638186
 O 0.6353 0.88492 0.92283   -0.631054
 O 0.535 0.50081 0.794   -0.602335
 O 0.1072 0.50455 0.8595   -0.647194
