{'_ref': 'TBD', '_srcid': 'CAKYAQ_clean', 'submitters': [{'name': 'Dalar Nazarian Jeff Camp and David Sholl', 'email': 'dalar@gatech.edu jcamp6@gatech.edu'}], '_method': 'VASP DFT with PBE;DDEC'}
data_CuH8C14O5
_symmetry_space_group_name_H-M   'P 1'
_cell_length_a   16.08529966
_cell_length_b   17.41689999
_cell_length_c   19.36670000
_cell_angle_alpha   69.08999921
_cell_angle_beta   65.46299939
_cell_angle_gamma   62.49850064
_symmetry_Int_Tables_number   1
_chemical_formula_structural   CuH8C14O5
_chemical_formula_sum   'Cu8 H64 C112 O40'
_cell_volume   4285.31432729
_cell_formula_units_Z   8
loop_
 _symmetry_equiv_pos_site_id
 _symmetry_equiv_pos_as_xyz
  1  'x, y, z'
loop_
 _atom_site_label
 _atom_site_fract_x
 _atom_site_fract_y
 _atom_site_fract_z
 _atom_site_charge
 Cu 0.5167 0.92428 0.04978   0.894941
 Cu 0.4568 0.05576 0.54756   0.874912
 Cu 0.49076 0.57572 0.45022   0.895866
 Cu 0.06012 0.44424 0.95244   0.874943
 Cu 0.4833 0.07572 0.95022   0.894942
 Cu 0.5432 0.94424 0.45244   0.874913
 Cu 0.50924 0.42428 0.54978   0.895867
 Cu 0.93988 0.55576 0.04756   0.874945
 H 0.8173 0.7861 0.9229   0.103189
 H 0.9741 0.7333 0.8389   0.130323
 H 0.9285 0.9708 0.6948   0.140026
 H 0.7667 0.0253 0.7773   0.110055
 H 0.2136 0.7529 0.6131   0.125053
 H 0.3457 0.8011 0.5541   0.107999
 H 0.1973 0.9901 0.6825   0.103173
 H 0.0665 0.941 0.7398   0.129895
 H 0.6185 0.1891 0.0177   0.103701
 H 0.6672 0.2474 0.0778   0.136306
 H 0.6297 0.0572 0.2712   0.13527
 H 0.5784 0.000999999999998 0.2104   0.105702
 H 0.838 0.1657 0.1097   0.141216
 H 0.9307 0.254 0.0548   0.104879
 H 0.7446 0.4128 0.2064   0.103652
 H 0.642 0.3316 0.2578   0.122779
 H 0.5263 0.7139 0.5771   0.104663
 H 0.5463 0.7667 0.6611   0.130858
 H 0.5941 0.5292 0.8052   0.14056
 H 0.5693 0.4747 0.7227   0.10785
 H 0.5796 0.7471 0.8869   0.126376
 H 0.7009 0.6989 0.9459   0.108457
 H 0.8699 0.5099 0.8175   0.105783
 H 0.7473 0.559 0.7602   0.130584
 H 0.8253 0.3109 0.4823   0.102775
 H 0.9924 0.2526 0.4222   0.135742
 H 0.9581 0.4428 0.2288   0.134478
 H 0.7898 0.499 0.2896   0.107566
 H 0.1134 0.3343 0.3903   0.141084
 H 0.2395 0.246 0.4452   0.104765
 H 0.3638 0.0872 0.2936   0.104194
 H 0.2314 0.1684 0.2422   0.123891
 H 0.1827 0.2139 0.0771   0.103189
 H 0.0259 0.2667 0.1611   0.130323
 H 0.0715 0.0292 0.3052   0.140025
 H 0.2333 0.9747 0.2227   0.110055
 H 0.7864 0.2471 0.3869   0.125053
 H 0.6543 0.1989 0.4459   0.107999
 H 0.8027 0.0099 0.3175   0.103173
 H 0.9335 0.059 0.2602   0.129895
 H 0.3815 0.8109 0.9823   0.103701
 H 0.3328 0.7526 0.9222   0.136305
 H 0.3703 0.9428 0.7288   0.13527
 H 0.4216 0.999 0.7896   0.105702
 H 0.162 0.8343 0.8903   0.141216
 H 0.0693 0.746 0.9452   0.104879
 H 0.2554 0.5872 0.7936   0.103652
 H 0.358 0.6684 0.7422   0.122779
 H 0.4737 0.2861 0.4229   0.104663
 H 0.4537 0.2333 0.3389   0.130858
 H 0.4059 0.4708 0.1948   0.140559
 H 0.4307 0.5253 0.2773   0.10785
 H 0.4204 0.2529 0.1131   0.126376
 H 0.2991 0.3011 0.0541   0.108457
 H 0.1301 0.4901 0.1825   0.105783
 H 0.2527 0.441 0.2398   0.130584
 H 0.1747 0.6891 0.5177   0.102774
 H 0.0076 0.7474 0.5778   0.135742
 H 0.0419 0.5572 0.7712   0.134478
 H 0.2102 0.501 0.7104   0.107566
 H 0.8866 0.6657 0.6097   0.141084
 H 0.7605 0.754 0.5548   0.104765
 H 0.6362 0.9128 0.7064   0.104194
 H 0.7686 0.8316 0.7578   0.123891
 C 0.6728 0.9448 0.9098   0.692567
 C 0.7749 0.9112 0.8588   -0.182458
 C 0.8386 0.8243 0.8761   0.015104
 C 0.9319 0.7929 0.8265   -0.220814
 C 0.9643 0.8474 0.759   0.294414
 C 0.905 0.9331 0.7409   -0.253172
 C 0.8086 0.9659 0.7905   0.003655
 C 0.1273 0.8455 0.6785   0.294151
 C 0.21 0.8023 0.6261   -0.226537
 C 0.289 0.8301 0.5917   0.010264
 C 0.2845 0.9012 0.6126   -0.187657
 C 0.201 0.942 0.6676   0.021812
 C 0.123 0.9134 0.7012   -0.265458
 C 0.3697 0.9338 0.5726   0.669901
 C 0.5928 0.0892 0.1082   -0.193492
 C 0.6198 0.1629 0.0697   0.014687
 C 0.648 0.198 0.105   -0.257404
 C 0.6481 0.1597 0.1825   0.290052
 C 0.6255 0.0851 0.2201   -0.236965
 C 0.5963 0.0514 0.1834   0.018845
 C 0.7298 0.2423 0.1875   0.281546
 C 0.8172 0.2175 0.1281   -0.247234
 C 0.8724 0.269 0.0968   0.012663
 C 0.8454 0.3433 0.1247   -0.178303
 C 0.7619 0.3642 0.1852   0.019065
 C 0.7014 0.3151 0.2169   -0.226389
 C 0.9049 0.4005 0.0845   0.67198
 C 0.5586 0.0543 0.0693   0.68277
 C 0.5274 0.5552 0.5902   0.690986
 C 0.5449 0.5888 0.6412   -0.179569
 C 0.539 0.6757 0.6239   0.013118
 C 0.5513 0.7071 0.6735   -0.225524
 C 0.5707 0.6526 0.741   0.297256
 C 0.579 0.5669 0.7591   -0.254554
 C 0.565 0.5341 0.7095   0.006893
 C 0.6513 0.6545 0.8215   0.29917
 C 0.6384 0.6977 0.8739   -0.232366
 C 0.7108 0.6699 0.9083   0.009846
 C 0.7983 0.5988 0.8874   -0.18586
 C 0.8106 0.558 0.8324   0.019333
 C 0.7376 0.5866 0.7988   -0.268737
 C 0.8761 0.5662 0.9274   0.673915
 C 0.7902 0.4108 0.3918   -0.189948
 C 0.8524 0.3371 0.4303   0.012534
 C 0.951 0.302 0.395   -0.254268
 C 0.9903 0.3403 0.3175   0.288342
 C 0.9307 0.4149 0.2799   -0.232423
 C 0.8311 0.4486 0.3166   0.012945
 C 0.1596 0.2577 0.3125   0.286912
 C 0.1628 0.2825 0.3719   -0.250321
 C 0.2382 0.231 0.4032   0.015476
 C 0.3134 0.1567 0.3753   -0.179402
 C 0.3113 0.1358 0.3148   0.021284
 C 0.2334 0.1849 0.2831   -0.230415
 C 0.3899 0.0995 0.4155   0.67072
 C 0.6822 0.4457 0.4307   0.680861
 C 0.3272 0.0552 0.0902   0.692567
 C 0.2251 0.0888 0.1412   -0.182458
 C 0.1614 0.1757 0.1239   0.015104
 C 0.0681 0.2071 0.1735   -0.220814
 C 0.0357 0.1526 0.241   0.294414
 C 0.095 0.0669 0.2591   -0.253172
 C 0.1914 0.0341 0.2095   0.003655
 C 0.8727 0.1545 0.3215   0.294151
 C 0.79 0.1977 0.3739   -0.226537
 C 0.711 0.1699 0.4083   0.010264
 C 0.7155 0.0988 0.3874   -0.187657
 C 0.799 0.058 0.3324   0.021812
 C 0.877 0.0866 0.2988   -0.265458
 C 0.6303 0.0662 0.4274   0.669901
 C 0.4072 0.9108 0.8918   -0.193492
 C 0.3802 0.8371 0.9303   0.014687
 C 0.352 0.802 0.895   -0.257404
 C 0.3519 0.8403 0.8175   0.290052
 C 0.3745 0.9149 0.7799   -0.236965
 C 0.4037 0.9486 0.8166   0.018845
 C 0.2702 0.7577 0.8125   0.281546
 C 0.1828 0.7825 0.8719   -0.247233
 C 0.1276 0.731 0.9032   0.012663
 C 0.1546 0.6567 0.8753   -0.178303
 C 0.2381 0.6358 0.8148   0.019064
 C 0.2986 0.6849 0.7831   -0.22639
 C 0.0951 0.5995 0.9155   0.67198
 C 0.4414 0.9457 0.9307   0.68277
 C 0.4726 0.4448 0.4098   0.690985
 C 0.4551 0.4112 0.3588   -0.179569
 C 0.461 0.3243 0.3761   0.013118
 C 0.4487 0.2929 0.3265   -0.225524
 C 0.4293 0.3474 0.259   0.297256
 C 0.421 0.4331 0.2409   -0.254555
 C 0.435 0.4659 0.2905   0.006893
 C 0.3487 0.3455 0.1785   0.29917
 C 0.3616 0.3023 0.1261   -0.232366
 C 0.2892 0.3301 0.0917   0.009846
 C 0.2017 0.4012 0.1126   -0.18586
 C 0.1894 0.442 0.1676   0.019333
 C 0.2624 0.4134 0.2012   -0.268737
 C 0.1239 0.4338 0.0726   0.673915
 C 0.2098 0.5892 0.6082   -0.189948
 C 0.1476 0.6629 0.5697   0.012534
 C 0.049 0.698 0.605   -0.254268
 C 0.0097 0.6597 0.6825   0.288342
 C 0.0693 0.5851 0.7201   -0.232423
 C 0.1689 0.5514 0.6834   0.012945
 C 0.8404 0.7423 0.6875   0.286912
 C 0.8372 0.7175 0.6281   -0.250321
 C 0.7618 0.769 0.5968   0.015476
 C 0.6866 0.8433 0.6247   -0.179402
 C 0.6887 0.8642 0.6852   0.021284
 C 0.7666 0.8151 0.7169   -0.230416
 C 0.6101 0.9005 0.5845   0.67072
 C 0.3178 0.5543 0.5693   0.68086
 O 0.6472 0.8942 0.9726   -0.571078
 O 0.61911 0.02248 0.8877   -0.569953
 O 0.0561 0.8082 0.7106   -0.245066
 O 0.3641 0.9932 0.5984   -0.559584
 O 0.4377 0.8983 0.5173   -0.550395
 O 0.5587 0.9764 0.098   -0.563967
 O 0.6694 0.1931 0.2245   -0.228641
 O 0.9797 0.3758 0.028   -0.578405
 O 0.8761 0.4694 0.1086   -0.554583
 O 0.5326 0.1051 0.0107   -0.568407
 O 0.514 0.6058 0.5274   -0.571967
 O 0.52929 0.47752 0.6123   -0.568325
 O 0.5749 0.6918 0.7894   -0.246547
 O 0.9557 0.5068 0.9016   -0.560688
 O 0.8533 0.6017 0.9827   -0.552937
 O 0.6331 0.5236 0.402   -0.562683
 O 0.087 0.3069 0.2755   -0.232021
 O 0.3835 0.1242 0.472   -0.579226
 O 0.4541 0.0306 0.3914   -0.553458
 O 0.6484 0.3949 0.4893   -0.569372
 O 0.3528 0.1058 0.0274   -0.571078
 O 0.38089 0.97752 0.1123   -0.569953
 O 0.9439 0.1918 0.2894   -0.245066
 O 0.6359 0.0068 0.4016   -0.559584
 O 0.5623 0.1017 0.4827   -0.550395
 O 0.4413 0.0236 0.902   -0.563967
 O 0.3306 0.8069 0.7755   -0.228641
 O 0.0203 0.6242 0.972   -0.578405
 O 0.1239 0.5306 0.8914   -0.554582
 O 0.4674 0.8949 0.9893   -0.568407
 O 0.486 0.3942 0.4726   -0.571967
 O 0.47071 0.52248 0.3877   -0.568325
 O 0.4251 0.3082 0.2106   -0.246547
 O 0.0443 0.4932 0.0984   -0.560688
 O 0.1467 0.3983 0.0173   -0.552937
 O 0.3669 0.4764 0.598   -0.562683
 O 0.913 0.6931 0.7245   -0.232021
 O 0.6165 0.8758 0.528   -0.579226
 O 0.5459 0.9694 0.6086   -0.553458
 O 0.3516 0.6051 0.5107   -0.569372
