{'_ref': 'TBD', '_srcid': 'CAKYAQ_clean', 'submitters': [{'name': 'Dalar Nazarian Jeff Camp and David Sholl', 'email': 'dalar@gatech.edu jcamp6@gatech.edu'}], '_method': 'VASP DFT with PBE;DDEC'}
data_CeH12(C3O2)3
_symmetry_space_group_name_H-M   'P 1'
_cell_length_a   8.68420011
_cell_length_b   9.94200051
_cell_length_c   11.73300000
_cell_angle_alpha   74.66999855
_cell_angle_beta   69.85000172
_cell_angle_gamma   86.02000242
_symmetry_Int_Tables_number   1
_chemical_formula_structural   CeH12(C3O2)3
_chemical_formula_sum   'Ce2 H24 C18 O12'
_cell_volume   916.905177625
_cell_formula_units_Z   2
loop_
 _symmetry_equiv_pos_site_id
 _symmetry_equiv_pos_as_xyz
  1  'x, y, z'
loop_
 _atom_site_label
 _atom_site_fract_x
 _atom_site_fract_y
 _atom_site_fract_z
 _atom_site_charge
 Ce 0.74555 0.47777 0.51191   2.222045
 Ce 0.25445 0.52223 0.48809   2.222042
 H 0.2046 0.462 0.8388   0.134266
 H 0.2312 0.3009 0.8634   0.139575
 H 0.3763 0.3072 0.9923   0.069689
 H 0.3778 0.4706 0.9568   0.067913
 H 0.0941 0.299 0.1033   0.068618
 H 0.0872 0.462 0.061   0.063566
 H 0.2665 0.4722 0.1726   0.132989
 H 0.2425 0.3108 0.2262   0.125793
 H 0.9784 0.8765 0.5978   0.062897
 H 0.0367 0.0198 0.6029   0.065475
 H 0.7562 0.9817 0.7203   0.118319
 H 0.7201 0.9676 0.6019   0.111744
 H 0.7954 0.538 0.1612   0.134267
 H 0.7688 0.6991 0.1366   0.139575
 H 0.6237 0.6928 0.0077   0.069689
 H 0.6222 0.5294 0.0432   0.067912
 H 0.9059 0.701 0.8967   0.068619
 H 0.9128 0.538 0.939   0.063568
 H 0.7335 0.5278 0.8274   0.132989
 H 0.7575 0.6892 0.7738   0.125792
 H 0.0216 0.1235 0.4022   0.062898
 H 0.9633 0.9802 0.3971   0.065474
 H 0.2438 0.0183 0.2797   0.118321
 H 0.2799 0.0324 0.3981   0.11174
 C 0.431 0.4133 0.7403   0.805551
 C 0.2817 0.3895 0.8526   -0.357359
 C 0.3127 0.3882 0.9715   -0.067788
 C 0.155 0.3851 0.0838   -0.061208
 C 0.1887 0.3954 0.1978   -0.355996
 C 0.0476 0.4159 0.3069   0.777144
 C 0.9684 0.9768 0.5714   -0.080146
 C 0.7893 0.0146 0.6296   -0.317199
 C 0.7636 0.1709 0.5939   0.739365
 C 0.569 0.5867 0.2597   0.805551
 C 0.7183 0.6105 0.1474   -0.35736
 C 0.6873 0.6118 0.0285   -0.067787
 C 0.845 0.6149 0.9162   -0.061209
 C 0.8113 0.6046 0.8022   -0.355996
 C 0.9524 0.5841 0.6931   0.777144
 C 0.0316 0.0232 0.4286   -0.080145
 C 0.2107 0.9854 0.3704   -0.317198
 C 0.2364 0.8291 0.4061   0.739365
 O 0.4244 0.4552 0.628   -0.886924
 O 0.5743 0.3924 0.7484   -0.662353
 O 0.9018 0.3837 0.3158   -0.669429
 O 0.0655 0.4657 0.3893   -0.832468
 O 0.8621 0.252 0.5997   -0.711175
 O 0.6425 0.2166 0.5601   -0.702903
 O 0.5756 0.5448 0.372   -0.886924
 O 0.4257 0.6076 0.2516   -0.662353
 O 0.0982 0.6163 0.6842   -0.669429
 O 0.9345 0.5343 0.6107   -0.832468
 O 0.1379 0.748 0.4003   -0.711175
 O 0.3575 0.7834 0.4399   -0.702903
