{'_ref': 'TBD', '_srcid': 'CAKYAQ_clean', 'submitters': [{'name': 'Dalar Nazarian Jeff Camp and David Sholl', 'email': 'dalar@gatech.edu jcamp6@gatech.edu'}], '_method': 'VASP DFT with PBE;DDEC'}
data_LiH4C6NO2
_symmetry_space_group_name_H-M   'P 1'
_cell_length_a   5.47330000
_cell_length_b   11.73039965
_cell_length_c   13.45800000
_cell_angle_alpha   90.00000000
_cell_angle_beta   90.00000000
_cell_angle_gamma   101.16600111
_symmetry_Int_Tables_number   1
_chemical_formula_structural   LiH4C6NO2
_chemical_formula_sum   'Li4 H16 C24 N4 O8'
_cell_volume   847.700984718
_cell_formula_units_Z   4
loop_
 _symmetry_equiv_pos_site_id
 _symmetry_equiv_pos_as_xyz
  1  'x, y, z'
loop_
 _atom_site_label
 _atom_site_fract_x
 _atom_site_fract_y
 _atom_site_fract_z
 _atom_site_charge
 Li 0.9225 0.7397 0.0162   0.869397
 Li 0.5579 0.7604 0.1556   0.871058
 Li 0.0775 0.2603 0.5162   0.869396
 Li 0.4421 0.2396 0.6556   0.871058
 H 0.3917 0.9485 0.3422   0.12046
 H 0.3804 0.0979 0.4518   0.071206
 H 0.7944 0.1712 0.322   0.065158
 H 0.7839 0.0227 0.209   0.126563
 H 0.9043 0.4526 0.3279   0.11844
 H 0.8766 0.5965 0.2162   0.072781
 H 0.2971 0.5213 0.4652   0.127849
 H 0.2973 0.6694 0.3521   0.063182
 H 0.6083 0.0515 0.8422   0.12046
 H 0.6196 0.9021 0.9518   0.071206
 H 0.2056 0.8288 0.822   0.065158
 H 0.2161 0.9773 0.709   0.126563
 H 0.0957 0.5474 0.8279   0.11844
 H 0.1234 0.4035 0.7162   0.072781
 H 0.7029 0.4787 0.9652   0.12785
 H 0.7027 0.3306 0.8521   0.063181
 C 0.0989 0.8702 0.1892   0.764266
 C 0.0871 0.9672 0.2632   -0.039447
 C 0.2672 0.992 0.3369   -0.161055
 C 0.2593 0.0825 0.4025   0.195425
 C 0.9147 0.1252 0.3263   0.194716
 C 0.9069 0.0361 0.2576   -0.160665
 C 0.6237 0.3752 0.4847   0.766521
 C 0.6024 0.4691 0.4096   -0.039179
 C 0.7771 0.4945 0.3338   -0.163426
 C 0.7604 0.5821 0.2674   0.194556
 C 0.4181 0.5356 0.4159   -0.162681
 C 0.4188 0.6242 0.3466   0.194515
 C 0.9011 0.1298 0.6892   0.764266
 C 0.9129 0.0328 0.7632   -0.039447
 C 0.7328 0.008 0.8369   -0.161055
 C 0.7407 0.9175 0.9025   0.195425
 C 0.0853 0.8748 0.8263   0.194716
 C 0.0931 0.9639 0.7576   -0.160666
 C 0.3763 0.6248 0.9847   0.766521
 C 0.3976 0.5309 0.9096   -0.039179
 C 0.2229 0.5055 0.8338   -0.163426
 C 0.2396 0.4179 0.7674   0.194556
 C 0.5819 0.4644 0.9159   -0.162682
 C 0.5812 0.3758 0.8466   0.194515
 N 0.0858 0.1486 0.39835   -0.500806
 N 0.5851 0.6478 0.27255   -0.495186
 N 0.9142 0.8514 0.89835   -0.500806
 N 0.4149 0.3522 0.77255   -0.495186
 O 0.9094 0.83526 0.13615   -0.81456
 O 0.2966 0.83392 0.18627   -0.734042
 O 0.4322 0.33501 0.53543   -0.815248
 O 0.8283 0.3461 0.49073   -0.729797
 O 0.0906 0.16474 0.63615   -0.81456
 O 0.7034 0.16608 0.68627   -0.734042
 O 0.5678 0.66499 0.03543   -0.815248
 O 0.1717 0.6539 0.99073   -0.729797
