{'_ref': 'TBD', '_srcid': 'CAKYAQ_clean', 'submitters': [{'name': 'Dalar Nazarian Jeff Camp and David Sholl', 'email': 'dalar@gatech.edu jcamp6@gatech.edu'}], '_method': 'VASP DFT with PBE;DDEC'}
data_ZnH6C6(N2O)2
_symmetry_space_group_name_H-M   'P 1'
_cell_length_a   17.92440000
_cell_length_b   17.92440022
_cell_length_c   18.44540000
_cell_angle_alpha   90.00000000
_cell_angle_beta   90.00000000
_cell_angle_gamma   119.99999960
_symmetry_Int_Tables_number   1
_chemical_formula_structural   ZnH6C6(N2O)2
_chemical_formula_sum   'Zn18 H108 C108 N72 O36'
_cell_volume   5132.2519743
_cell_formula_units_Z   18
loop_
 _symmetry_equiv_pos_site_id
 _symmetry_equiv_pos_as_xyz
  1  'x, y, z'
loop_
 _atom_site_label
 _atom_site_fract_x
 _atom_site_fract_y
 _atom_site_fract_z
 _atom_site_charge
 Zn 0.28253 0.28958 0.04371   0.870472
 Zn 0.71042 0.99295 0.04371   0.870486
 Zn 0.00705 0.71747 0.04371   0.870472
 Zn 0.949197 0.622913 0.377043   0.870418
 Zn 0.377087 0.326283 0.377043   0.870397
 Zn 0.673717 0.050803 0.377043   0.870404
 Zn 0.615863 0.956247 0.710377   0.870228
 Zn 0.043753 0.659617 0.710377   0.87024
 Zn 0.340383 0.384137 0.710377   0.870227
 Zn 0.71747 0.71042 0.95629   0.870472
 Zn 0.28958 0.00705 0.95629   0.870486
 Zn 0.99295 0.28253 0.95629   0.870472
 Zn 0.050803 0.377087 0.622957   0.870418
 Zn 0.622913 0.673717 0.622957   0.870397
 Zn 0.326283 0.949197 0.622957   0.870404
 Zn 0.384137 0.043753 0.289623   0.870228
 Zn 0.956247 0.340383 0.289623   0.87024
 Zn 0.659617 0.615863 0.289623   0.870227
 H 0.2611 0.4356 0.9391   0.151865
 H 0.5644 0.8255 0.9391   0.151865
 H 0.1745 0.7389 0.9391   0.151865
 H 0.927767 0.768933 0.272433   0.152218
 H 0.231067 0.158833 0.272433   0.152248
 H 0.841167 0.072233 0.272433   0.152226
 H 0.594433 0.102267 0.605767   0.152199
 H 0.897733 0.492167 0.605767   0.152188
 H 0.507833 0.405567 0.605767   0.15217
 H 0.7389 0.5644 0.0609   0.151865
 H 0.4356 0.1745 0.0609   0.151865
 H 0.8255 0.2611 0.0609   0.151865
 H 0.072233 0.231067 0.727567   0.152218
 H 0.768933 0.841167 0.727567   0.152248
 H 0.158833 0.927767 0.727567   0.152226
 H 0.405567 0.897733 0.394233   0.152199
 H 0.102267 0.507833 0.394233   0.152188
 H 0.492167 0.594433 0.394233   0.15217
 H 0.2267 0.4262 0.8596   0.148659
 H 0.5738 0.8005 0.8596   0.148662
 H 0.1995 0.7733 0.8596   0.148659
 H 0.893367 0.759533 0.192933   0.148824
 H 0.240467 0.133833 0.192933   0.148875
 H 0.866167 0.106633 0.192933   0.14885
 H 0.560033 0.092867 0.526267   0.149215
 H 0.907133 0.467167 0.526267   0.149152
 H 0.532833 0.439967 0.526267   0.149171
 H 0.7733 0.5738 0.1404   0.148659
 H 0.4262 0.1995 0.1404   0.148662
 H 0.8005 0.2267 0.1404   0.148659
 H 0.106633 0.240467 0.807067   0.148824
 H 0.759533 0.866167 0.807067   0.148875
 H 0.133833 0.893367 0.807067   0.14885
 H 0.439967 0.907133 0.473733   0.149215
 H 0.092867 0.532833 0.473733   0.149152
 H 0.467167 0.560033 0.473733   0.149171
 H 0.3254 0.4838 0.8755   0.14215
 H 0.5162 0.8416 0.8755   0.142145
 H 0.1584 0.6746 0.8755   0.142146
 H 0.992067 0.817133 0.208833   0.141841
 H 0.182867 0.174933 0.208833   0.141829
 H 0.825067 0.007933 0.208833   0.141847
 H 0.658733 0.150467 0.542167   0.142347
 H 0.849533 0.508267 0.542167   0.142398
 H 0.491733 0.341267 0.542167   0.142306
 H 0.6746 0.5162 0.1245   0.14215
 H 0.4838 0.1584 0.1245   0.142145
 H 0.8416 0.3254 0.1245   0.142146
 H 0.007933 0.182867 0.791167   0.141841
 H 0.817133 0.825067 0.791167   0.141829
 H 0.174933 0.992067 0.791167   0.141847
 H 0.341267 0.849533 0.457833   0.142347
 H 0.150467 0.491733 0.457833   0.142398
 H 0.508267 0.658733 0.457833   0.142306
 H 0.318 0.128 0.8102   0.313876
 H 0.872 0.19 0.8102   0.313876
 H 0.81 0.682 0.8102   0.313873
 H 0.984667 0.461333 0.143533   0.313621
 H 0.538667 0.523333 0.143533   0.313638
 H 0.476667 0.015333 0.143533   0.313612
 H 0.651333 0.794667 0.476867   0.313565
 H 0.205333 0.856667 0.476867   0.313572
 H 0.143333 0.348667 0.476867   0.313547
 H 0.682 0.872 0.1898   0.313876
 H 0.128 0.81 0.1898   0.313876
 H 0.19 0.318 0.1898   0.313873
 H 0.015333 0.538667 0.856467   0.313621
 H 0.461333 0.476667 0.856467   0.313638
 H 0.523333 0.984667 0.856467   0.313612
 H 0.348667 0.205333 0.523133   0.313565
 H 0.794667 0.143333 0.523133   0.313571
 H 0.856667 0.651333 0.523133   0.313547
 H 0.33 0.124 0.7335   0.336297
 H 0.876 0.206 0.7335   0.336298
 H 0.794 0.67 0.7335   0.3363
 H 0.996667 0.457333 0.066833   0.336252
 H 0.542667 0.539333 0.066833   0.336191
 H 0.460667 0.003333 0.066833   0.336135
 H 0.663333 0.790667 0.400167   0.336476
 H 0.209333 0.872667 0.400167   0.336582
 H 0.127333 0.336667 0.400167   0.336547
 H 0.67 0.876 0.2665   0.336297
 H 0.124 0.794 0.2665   0.336298
 H 0.206 0.33 0.2665   0.3363
 H 0.003333 0.542667 0.933167   0.336252
 H 0.457333 0.460667 0.933167   0.336191
 H 0.539333 0.996667 0.933167   0.336135
 H 0.336667 0.209333 0.599833   0.336476
 H 0.790667 0.127333 0.599833   0.336582
 H 0.872667 0.663333 0.599833   0.336547
 H 0.261 0.1369 0.036   0.339671
 H 0.8631 0.1241 0.036   0.339672
 H 0.8759 0.739 0.036   0.339672
 H 0.927667 0.470233 0.369333   0.340629
 H 0.529767 0.457433 0.369333   0.340619
 H 0.542567 0.072333 0.369333   0.340566
 H 0.594333 0.803567 0.702667   0.34009
 H 0.196433 0.790767 0.702667   0.340073
 H 0.209233 0.405667 0.702667   0.340104
 H 0.739 0.8631 0.964   0.339671
 H 0.1369 0.8759 0.964   0.339672
 H 0.1241 0.261 0.964   0.339672
 H 0.072333 0.529767 0.630667   0.340629
 H 0.470233 0.542567 0.630667   0.340619
 H 0.457433 0.927667 0.630667   0.340566
 H 0.405667 0.196433 0.297333   0.34009
 H 0.803567 0.209233 0.297333   0.340073
 H 0.790767 0.594333 0.297333   0.340104
 C 0.28512 0.35653 0.87783   0.461796
 C 0.64347 0.92859 0.87783   0.461784
 C 0.07141 0.71488 0.87783   0.461783
 C 0.951787 0.689863 0.211163   0.461361
 C 0.310137 0.261923 0.211163   0.461384
 C 0.738077 0.048213 0.211163   0.461357
 C 0.618453 0.023197 0.544497   0.460206
 C 0.976803 0.595257 0.544497   0.460234
 C 0.404743 0.381547 0.544497   0.460246
 C 0.71488 0.64347 0.12217   0.461796
 C 0.35653 0.07141 0.12217   0.461784
 C 0.92859 0.28512 0.12217   0.461783
 C 0.048213 0.310137 0.788837   0.461361
 C 0.689863 0.738077 0.788837   0.461384
 C 0.261923 0.951787 0.788837   0.461357
 C 0.381547 0.976803 0.455503   0.460206
 C 0.023197 0.404743 0.455503   0.460234
 C 0.595257 0.618453 0.455503   0.460246
 C 0.2736 0.4323 0.88899   -0.445656
 C 0.5677 0.8413 0.88899   -0.445655
 C 0.1587 0.7264 0.88899   -0.445654
 C 0.940267 0.765633 0.222323   -0.445735
 C 0.234367 0.174633 0.222323   -0.445777
 C 0.825367 0.059733 0.222323   -0.445721
 C 0.606933 0.098967 0.555657   -0.44608
 C 0.901033 0.507967 0.555657   -0.446104
 C 0.492033 0.393067 0.555657   -0.44602
 C 0.7264 0.5677 0.11101   -0.445656
 C 0.4323 0.1587 0.11101   -0.445655
 C 0.8413 0.2736 0.11101   -0.445654
 C 0.059733 0.234367 0.777677   -0.445735
 C 0.765633 0.825367 0.777677   -0.445777
 C 0.174633 0.940267 0.777677   -0.445721
 C 0.393067 0.901033 0.444343   -0.44608
 C 0.098967 0.492033 0.444343   -0.446104
 C 0.507967 0.606933 0.444343   -0.44602
 C 0.3256 0.2241 0.76207   0.593466
 C 0.7759 0.1015 0.76207   0.593466
 C 0.8985 0.6744 0.76207   0.593463
 C 0.992267 0.557433 0.095403   0.592452
 C 0.442567 0.434833 0.095403   0.592539
 C 0.565167 0.007733 0.095403   0.59247
 C 0.658933 0.890767 0.428737   0.591968
 C 0.109233 0.768167 0.428737   0.592065
 C 0.231833 0.341067 0.428737   0.592
 C 0.6744 0.7759 0.23793   0.593465
 C 0.2241 0.8985 0.23793   0.593466
 C 0.1015 0.3256 0.23793   0.593462
 C 0.007733 0.442567 0.904597   0.592451
 C 0.557433 0.565167 0.904597   0.592539
 C 0.434833 0.992267 0.904597   0.59247
 C 0.341067 0.109233 0.571263   0.591967
 C 0.890767 0.231833 0.571263   0.592064
 C 0.768167 0.658933 0.571263   0.592
 C 0.30631 0.26116 0.82585   -0.049598
 C 0.73884 0.04515 0.82585   -0.049608
 C 0.95485 0.69369 0.82585   -0.049606
 C 0.972977 0.594493 0.159183   -0.047832
 C 0.405507 0.378483 0.159183   -0.047896
 C 0.621517 0.027023 0.159183   -0.047903
 C 0.639643 0.927827 0.492517   -0.04905
 C 0.072173 0.711817 0.492517   -0.049139
 C 0.288183 0.360357 0.492517   -0.049002
 C 0.69369 0.73884 0.17415   -0.049598
 C 0.26116 0.95485 0.17415   -0.049608
 C 0.04515 0.30631 0.17415   -0.049606
 C 0.027023 0.405507 0.840817   -0.047832
 C 0.594493 0.621517 0.840817   -0.047896
 C 0.378483 0.972977 0.840817   -0.047903
 C 0.360357 0.072173 0.507483   -0.04905
 C 0.927827 0.288183 0.507483   -0.049138
 C 0.711817 0.639643 0.507483   -0.049002
 C 0.28939 0.23991 0.89829   0.013455
 C 0.76009 0.04948 0.89829   0.013456
 C 0.95052 0.71061 0.89829   0.013456
 C 0.956057 0.573243 0.231623   0.012722
 C 0.426757 0.382813 0.231623   0.012727
 C 0.617187 0.043943 0.231623   0.012717
 C 0.622723 0.906577 0.564957   0.01329
 C 0.093423 0.716147 0.564957   0.013356
 C 0.283853 0.377277 0.564957   0.013294
 C 0.71061 0.76009 0.10171   0.013455
 C 0.23991 0.95052 0.10171   0.013456
 C 0.04948 0.28939 0.10171   0.013455
 C 0.043943 0.426757 0.768377   0.012722
 C 0.573243 0.617187 0.768377   0.012727
 C 0.382813 0.956057 0.768377   0.012717
 C 0.377277 0.093423 0.435043   0.01329
 C 0.906577 0.283853 0.435043   0.013356
 C 0.716147 0.622723 0.435043   0.013294
 C 0.2849 0.1704 0.94456   0.599939
 C 0.8296 0.1145 0.94456   0.59994
 C 0.8855 0.7151 0.94456   0.59994
 C 0.951567 0.503733 0.277893   0.600816
 C 0.496267 0.447833 0.277893   0.60084
 C 0.552167 0.048433 0.277893   0.600814
 C 0.618233 0.837067 0.611227   0.600292
 C 0.162933 0.781167 0.611227   0.60023
 C 0.218833 0.381767 0.611227   0.600307
 C 0.7151 0.8296 0.05544   0.599939
 C 0.1704 0.8855 0.05544   0.59994
 C 0.1145 0.2849 0.05544   0.59994
 C 0.048433 0.496267 0.722107   0.600816
 C 0.503733 0.552167 0.722107   0.60084
 C 0.447833 0.951567 0.722107   0.600814
 C 0.381767 0.162933 0.388773   0.600292
 C 0.837067 0.218833 0.388773   0.60023
 C 0.781167 0.618233 0.388773   0.600307
 N 0.27668 0.30098 0.93073   -0.458797
 N 0.69902 0.9757 0.93073   -0.458798
 N 0.0243 0.72332 0.93073   -0.458795
 N 0.943347 0.634313 0.264063   -0.458665
 N 0.365687 0.309033 0.264063   -0.458609
 N 0.690967 0.056653 0.264063   -0.458612
 N 0.610013 0.967647 0.597397   -0.458523
 N 0.032353 0.642367 0.597397   -0.458558
 N 0.357633 0.389987 0.597397   -0.458555
 N 0.72332 0.69902 0.06927   -0.458797
 N 0.30098 0.0243 0.06927   -0.458798
 N 0.9757 0.27668 0.06927   -0.458795
 N 0.056653 0.365687 0.735937   -0.458665
 N 0.634313 0.690967 0.735937   -0.458609
 N 0.309033 0.943347 0.735937   -0.458612
 N 0.389987 0.032353 0.402603   -0.458523
 N 0.967647 0.357633 0.402603   -0.458558
 N 0.642367 0.610013 0.402603   -0.458555
 N 0.30282 0.3341 0.81374   -0.442699
 N 0.6659 0.96872 0.81374   -0.442671
 N 0.03128 0.69718 0.81374   -0.442669
 N 0.969487 0.667433 0.147073   -0.443766
 N 0.332567 0.302053 0.147073   -0.443766
 N 0.697947 0.030513 0.147073   -0.443712
 N 0.636153 0.000767000000003 0.480407   -0.442548
 N 0.999233 0.635387 0.480407   -0.442521
 N 0.364613 0.363847 0.480407   -0.442665
 N 0.69718 0.6659 0.18626   -0.442699
 N 0.3341 0.03128 0.18626   -0.442671
 N 0.96872 0.30282 0.18626   -0.442669
 N 0.030513 0.332567 0.852927   -0.443766
 N 0.667433 0.697947 0.852927   -0.443766
 N 0.302053 0.969487 0.852927   -0.443712
 N 0.363847 0.999233 0.519593   -0.442548
 N 0.000767000000003 0.364613 0.519593   -0.442521
 N 0.635387 0.636153 0.519593   -0.442665
 N 0.3278 0.1528 0.76837   -0.637706
 N 0.8472 0.175 0.76837   -0.637703
 N 0.825 0.6722 0.76837   -0.637707
 N 0.994467 0.486133 0.101703   -0.636768
 N 0.513867 0.508333 0.101703   -0.636798
 N 0.491667 0.005533 0.101703   -0.636688
 N 0.661133 0.819467 0.435037   -0.636995
 N 0.180533 0.841667 0.435037   -0.637102
 N 0.158333 0.338867 0.435037   -0.636963
 N 0.6722 0.8472 0.23163   -0.637705
 N 0.1528 0.825 0.23163   -0.637703
 N 0.175 0.3278 0.23163   -0.637707
 N 0.005533 0.513867 0.898297   -0.636768
 N 0.486133 0.491667 0.898297   -0.636798
 N 0.508333 0.994467 0.898297   -0.636687
 N 0.338867 0.180533 0.564963   -0.636995
 N 0.819467 0.158333 0.564963   -0.637102
 N 0.841667 0.661133 0.564963   -0.636963
 N 0.27431 0.1787 0.01239   -0.796243
 N 0.8213 0.09561 0.01239   -0.796249
 N 0.90439 0.72569 0.01239   -0.796244
 N 0.940977 0.512033 0.345723   -0.797725
 N 0.487967 0.428943 0.345723   -0.797698
 N 0.571057 0.059023 0.345723   -0.797656
 N 0.607643 0.845367 0.679057   -0.796939
 N 0.154633 0.762277 0.679057   -0.7969
 N 0.237723 0.392357 0.679057   -0.796928
 N 0.72569 0.8213 0.98761   -0.796243
 N 0.1787 0.90439 0.98761   -0.796249
 N 0.09561 0.27431 0.98761   -0.796244
 N 0.059023 0.487967 0.654277   -0.797725
 N 0.512033 0.571057 0.654277   -0.797698
 N 0.428943 0.940977 0.654277   -0.797656
 N 0.392357 0.154633 0.320943   -0.796939
 N 0.845367 0.237723 0.320943   -0.7969
 N 0.762277 0.607643 0.320943   -0.796928
 O 0.3405 0.26464 0.70338   -0.545378
 O 0.73536 0.07586 0.70338   -0.545377
 O 0.92414 0.6595 0.70338   -0.545363
 O 0.007167 0.597973 0.036713   -0.545485
 O 0.402027 0.409193 0.036713   -0.545508
 O 0.590807 0.992833 0.036713   -0.54549
 O 0.673833 0.931307 0.370047   -0.544768
 O 0.068693 0.742527 0.370047   -0.544799
 O 0.257473 0.326167 0.370047   -0.544862
 O 0.6595 0.73536 0.29662   -0.545378
 O 0.26464 0.92414 0.29662   -0.545376
 O 0.07586 0.3405 0.29662   -0.545363
 O 0.992833 0.402027 0.963287   -0.545485
 O 0.597973 0.590807 0.963287   -0.545508
 O 0.409193 0.007167 0.963287   -0.54549
 O 0.326167 0.068693 0.629953   -0.544768
 O 0.931307 0.257473 0.629953   -0.544799
 O 0.742527 0.673833 0.629953   -0.544862
 O 0.29089 0.10973 0.9143   -0.595359
 O 0.89027 0.18116 0.9143   -0.595356
 O 0.81884 0.70911 0.9143   -0.595359
 O 0.957557 0.443063 0.247633   -0.595459
 O 0.556937 0.514493 0.247633   -0.595497
 O 0.485507 0.042443 0.247633   -0.595495
 O 0.624223 0.776397 0.580967   -0.594915
 O 0.223603 0.847827 0.580967   -0.594897
 O 0.152173 0.375777 0.580967   -0.594905
 O 0.70911 0.89027 0.0857   -0.595359
 O 0.10973 0.81884 0.0857   -0.595356
 O 0.18116 0.29089 0.0857   -0.595359
 O 0.042443 0.556937 0.752367   -0.595459
 O 0.443063 0.485507 0.752367   -0.595497
 O 0.514493 0.957557 0.752367   -0.595495
 O 0.375777 0.223603 0.419033   -0.594915
 O 0.776397 0.152173 0.419033   -0.594897
 O 0.847827 0.624223 0.419033   -0.594905
