{'_ref': 'TBD', '_srcid': 'CAKYAQ_clean', 'submitters': [{'name': 'Dalar Nazarian Jeff Camp and David Sholl', 'email': 'dalar@gatech.edu jcamp6@gatech.edu'}], '_method': 'VASP DFT with PBE;DDEC'}
data_Ag3H28C19SN8O5
_symmetry_space_group_name_H-M   'P 1'
_cell_length_a   11.10030000
_cell_length_b   12.30010000
_cell_length_c   43.00300000
_cell_angle_alpha   90.00000000
_cell_angle_beta   90.00000000
_cell_angle_gamma   90.00000000
_symmetry_Int_Tables_number   1
_chemical_formula_structural   Ag3H28C19SN8O5
_chemical_formula_sum   'Ag24 H224 C152 S8 N64 O40'
_cell_volume   5871.40600569
_cell_formula_units_Z   8
loop_
 _symmetry_equiv_pos_site_id
 _symmetry_equiv_pos_as_xyz
  1  'x, y, z'
loop_
 _atom_site_label
 _atom_site_fract_x
 _atom_site_fract_y
 _atom_site_fract_z
 _atom_site_charge
 Ag 0.4966 0.88468 0.9819   0.395657
 Ag 0.65708 0.59666 0.86794   -0.018756
 Ag 0.68302 0.86923 0.2542   0.321283
 Ag 0.5034 0.61532 0.4819   0.395657
 Ag 0.34292 0.90334 0.36794   -0.018756
 Ag 0.31698 0.63077 0.7542   0.321283
 Ag 0.9966 0.11532 0.5181   0.395657
 Ag 0.15708 0.40334 0.63206   -0.018756
 Ag 0.18302 0.13077 0.2458   0.321283
 Ag 0.0034 0.38468 0.0181   0.395657
 Ag 0.84292 0.09666 0.13206   -0.018756
 Ag 0.81698 0.36923 0.7458   0.321283
 Ag 0.5034 0.11532 0.0181   0.395657
 Ag 0.34292 0.40334 0.13206   -0.018757
 Ag 0.31698 0.13077 0.7458   0.321283
 Ag 0.4966 0.38468 0.5181   0.395657
 Ag 0.65708 0.09666 0.63206   -0.018757
 Ag 0.68302 0.36923 0.2458   0.321283
 Ag 0.0034 0.88468 0.4819   0.395657
 Ag 0.84292 0.59666 0.36794   -0.018757
 Ag 0.81698 0.86923 0.7542   0.321283
 Ag 0.9966 0.61532 0.9819   0.395657
 Ag 0.15708 0.90334 0.86794   -0.018757
 Ag 0.18302 0.63077 0.2542   0.321283
 H 0.4313 0.9605 0.1064   0.070042
 H 0.4735 0.9063 0.1564   0.090288
 H 0.6681 0.6581 0.1236   0.095803
 H 0.6246 0.7133 0.0733   0.093863
 H 0.6405 0.7706 0.9211   0.045708
 H 0.5176 0.7079 0.9225   0.023885
 H 0.726 0.7253 0.9976   0.095604
 H 0.7662 0.7823 0.9666   0.067652
 H 0.5399 0.6274 0.000100000000003   0.069624
 H 0.4563 0.6196 0.9707   0.064268
 H 0.8288 0.5444 0.9253   0.077329
 H 0.829 0.6715 0.9224   0.029339
 H 0.7651 0.4577 0.9735   0.073953
 H 0.7249 0.5298 0.0018   0.081282
 H 0.5185 0.5076 0.927   0.061528
 H 0.642 0.4459 0.9285   0.08823
 H 0.795 0.5032 0.809   0.074994
 H 0.6705 0.4426 0.8083   0.114971
 H 0.6805 0.768 0.8141   0.017268
 H 0.8006 0.7012 0.812   0.020485
 H 0.4837 0.5454 0.8109   0.089857
 H 0.4864 0.6727 0.8135   0.011036
 H 0.7736 0.6206 0.7353   0.079593
 H 0.8565 0.6124 0.7648   0.066519
 H 0.5802 0.526 0.7344   0.085543
 H 0.5404 0.4567 0.7633   0.083157
 H 0.5486 0.7814 0.7691   0.059862
 H 0.585 0.7238 0.7379   0.106587
 H 0.5687 0.5395 0.6064   0.070042
 H 0.5265 0.5937 0.6564   0.090288
 H 0.3319 0.8419 0.6236   0.095803
 H 0.3754 0.7867 0.5733   0.093863
 H 0.3595 0.7294 0.4211   0.045708
 H 0.4824 0.7921 0.4225   0.023885
 H 0.274 0.7747 0.4976   0.095604
 H 0.2338 0.7177 0.4666   0.067652
 H 0.4601 0.8726 0.5001   0.069624
 H 0.5437 0.8804 0.4707   0.064268
 H 0.1712 0.9556 0.4253   0.077329
 H 0.171 0.8285 0.4224   0.029339
 H 0.2349 0.0423 0.4735   0.073953
 H 0.2751 0.9702 0.5018   0.081282
 H 0.4815 0.9924 0.427   0.061528
 H 0.358 0.0541 0.4285   0.08823
 H 0.205 0.9968 0.309   0.074994
 H 0.3295 0.0574 0.3083   0.114971
 H 0.3195 0.732 0.3141   0.017268
 H 0.1994 0.7988 0.312   0.020485
 H 0.5163 0.9546 0.3109   0.089857
 H 0.5136 0.8273 0.3135   0.011036
 H 0.2264 0.8794 0.2353   0.079593
 H 0.1435 0.8876 0.2648   0.066519
 H 0.4198 0.974 0.2344   0.085544
 H 0.4596 0.0433 0.2633   0.083157
 H 0.4514 0.7186 0.2691   0.059862
 H 0.415 0.7762 0.2379   0.106587
 H 0.9313 0.0395 0.3936   0.070042
 H 0.9735 0.0937 0.3436   0.090288
 H 0.1681 0.3419 0.3764   0.095803
 H 0.1246 0.2867 0.4267   0.093863
 H 0.1405 0.2294 0.5789   0.045708
 H 0.0176 0.2921 0.5775   0.023885
 H 0.226 0.2747 0.5024   0.095604
 H 0.2662 0.2177 0.5334   0.067652
 H 0.0399 0.3726 0.4999   0.069624
 H 0.9563 0.3804 0.5293   0.064268
 H 0.3288 0.4556 0.5747   0.077328
 H 0.329 0.3285 0.5776   0.029339
 H 0.2651 0.5423 0.5265   0.073953
 H 0.2249 0.4702 0.4982   0.081282
 H 0.0185 0.4924 0.573   0.061528
 H 0.142 0.5541 0.5715   0.08823
 H 0.295 0.4968 0.691   0.074994
 H 0.1705 0.5574 0.6917   0.114971
 H 0.1805 0.232 0.6859   0.017268
 H 0.3006 0.2988 0.688   0.020485
 H 0.9837 0.4546 0.6891   0.089857
 H 0.9864 0.3273 0.6865   0.011036
 H 0.2736 0.3794 0.7647   0.079593
 H 0.3565 0.3876 0.7352   0.066519
 H 0.0802 0.474 0.7656   0.085543
 H 0.0404 0.5433 0.7367   0.083157
 H 0.0486 0.2186 0.7309   0.059862
 H 0.085 0.2762 0.7621   0.106587
 H 0.0687 0.4605 0.8936   0.070042
 H 0.0265 0.4063 0.8436   0.090288
 H 0.8319 0.1581 0.8764   0.095803
 H 0.8754 0.2133 0.9267   0.093863
 H 0.8595 0.2706 0.0789   0.045708
 H 0.9824 0.2079 0.0775   0.023885
 H 0.774 0.2253 0.0024   0.095604
 H 0.7338 0.2823 0.0334   0.067652
 H 0.9601 0.1274 0.9999   0.069624
 H 0.0437 0.1196 0.0293   0.064268
 H 0.6712 0.0444 0.0747   0.077328
 H 0.671 0.1715 0.0776   0.029339
 H 0.7349 0.9577 0.0265   0.073953
 H 0.7751 0.0298 0.9982   0.081282
 H 0.9815 0.0076 0.073   0.061528
 H 0.858 0.9459 0.0715   0.08823
 H 0.705 0.0032 0.191   0.074994
 H 0.8295 0.9426 0.1917   0.114971
 H 0.8195 0.268 0.1859   0.017268
 H 0.6994 0.2012 0.188   0.020485
 H 0.0163 0.0454 0.1891   0.089857
 H 0.0136 0.1727 0.1865   0.011036
 H 0.7264 0.1206 0.2647   0.079593
 H 0.6435 0.1124 0.2352   0.066519
 H 0.9198 0.026 0.2656   0.085544
 H 0.9596 0.9567 0.2367   0.083157
 H 0.9514 0.2814 0.2309   0.059862
 H 0.915 0.2238 0.2621   0.106587
 H 0.5687 0.0395 0.8936   0.070041
 H 0.5265 0.0937 0.8436   0.090288
 H 0.3319 0.3419 0.8764   0.095802
 H 0.3754 0.2867 0.9267   0.093863
 H 0.3595 0.2294 0.0789   0.045708
 H 0.4824 0.2921 0.0775   0.023883
 H 0.274 0.2747 0.0024   0.095604
 H 0.2338 0.2177 0.0334   0.067652
 H 0.4601 0.3726 0.9999   0.069624
 H 0.5437 0.3804 0.0293   0.064268
 H 0.1712 0.4556 0.0747   0.077329
 H 0.171 0.3285 0.0776   0.029337
 H 0.2349 0.5423 0.0265   0.073953
 H 0.2751 0.4702 0.9982   0.081282
 H 0.4815 0.4924 0.073   0.061528
 H 0.358 0.5541 0.0715   0.08823
 H 0.205 0.4968 0.191   0.074994
 H 0.3295 0.5574 0.1917   0.114971
 H 0.3195 0.232 0.1859   0.017268
 H 0.1994 0.2988 0.188   0.020485
 H 0.5163 0.4546 0.1891   0.089856
 H 0.5136 0.3273 0.1865   0.011035
 H 0.2264 0.3794 0.2647   0.079593
 H 0.1435 0.3876 0.2352   0.066519
 H 0.4198 0.474 0.2656   0.085544
 H 0.4596 0.5433 0.2367   0.083157
 H 0.4514 0.2186 0.2309   0.059862
 H 0.415 0.2762 0.2621   0.106587
 H 0.4313 0.4605 0.3936   0.070041
 H 0.4735 0.4063 0.3436   0.090288
 H 0.6681 0.1581 0.3764   0.095802
 H 0.6246 0.2133 0.4267   0.093863
 H 0.6405 0.2706 0.5789   0.045708
 H 0.5176 0.2079 0.5775   0.023883
 H 0.726 0.2253 0.5024   0.095604
 H 0.7662 0.2823 0.5334   0.067652
 H 0.5399 0.1274 0.4999   0.069624
 H 0.4563 0.1196 0.5293   0.064268
 H 0.8288 0.0444 0.5747   0.077329
 H 0.829 0.1715 0.5776   0.029337
 H 0.7651 0.9577 0.5265   0.073953
 H 0.7249 0.0298 0.4982   0.081282
 H 0.5185 0.0076 0.573   0.061528
 H 0.642 0.9459 0.5715   0.08823
 H 0.795 0.0032 0.691   0.074994
 H 0.6705 0.9426 0.6917   0.114971
 H 0.6805 0.268 0.6859   0.017268
 H 0.8006 0.2012 0.688   0.020485
 H 0.4837 0.0454 0.6891   0.089856
 H 0.4864 0.1727 0.6865   0.011035
 H 0.7736 0.1206 0.7647   0.079593
 H 0.8565 0.1124 0.7352   0.066519
 H 0.5802 0.026 0.7656   0.085544
 H 0.5404 0.9567 0.7367   0.083157
 H 0.5486 0.2814 0.7309   0.059862
 H 0.585 0.2238 0.7621   0.106587
 H 0.0687 0.9605 0.6064   0.070041
 H 0.0265 0.9063 0.6564   0.090288
 H 0.8319 0.6581 0.6236   0.095802
 H 0.8754 0.7133 0.5733   0.093863
 H 0.8595 0.7706 0.4211   0.045708
 H 0.9824 0.7079 0.4225   0.023883
 H 0.774 0.7253 0.4976   0.095604
 H 0.7338 0.7823 0.4666   0.067652
 H 0.9601 0.6274 0.5001   0.069624
 H 0.0437 0.6196 0.4707   0.064268
 H 0.6712 0.5444 0.4253   0.077328
 H 0.671 0.6715 0.4224   0.029337
 H 0.7349 0.4577 0.4735   0.073953
 H 0.7751 0.5298 0.5018   0.081282
 H 0.9815 0.5076 0.427   0.061528
 H 0.858 0.4459 0.4285   0.08823
 H 0.705 0.5032 0.309   0.074994
 H 0.8295 0.4426 0.3083   0.114971
 H 0.8195 0.768 0.3141   0.017268
 H 0.6994 0.7012 0.312   0.020485
 H 0.0163 0.5454 0.3109   0.089856
 H 0.0136 0.6727 0.3135   0.011035
 H 0.7264 0.6206 0.2353   0.079593
 H 0.6435 0.6124 0.2648   0.066519
 H 0.9198 0.526 0.2344   0.085544
 H 0.9596 0.4567 0.2633   0.083157
 H 0.9514 0.7814 0.2691   0.059862
 H 0.915 0.7238 0.2379   0.106587
 H 0.9313 0.5395 0.1064   0.070041
 H 0.9735 0.5937 0.1564   0.090288
 H 0.1681 0.8419 0.1236   0.095802
 H 0.1246 0.7867 0.0733   0.093863
 H 0.1405 0.7294 0.9211   0.045708
 H 0.0176 0.7921 0.9225   0.023883
 H 0.226 0.7747 0.9976   0.095604
 H 0.2662 0.7177 0.9666   0.067652
 H 0.0399 0.8726 0.000100000000003   0.069624
 H 0.9563 0.8804 0.9707   0.064268
 H 0.3288 0.9556 0.9253   0.077328
 H 0.329 0.8285 0.9224   0.029337
 H 0.2651 0.0423 0.9735   0.073953
 H 0.2249 0.9702 0.0018   0.081282
 H 0.0185 0.9924 0.927   0.061528
 H 0.142 0.0541 0.9285   0.08823
 H 0.295 0.9968 0.809   0.074994
 H 0.1705 0.0574 0.8083   0.114971
 H 0.1805 0.732 0.8141   0.017268
 H 0.3006 0.7988 0.812   0.020485
 H 0.9837 0.9546 0.8109   0.089856
 H 0.9864 0.8273 0.8135   0.011035
 H 0.2736 0.8794 0.7353   0.079593
 H 0.3565 0.8876 0.7648   0.066519
 H 0.0802 0.974 0.7344   0.085544
 H 0.0404 0.0433 0.7633   0.083157
 H 0.0486 0.7186 0.7691   0.059862
 H 0.085 0.7762 0.7379   0.106587
 C 0.5028 0.8825 0.05164   0.648008
 C 0.5249 0.845 0.08447   -0.144837
 C 0.4801 0.9001 0.10965   -0.050496
 C 0.5053 0.8682 0.13958   -0.052707
 C 0.578 0.7797 0.14447   -0.177616
 C 0.6216 0.7198 0.12004   -0.054551
 C 0.5951 0.753 0.09003   -0.071324
 C 0.6 0.7081 0.93002   0.113793
 C 0.7253 0.7192 0.97507   0.108225
 C 0.5395 0.6217 0.97756   0.128461
 C 0.7872 0.6101 0.93155   0.10097
 C 0.7244 0.5245 0.9793   0.116519
 C 0.6008 0.5122 0.93448   0.113276
 C 0.7123 0.508 0.80179   0.068085
 C 0.7176 0.7041 0.80498   0.102169
 C 0.5266 0.6103 0.80437   0.081404
 C 0.7734 0.6156 0.75783   0.081336
 C 0.5829 0.522 0.7569   0.074905
 C 0.5876 0.7177 0.76041   0.083855
 C 0.4972 0.6175 0.55164   0.648008
 C 0.4751 0.655 0.58447   -0.144837
 C 0.5199 0.5999 0.60965   -0.050496
 C 0.4947 0.6318 0.63958   -0.052707
 C 0.422 0.7203 0.64447   -0.177616
 C 0.3784 0.7802 0.62004   -0.054551
 C 0.4049 0.747 0.59003   -0.071324
 C 0.4 0.7919 0.43002   0.113793
 C 0.2747 0.7808 0.47507   0.108225
 C 0.4605 0.8783 0.47756   0.128461
 C 0.2128 0.8899 0.43155   0.10097
 C 0.2756 0.9755 0.4793   0.116519
 C 0.3992 0.9878 0.43448   0.113276
 C 0.2877 0.992 0.30179   0.068085
 C 0.2824 0.7959 0.30498   0.102169
 C 0.4734 0.8897 0.30437   0.081404
 C 0.2266 0.8844 0.25783   0.081336
 C 0.4171 0.978 0.2569   0.074905
 C 0.4124 0.7823 0.26041   0.083855
 C 0.0028 0.1175 0.44836   0.648008
 C 0.0249 0.155 0.41553   -0.144837
 C 0.9801 0.0999 0.39035   -0.050496
 C 0.0053 0.1318 0.36042   -0.052707
 C 0.078 0.2203 0.35553   -0.177616
 C 0.1216 0.2802 0.37996   -0.054551
 C 0.0951 0.247 0.40997   -0.071324
 C 0.1 0.2919 0.56998   0.113793
 C 0.2253 0.2808 0.52493   0.108225
 C 0.0395 0.3783 0.52244   0.128461
 C 0.2872 0.3899 0.56845   0.10097
 C 0.2244 0.4755 0.5207   0.116519
 C 0.1008 0.4878 0.56552   0.113276
 C 0.2123 0.492 0.69821   0.068085
 C 0.2176 0.2959 0.69502   0.102169
 C 0.0266 0.3897 0.69563   0.081404
 C 0.2734 0.3844 0.74217   0.081336
 C 0.0829 0.478 0.7431   0.074905
 C 0.0876 0.2823 0.73959   0.083855
 C 0.9972 0.3825 0.94836   0.648008
 C 0.9751 0.345 0.91553   -0.144837
 C 0.0199 0.4001 0.89035   -0.050496
 C 0.9947 0.3682 0.86042   -0.052707
 C 0.922 0.2797 0.85553   -0.177616
 C 0.8784 0.2198 0.87996   -0.054551
 C 0.9049 0.253 0.90997   -0.071324
 C 0.9 0.2081 0.06998   0.113793
 C 0.7747 0.2192 0.02493   0.108225
 C 0.9605 0.1217 0.02244   0.128461
 C 0.7128 0.1101 0.06845   0.10097
 C 0.7756 0.0245 0.0207   0.116519
 C 0.8992 0.0122 0.06552   0.113276
 C 0.7877 0.008 0.19821   0.068085
 C 0.7824 0.2041 0.19502   0.102169
 C 0.9734 0.1103 0.19563   0.081404
 C 0.7266 0.1156 0.24217   0.081336
 C 0.9171 0.022 0.2431   0.074905
 C 0.9124 0.2177 0.23959   0.083855
 C 0.4972 0.1175 0.94836   0.648008
 C 0.4751 0.155 0.91553   -0.144837
 C 0.5199 0.0999 0.89035   -0.050495
 C 0.4947 0.1318 0.86042   -0.052707
 C 0.422 0.2203 0.85553   -0.177616
 C 0.3784 0.2802 0.87996   -0.054551
 C 0.4049 0.247 0.90997   -0.071325
 C 0.4 0.2919 0.06998   0.113794
 C 0.2747 0.2808 0.02493   0.108225
 C 0.4605 0.3783 0.02244   0.128461
 C 0.2128 0.3899 0.06845   0.100971
 C 0.2756 0.4755 0.0207   0.116519
 C 0.3992 0.4878 0.06552   0.113276
 C 0.2877 0.492 0.19821   0.068085
 C 0.2824 0.2959 0.19502   0.10217
 C 0.4734 0.3897 0.19563   0.081405
 C 0.2266 0.3844 0.24217   0.081336
 C 0.4171 0.478 0.2431   0.074905
 C 0.4124 0.2823 0.23959   0.083855
 C 0.5028 0.3825 0.44836   0.648008
 C 0.5249 0.345 0.41553   -0.144837
 C 0.4801 0.4001 0.39035   -0.050495
 C 0.5053 0.3682 0.36042   -0.052707
 C 0.578 0.2797 0.35553   -0.177616
 C 0.6216 0.2198 0.37996   -0.054551
 C 0.5951 0.253 0.40997   -0.071325
 C 0.6 0.2081 0.56998   0.113794
 C 0.7253 0.2192 0.52493   0.108225
 C 0.5395 0.1217 0.52244   0.128461
 C 0.7872 0.1101 0.56845   0.100971
 C 0.7244 0.0245 0.5207   0.116519
 C 0.6008 0.0122 0.56552   0.113276
 C 0.7123 0.008 0.69821   0.068085
 C 0.7176 0.2041 0.69502   0.10217
 C 0.5266 0.1103 0.69563   0.081405
 C 0.7734 0.1156 0.74217   0.081336
 C 0.5829 0.022 0.7431   0.074905
 C 0.5876 0.2177 0.73959   0.083855
 C 0.9972 0.8825 0.55164   0.648008
 C 0.9751 0.845 0.58447   -0.144837
 C 0.0199 0.9001 0.60965   -0.050495
 C 0.9947 0.8682 0.63958   -0.052707
 C 0.922 0.7797 0.64447   -0.177616
 C 0.8784 0.7198 0.62004   -0.054551
 C 0.9049 0.753 0.59003   -0.071325
 C 0.9 0.7081 0.43002   0.113794
 C 0.7747 0.7192 0.47507   0.108225
 C 0.9605 0.6217 0.47756   0.128461
 C 0.7128 0.6101 0.43155   0.100971
 C 0.7756 0.5245 0.4793   0.116519
 C 0.8992 0.5122 0.43448   0.113276
 C 0.7877 0.508 0.30179   0.068085
 C 0.7824 0.7041 0.30498   0.10217
 C 0.9734 0.6103 0.30437   0.081405
 C 0.7266 0.6156 0.25783   0.081336
 C 0.9171 0.522 0.2569   0.074905
 C 0.9124 0.7177 0.26041   0.083855
 C 0.0028 0.6175 0.05164   0.648008
 C 0.0249 0.655 0.08447   -0.144837
 C 0.9801 0.5999 0.10965   -0.050495
 C 0.0053 0.6318 0.13958   -0.052707
 C 0.078 0.7203 0.14447   -0.177616
 C 0.1216 0.7802 0.12004   -0.054551
 C 0.0951 0.747 0.09003   -0.071325
 C 0.1 0.7919 0.93002   0.113794
 C 0.2253 0.7808 0.97507   0.108225
 C 0.0395 0.8783 0.97756   0.128461
 C 0.2872 0.8899 0.93155   0.100971
 C 0.2244 0.9755 0.9793   0.116519
 C 0.1008 0.9878 0.93448   0.113276
 C 0.2123 0.992 0.80179   0.068085
 C 0.2176 0.7959 0.80498   0.10217
 C 0.0266 0.8897 0.80437   0.081405
 C 0.2734 0.8844 0.75783   0.081336
 C 0.0829 0.978 0.7569   0.074905
 C 0.0876 0.7823 0.76041   0.083855
 S 0.61271 0.7385 0.18313   1.331541
 S 0.38729 0.7615 0.68313   1.331541
 S 0.11271 0.2615 0.31687   1.331541
 S 0.88729 0.2385 0.81687   1.331541
 S 0.38729 0.2615 0.81687   1.331541
 S 0.61271 0.2385 0.31687   1.331541
 S 0.88729 0.7385 0.68313   1.331541
 S 0.11271 0.7615 0.18313   1.331541
 N 0.5997 0.7179 0.96403   -0.290088
 N 0.6616 0.6069 0.91958   -0.190392
 N 0.7912 0.6197 0.96578   -0.298354
 N 0.6002 0.5211 0.96825   -0.347398
 N 0.653 0.6053 0.81598   -0.152421
 N 0.7154 0.7137 0.77093   -0.250855
 N 0.7106 0.5154 0.76734   -0.240556
 N 0.5221 0.6187 0.77029   -0.235901
 N 0.4003 0.7821 0.46403   -0.290088
 N 0.3384 0.8931 0.41958   -0.190392
 N 0.2088 0.8803 0.46578   -0.298354
 N 0.3998 0.9789 0.46825   -0.347398
 N 0.347 0.8947 0.31598   -0.152421
 N 0.2846 0.7863 0.27093   -0.250855
 N 0.2894 0.9846 0.26734   -0.240556
 N 0.4779 0.8813 0.27029   -0.235901
 N 0.0997 0.2821 0.53597   -0.290088
 N 0.1616 0.3931 0.58042   -0.190392
 N 0.2912 0.3803 0.53422   -0.298354
 N 0.1002 0.4789 0.53175   -0.347398
 N 0.153 0.3947 0.68402   -0.152421
 N 0.2154 0.2863 0.72907   -0.250855
 N 0.2106 0.4846 0.73266   -0.240556
 N 0.0221 0.3813 0.72971   -0.235901
 N 0.9003 0.2179 0.03597   -0.290088
 N 0.8384 0.1069 0.08042   -0.190392
 N 0.7088 0.1197 0.03422   -0.298354
 N 0.8998 0.0211 0.03175   -0.347398
 N 0.847 0.1053 0.18402   -0.152421
 N 0.7846 0.2137 0.22907   -0.250855
 N 0.7894 0.0154 0.23266   -0.240556
 N 0.9779 0.1187 0.22971   -0.235901
 N 0.4003 0.2821 0.03597   -0.290088
 N 0.3384 0.3931 0.08042   -0.190392
 N 0.2088 0.3803 0.03422   -0.298355
 N 0.3998 0.4789 0.03175   -0.347398
 N 0.347 0.3947 0.18402   -0.152421
 N 0.2846 0.2863 0.22907   -0.250855
 N 0.2894 0.4846 0.23266   -0.240556
 N 0.4779 0.3813 0.22971   -0.235901
 N 0.5997 0.2179 0.53597   -0.290088
 N 0.6616 0.1069 0.58042   -0.190392
 N 0.7912 0.1197 0.53422   -0.298355
 N 0.6002 0.0211 0.53175   -0.347398
 N 0.653 0.1053 0.68402   -0.152421
 N 0.7154 0.2137 0.72907   -0.250855
 N 0.7106 0.0154 0.73266   -0.240556
 N 0.5221 0.1187 0.72971   -0.235901
 N 0.9003 0.7179 0.46403   -0.290088
 N 0.8384 0.6069 0.41958   -0.190392
 N 0.7088 0.6197 0.46578   -0.298355
 N 0.8998 0.5211 0.46825   -0.347398
 N 0.847 0.6053 0.31598   -0.152421
 N 0.7846 0.7137 0.27093   -0.250855
 N 0.7894 0.5154 0.26734   -0.240556
 N 0.9779 0.6187 0.27029   -0.235901
 N 0.0997 0.7821 0.96403   -0.290088
 N 0.1616 0.8931 0.91958   -0.190392
 N 0.2912 0.8803 0.96578   -0.298355
 N 0.1002 0.9789 0.96825   -0.347398
 N 0.153 0.8947 0.81598   -0.152421
 N 0.2154 0.7863 0.77093   -0.250855
 N 0.2106 0.9846 0.76734   -0.240556
 N 0.0221 0.8813 0.77029   -0.235901
 O 0.5531 0.831 0.03014   -0.590623
 O 0.4383 0.9659 0.04821   -0.627037
 O 0.5858 0.8311 0.20282   -0.667156
 O 0.7395 0.7098 0.1831   -0.66533
 O 0.5369 0.6458 0.18969   -0.681354
 O 0.4469 0.669 0.53014   -0.590623
 O 0.5617 0.5341 0.54821   -0.627037
 O 0.4142 0.6689 0.70282   -0.667156
 O 0.2605 0.7902 0.6831   -0.66533
 O 0.4631 0.8542 0.68969   -0.681354
 O 0.0531 0.169 0.46986   -0.590623
 O 0.9383 0.0341 0.45179   -0.627037
 O 0.0858 0.1689 0.29718   -0.667156
 O 0.2395 0.2902 0.3169   -0.66533
 O 0.0369 0.3542 0.31031   -0.681354
 O 0.9469 0.331 0.96986   -0.590623
 O 0.0617 0.4659 0.95179   -0.627037
 O 0.9142 0.3311 0.79718   -0.667156
 O 0.7605 0.2098 0.8169   -0.66533
 O 0.9631 0.1458 0.81031   -0.681354
 O 0.4469 0.169 0.96986   -0.590623
 O 0.5617 0.0341 0.95179   -0.627037
 O 0.4142 0.1689 0.79718   -0.667156
 O 0.2605 0.2902 0.8169   -0.66533
 O 0.4631 0.3542 0.81031   -0.681354
 O 0.5531 0.331 0.46986   -0.590623
 O 0.4383 0.4659 0.45179   -0.627037
 O 0.5858 0.3311 0.29718   -0.667156
 O 0.7395 0.2098 0.3169   -0.66533
 O 0.5369 0.1458 0.31031   -0.681354
 O 0.9469 0.831 0.53014   -0.590623
 O 0.0617 0.9659 0.54821   -0.627037
 O 0.9142 0.8311 0.70282   -0.667156
 O 0.7605 0.7098 0.6831   -0.66533
 O 0.9631 0.6458 0.68969   -0.681354
 O 0.0531 0.669 0.03014   -0.590623
 O 0.9383 0.5341 0.04821   -0.627037
 O 0.0858 0.6689 0.20282   -0.667156
 O 0.2395 0.7902 0.1831   -0.66533
 O 0.0369 0.8542 0.18969   -0.681354
