{'_ref': 'TBD', '_srcid': 'CAKYAQ_clean', 'submitters': [{'name': 'Dalar Nazarian Jeff Camp and David Sholl', 'email': 'dalar@gatech.edu jcamp6@gatech.edu'}], '_method': 'VASP DFT with PBE;DDEC'}
data_Yb2CoH32C56(N2O5)4
_symmetry_space_group_name_H-M   'P 1'
_cell_length_a   10.06809998
_cell_length_b   10.74540026
_cell_length_c   13.70730000
_cell_angle_alpha   79.16100200
_cell_angle_beta   78.81200189
_cell_angle_gamma   86.56800062
_symmetry_Int_Tables_number   1
_chemical_formula_structural   Yb2CoH32C56(N2O5)4
_chemical_formula_sum   'Yb2 Co1 H32 C56 N8 O20'
_cell_volume   1428.37862014
_cell_formula_units_Z   1
loop_
 _symmetry_equiv_pos_site_id
 _symmetry_equiv_pos_as_xyz
  1  'x, y, z'
loop_
 _atom_site_label
 _atom_site_fract_x
 _atom_site_fract_y
 _atom_site_fract_z
 _atom_site_charge
 Yb 0.31943 0.92217 0.79567   1.434611
 Yb 0.68057 0.07783 0.20433   1.434595
 Co 0.0 0.5 0.0   0.803884
 H 0.2809 0.3596 0.8687   0.106882
 H 0.3473 0.3268 0.5754   0.120244
 H 0.3288 0.6705 0.6515   0.13124
 H 0.3561 0.4504 0.2404   0.128395
 H 0.3652 0.5683 0.0826   0.080269
 H 0.3543 0.8803 0.1852   0.073981
 H 0.3466 0.7732 0.3482   0.125324
 H 0.8224 0.9141 0.7842   0.106309
 H 0.6934 0.857 0.5373   0.135242
 H 0.0909 0.8407 0.5431   0.119633
 H 0.0072 0.4763 0.3707   0.129699
 H 0.0151 0.4072 0.2217   0.082785
 H 0.0337 0.7518 0.0706   0.100434
 H 0.0175 0.8322 0.2152   0.13509
 H 0.3808 0.646 0.4803   0.323531
 H 0.8807 0.8462 0.3818   0.2961
 H 0.7191 0.6404 0.1313   0.106879
 H 0.6527 0.6732 0.4246   0.12023
 H 0.6712 0.3295 0.3485   0.13124
 H 0.6439 0.5496 0.7596   0.128395
 H 0.6348 0.4317 0.9174   0.080269
 H 0.6457 0.1197 0.8148   0.073976
 H 0.6534 0.2268 0.6518   0.125323
 H 0.1776 0.0859 0.2158   0.1063
 H 0.3066 0.143 0.4627   0.135235
 H 0.9091 0.1593 0.4569   0.119633
 H 0.9928 0.5237 0.6293   0.129699
 H 0.9849 0.5928 0.7783   0.082785
 H 0.9663 0.2482 0.9294   0.100434
 H 0.9825 0.1678 0.7848   0.135089
 H 0.6192 0.354 0.5197   0.323524
 H 0.1193 0.1538 0.6182   0.2961
 C 0.3003 0.5277 0.7721   -0.155028
 C 0.2964 0.3972 0.8008   -0.026012
 C 0.3164 0.3231 0.7253   -0.114503
 C 0.3352 0.3778 0.6244   -0.152879
 C 0.3361 0.5087 0.5959   0.215518
 C 0.3227 0.5829 0.6701   -0.11158
 C 0.3121 0.1822 0.7523   0.613473
 C 0.269 0.6091 0.852   0.733894
 C 0.3318 0.516 0.4168   0.507982
 C 0.3485 0.5988 0.3145   -0.044443
 C 0.3555 0.5384 0.2314   -0.155562
 C 0.3613 0.6101 0.1367   0.176492
 C 0.3552 0.7922 0.1969   0.200072
 C 0.3496 0.7286 0.2959   -0.178779
 C 0.0937 0.8915 0.7191   0.622037
 C 0.9737 0.8809 0.6706   -0.133247
 C 0.8406 0.8969 0.7188   -0.020959
 C 0.7369 0.8875 0.6702   -0.122426
 C 0.7641 0.8605 0.5713   -0.080064
 C 0.8948 0.8394 0.5257   0.194651
 C 0.0017 0.8519 0.5748   -0.113846
 C 0.5908 0.9031 0.7167   0.621032
 C 0.0057 0.7068 0.4089   0.504806
 C 0.0086 0.6645 0.3102   0.004747
 C 0.0099 0.5343 0.3108   -0.116441
 C 0.0153 0.494 0.2207   0.159905
 C 0.025 0.6962 0.1321   0.176162
 C 0.0171 0.745 0.2185   -0.151279
 C 0.6997 0.4723 0.2279   -0.155027
 C 0.7036 0.6028 0.1992   -0.026012
 C 0.6836 0.6769 0.2747   -0.114502
 C 0.6648 0.6222 0.3756   -0.152872
 C 0.6639 0.4913 0.4041   0.215515
 C 0.6773 0.4171 0.3299   -0.111579
 C 0.6879 0.8178 0.2477   0.613479
 C 0.731 0.3909 0.148   0.733893
 C 0.6682 0.484 0.5832   0.50798
 C 0.6515 0.4012 0.6855   -0.044441
 C 0.6445 0.4616 0.7686   -0.155561
 C 0.6387 0.3899 0.8633   0.176492
 C 0.6448 0.2078 0.8031   0.200074
 C 0.6504 0.2714 0.7041   -0.178776
 C 0.9063 0.1085 0.2809   0.622037
 C 0.0263 0.1191 0.3294   -0.133248
 C 0.1594 0.1031 0.2812   -0.020954
 C 0.2631 0.1125 0.3298   -0.122428
 C 0.2359 0.1395 0.4287   -0.080061
 C 0.1052 0.1606 0.4743   0.19465
 C 0.9983 0.1481 0.4252   -0.113847
 C 0.4092 0.0969 0.2833   0.621033
 C 0.9943 0.2932 0.5911   0.504806
 C 0.9914 0.3355 0.6898   0.004748
 C 0.9901 0.4657 0.6892   -0.11644
 C 0.9847 0.506 0.7793   0.159905
 C 0.975 0.3038 0.8679   0.176162
 C 0.9829 0.255 0.7815   -0.151274
 N 0.3538 0.5691 0.4945   -0.395642
 N 0.3617 0.7355 0.1183   -0.367984
 N 0.9203 0.8045 0.4286   -0.381931
 N 0.0207 0.5708 0.1327   -0.344096
 N 0.6462 0.4309 0.5055   -0.395639
 N 0.6383 0.2645 0.8817   -0.367984
 N 0.0797 0.1955 0.5714   -0.381931
 N 0.9793 0.4292 0.8673   -0.344096
 O 0.1936 0.5684 0.9332   -0.570703
 O 0.3245 0.7166 0.8304   -0.645703
 O 0.2935 0.1179 0.6894   -0.578934
 O 0.3292 0.1254 0.8384   -0.597789
 O 0.3057 0.4057 0.4252   -0.448461
 O 0.2096 0.8837 0.6694   -0.559253
 O 0.0764 0.908 0.8107   -0.637003
 O 0.5562 0.9033 0.811   -0.552509
 O 0.5011 0.9167 0.6647   -0.535103
 O 0.0773 0.6515 0.4672   -0.470308
 O 0.8064 0.4316 0.0668   -0.570702
 O 0.6755 0.2834 0.1696   -0.645702
 O 0.7065 0.8821 0.3106   -0.578933
 O 0.6708 0.8746 0.1616   -0.597789
 O 0.6943 0.5943 0.5748   -0.44846
 O 0.7904 0.1163 0.3306   -0.559252
 O 0.9236 0.092 0.1893   -0.637002
 O 0.4438 0.0967 0.189   -0.552509
 O 0.4989 0.0833 0.3353   -0.535105
 O 0.9227 0.3485 0.5328   -0.47031
