{'_ref': 'TBD', '_srcid': 'CAKYAQ_clean', 'submitters': [{'name': 'Dalar Nazarian Jeff Camp and David Sholl', 'email': 'dalar@gatech.edu jcamp6@gatech.edu'}], '_method': 'VASP DFT with PBE;DDEC'}
data_Ho2CoH32C56(N2O5)4
_symmetry_space_group_name_H-M   'P 1'
_cell_length_a   10.05970030
_cell_length_b   10.78239980
_cell_length_c   13.72610000
_cell_angle_alpha   79.14099796
_cell_angle_beta   78.80100076
_cell_angle_gamma   86.57800132
_symmetry_Int_Tables_number   1
_chemical_formula_structural   Ho2CoH32C56(N2O5)4
_chemical_formula_sum   'Ho2 Co1 H32 C56 N8 O20'
_cell_volume   1433.92473577
_cell_formula_units_Z   1
loop_
 _symmetry_equiv_pos_site_id
 _symmetry_equiv_pos_as_xyz
  1  'x, y, z'
loop_
 _atom_site_label
 _atom_site_fract_x
 _atom_site_fract_y
 _atom_site_fract_z
 _atom_site_charge
 Ho 0.31943 0.92216 0.79566   2.097187
 Ho 0.68057 0.07784 0.20434   2.097208
 Co 0.0 0.5 0.0   0.667901
 H 0.2807 0.3593 0.8685   0.114942
 H 0.3471 0.327 0.5754   0.124221
 H 0.3291 0.6704 0.6515   0.133211
 H 0.3548 0.4506 0.24   0.133937
 H 0.3666 0.569 0.0824   0.087005
 H 0.3547 0.8795 0.185   0.07786
 H 0.3464 0.774 0.3475   0.129019
 H 0.8226 0.913 0.7846   0.113336
 H 0.693 0.856 0.5377   0.139261
 H 0.0914 0.8421 0.5432   0.121697
 H 0.008 0.4772 0.3706   0.123825
 H 0.0148 0.4071 0.222   0.078531
 H 0.0342 0.7515 0.0705   0.091982
 H 0.0169 0.8321 0.2156   0.129671
 H 0.3804 0.6459 0.4804   0.32285
 H 0.881 0.8471 0.3824   0.303626
 H 0.7193 0.6407 0.1315   0.114943
 H 0.6529 0.673 0.4246   0.124229
 H 0.6709 0.3296 0.3485   0.133213
 H 0.6452 0.5494 0.76   0.133937
 H 0.6334 0.431 0.9176   0.087029
 H 0.6453 0.1205 0.815   0.07788
 H 0.6536 0.226 0.6525   0.129018
 H 0.1774 0.087 0.2154   0.113358
 H 0.307 0.144 0.4623   0.139264
 H 0.9086 0.1579 0.4568   0.121697
 H 0.992 0.5228 0.6294   0.123828
 H 0.9852 0.5929 0.778   0.078533
 H 0.9658 0.2485 0.9295   0.09198
 H 0.9831 0.1679 0.7844   0.129673
 H 0.6196 0.3541 0.5196   0.322854
 H 0.119 0.1529 0.6176   0.303626
 C 0.3006 0.5281 0.7721   -0.145456
 C 0.2965 0.3968 0.8007   -0.028071
 C 0.3166 0.323 0.7254   -0.109733
 C 0.3353 0.3777 0.6244   -0.156028
 C 0.3364 0.5087 0.5959   0.211018
 C 0.323 0.5831 0.6702   -0.109742
 C 0.3125 0.1823 0.7524   0.649033
 C 0.2692 0.6087 0.8519   0.764032
 C 0.332 0.5161 0.4165   0.502798
 C 0.3491 0.5988 0.3144   -0.036648
 C 0.3552 0.5382 0.2311   -0.148936
 C 0.3618 0.6102 0.1368   0.188988
 C 0.3554 0.7917 0.1968   0.211312
 C 0.3497 0.7292 0.2954   -0.178318
 C 0.0934 0.8918 0.7189   0.652442
 C 0.974 0.881 0.6704   -0.127825
 C 0.8407 0.8965 0.7191   -0.019327
 C 0.7367 0.8875 0.67   -0.118929
 C 0.7638 0.86 0.5715   -0.080033
 C 0.8949 0.8394 0.5256   0.196145
 C 0.0021 0.8526 0.575   -0.113107
 C 0.5908 0.9029 0.7168   0.661923
 C 0.0061 0.7058 0.4094   0.514188
 C 0.0085 0.6643 0.3103   -0.015038
 C 0.0102 0.5349 0.3107   -0.12096
 C 0.0153 0.4937 0.2206   0.151504
 C 0.0252 0.6961 0.132   0.160892
 C 0.0169 0.7451 0.2187   -0.158528
 C 0.6994 0.4719 0.2279   -0.145465
 C 0.7035 0.6032 0.1993   -0.028098
 C 0.6834 0.677 0.2746   -0.109733
 C 0.6647 0.6223 0.3756   -0.156046
 C 0.6636 0.4913 0.4041   0.211007
 C 0.677 0.4169 0.3298   -0.109758
 C 0.6875 0.8177 0.2476   0.649022
 C 0.7308 0.3913 0.1481   0.764033
 C 0.668 0.4839 0.5835   0.50279
 C 0.6509 0.4012 0.6856   -0.036649
 C 0.6448 0.4618 0.7689   -0.148937
 C 0.6382 0.3898 0.8632   0.18898
 C 0.6446 0.2083 0.8032   0.211309
 C 0.6503 0.2708 0.7046   -0.178309
 C 0.9066 0.1082 0.2811   0.652442
 C 0.026 0.119 0.3296   -0.127823
 C 0.1593 0.1035 0.2809   -0.019327
 C 0.2633 0.1125 0.33   -0.118927
 C 0.2362 0.14 0.4285   -0.080034
 C 0.1051 0.1606 0.4744   0.196146
 C 0.9979 0.1474 0.425   -0.113104
 C 0.4092 0.0971 0.2832   0.661923
 C 0.9939 0.2942 0.5906   0.514189
 C 0.9915 0.3357 0.6897   -0.015044
 C 0.9898 0.4651 0.6893   -0.120988
 C 0.9847 0.5063 0.7794   0.151482
 C 0.9748 0.3039 0.868   0.160881
 C 0.9831 0.2549 0.7813   -0.158544
 N 0.3538 0.5691 0.4945   -0.394173
 N 0.3617 0.7358 0.1187   -0.357844
 N 0.9201 0.8052 0.4292   -0.39812
 N 0.0208 0.5704 0.1325   -0.341582
 N 0.6462 0.4309 0.5055   -0.394175
 N 0.6383 0.2642 0.8813   -0.357842
 N 0.0799 0.1948 0.5708   -0.39812
 N 0.9792 0.4296 0.8675   -0.341579
 O 0.1939 0.5679 0.9334   -0.579885
 O 0.3246 0.7166 0.8305   -0.79734
 O 0.2936 0.1177 0.6895   -0.659726
 O 0.3288 0.1254 0.8385   -0.703466
 O 0.3058 0.4058 0.4251   -0.449382
 O 0.2098 0.8835 0.6691   -0.632327
 O 0.0762 0.9079 0.8107   -0.732407
 O 0.5564 0.9033 0.8111   -0.696129
 O 0.5007 0.9161 0.6645   -0.647826
 O 0.0774 0.6516 0.4672   -0.463469
 O 0.8061 0.4321 0.0666   -0.579885
 O 0.6754 0.2834 0.1695   -0.79734
 O 0.7064 0.8823 0.3105   -0.659726
 O 0.6712 0.8746 0.1615   -0.703465
 O 0.6942 0.5942 0.5749   -0.449382
 O 0.7902 0.1165 0.3309   -0.632327
 O 0.9238 0.0921 0.1893   -0.732407
 O 0.4436 0.0967 0.1889   -0.69613
 O 0.4993 0.0839 0.3355   -0.647821
 O 0.9226 0.3484 0.5328   -0.463471
