{'_ref': 'TBD', '_srcid': 'CAKYAQ_clean', 'submitters': [{'name': 'Dalar Nazarian Jeff Camp and David Sholl', 'email': 'dalar@gatech.edu jcamp6@gatech.edu'}], '_method': 'VASP DFT with PBE;DDEC'}
data_UHC5O4
_symmetry_space_group_name_H-M   'P 1'
_cell_length_a   9.97360000
_cell_length_b   12.70510000
_cell_length_c   12.84890000
_cell_angle_alpha   90.00000000
_cell_angle_beta   90.00000000
_cell_angle_gamma   90.00000000
_symmetry_Int_Tables_number   1
_chemical_formula_structural   UHC5O4
_chemical_formula_sum   'U8 H8 C40 O32'
_cell_volume   1628.15588473
_cell_formula_units_Z   8
loop_
 _symmetry_equiv_pos_site_id
 _symmetry_equiv_pos_as_xyz
  1  'x, y, z'
loop_
 _atom_site_label
 _atom_site_fract_x
 _atom_site_fract_y
 _atom_site_fract_z
 _atom_site_charge
 U 0.59489 0.18686 0.2014   1.48264
 U 0.09489 0.31314 0.2986   1.48264
 U 0.90511 0.18686 0.7986   1.482639
 U 0.40511 0.31314 0.7014   1.482639
 U 0.40511 0.81314 0.7986   1.482638
 U 0.90511 0.68686 0.7014   1.482638
 U 0.09489 0.81314 0.2014   1.482637
 U 0.59489 0.68686 0.2986   1.482637
 H 0.8495 0.9381 0.3777   0.034877
 H 0.3495 0.5619 0.1223   0.034877
 H 0.6505 0.9381 0.6223   0.034877
 H 0.1505 0.5619 0.8777   0.034877
 H 0.1505 0.0619 0.6223   0.034877
 H 0.6505 0.4381 0.8777   0.034877
 H 0.3495 0.0619 0.3777   0.034877
 H 0.8495 0.4381 0.1223   0.034877
 C 0.8452 0.1418 0.3696   0.69301
 C 0.0306 0.2225 0.5458   0.761556
 C 0.0163 0.1086 0.5144   -0.139138
 C 0.9255 0.0713 0.4397   -0.144593
 C 0.9102 0.9631 0.4268   -0.02642
 C 0.3452 0.3582 0.1304   0.69301
 C 0.5306 0.2775 0.9542   0.761556
 C 0.5163 0.3914 0.9856   -0.139138
 C 0.4255 0.4287 0.0603   -0.144593
 C 0.4102 0.5369 0.0732   -0.02642
 C 0.6548 0.1418 0.6304   0.69301
 C 0.4694 0.2225 0.4542   0.761556
 C 0.4837 0.1086 0.4856   -0.139138
 C 0.5745 0.0713 0.5603   -0.144593
 C 0.5898 0.9631 0.5732   -0.02642
 C 0.1548 0.3582 0.8696   0.69301
 C 0.9694 0.2775 0.0458   0.761556
 C 0.9837 0.3914 0.0144   -0.139138
 C 0.0745 0.4287 0.9397   -0.144593
 C 0.0898 0.5369 0.9268   -0.02642
 C 0.1548 0.8582 0.6304   0.69301
 C 0.9694 0.7775 0.4542   0.761555
 C 0.9837 0.8914 0.4856   -0.139135
 C 0.0745 0.9287 0.5603   -0.144594
 C 0.0898 0.0369 0.5732   -0.026417
 C 0.6548 0.6418 0.8696   0.69301
 C 0.4694 0.7225 0.0458   0.761555
 C 0.4837 0.6086 0.0144   -0.139135
 C 0.5745 0.5713 0.9397   -0.144594
 C 0.5898 0.4631 0.9268   -0.026417
 C 0.3452 0.8582 0.3696   0.69301
 C 0.5306 0.7775 0.5458   0.761555
 C 0.5163 0.8914 0.5144   -0.139135
 C 0.4255 0.9287 0.4397   -0.144594
 C 0.4102 0.0369 0.4268   -0.026417
 C 0.8452 0.6418 0.1304   0.69301
 C 0.0306 0.7225 0.9542   0.761555
 C 0.0163 0.6086 0.9856   -0.139135
 C 0.9255 0.5713 0.0603   -0.144594
 C 0.9102 0.4631 0.0732   -0.026417
 O 0.7331 0.11023 0.33834   -0.630975
 O 0.0785 0.29115 0.48574   -0.677173
 O 0.9996 0.24492 0.63774   -0.657645
 O 0.8937 0.2301 0.3444   -0.69614
 O 0.2331 0.38977 0.16166   -0.630974
 O 0.5785 0.20885 0.01426   -0.677173
 O 0.4996 0.25508 0.86226   -0.657645
 O 0.3937 0.2699 0.1556   -0.69614
 O 0.7669 0.11023 0.66166   -0.630974
 O 0.4215 0.29115 0.51426   -0.677173
 O 0.5004 0.24492 0.36226   -0.657645
 O 0.6063 0.2301 0.6556   -0.69614
 O 0.2669 0.38977 0.83834   -0.630974
 O 0.9215 0.20885 0.98574   -0.677173
 O 0.000399999999999 0.25508 0.13774   -0.657645
 O 0.1063 0.2699 0.8444   -0.69614
 O 0.2669 0.88977 0.66166   -0.630974
 O 0.9215 0.70885 0.51426   -0.677173
 O 0.000399999999999 0.75508 0.36226   -0.657645
 O 0.1063 0.7699 0.6556   -0.69614
 O 0.7669 0.61023 0.83834   -0.630974
 O 0.4215 0.79115 0.98574   -0.677173
 O 0.5004 0.74492 0.13774   -0.657645
 O 0.6063 0.7301 0.8444   -0.69614
 O 0.2331 0.88977 0.33834   -0.630974
 O 0.5785 0.70885 0.48574   -0.677173
 O 0.4996 0.75508 0.63774   -0.657645
 O 0.3937 0.7699 0.3444   -0.69614
 O 0.7331 0.61023 0.16166   -0.630974
 O 0.0785 0.79115 0.01426   -0.677173
 O 0.9996 0.74492 0.86226   -0.657645
 O 0.8937 0.7301 0.1556   -0.69614
