{'_ref': 'TBD', '_srcid': 'CAKYAQ_clean', 'submitters': [{'name': 'Dalar Nazarian Jeff Camp and David Sholl', 'email': 'dalar@gatech.edu jcamp6@gatech.edu'}], '_method': 'VASP DFT with PBE;DDEC'}
data_CoH18C22(NO)4
_symmetry_space_group_name_H-M   'P 1'
_cell_length_a   11.45390000
_cell_length_b   11.72700032
_cell_length_c   14.13890000
_cell_angle_alpha   112.65700139
_cell_angle_beta   90.00000000
_cell_angle_gamma   119.23200128
_symmetry_Int_Tables_number   1
_chemical_formula_structural   CoH18C22(NO)4
_chemical_formula_sum   'Co2 H36 C44 N8 O8'
_cell_volume   1487.06984103
_cell_formula_units_Z   2
loop_
 _symmetry_equiv_pos_site_id
 _symmetry_equiv_pos_as_xyz
  1  'x, y, z'
loop_
 _atom_site_label
 _atom_site_fract_x
 _atom_site_fract_y
 _atom_site_fract_z
 _atom_site_charge
 Co 0.01439 0.0 0.75   0.924309
 Co 0.98561 0.0 0.25   0.924309
 H 0.1631 0.7006 0.6482   0.100897
 H 0.2078 0.5246 0.5475   0.107269
 H 0.9484 0.161 0.9645   0.10398
 H 0.8028 0.743 0.8044   0.111398
 H 0.6983 0.775 0.9556   0.127512
 H 0.7611 0.0246 0.1345   0.11288
 H 0.8331 0.1676 0.1188   0.10964
 H 0.5133 0.854 0.0658   0.097232
 H 0.301 0.7986 0.9935   0.113129
 H 0.4625 0.2994 0.8518   0.100905
 H 0.6832 0.4754 0.9525   0.107295
 H 0.7874 0.839 0.5355   0.103968
 H 0.0598 0.257 0.6956   0.111393
 H 0.9233 0.225 0.5444   0.127512
 H 0.7365 0.9754 0.3655   0.112885
 H 0.6655 0.8324 0.3812   0.109659
 H 0.6593 0.146 0.4342   0.097239
 H 0.5024 0.2014 0.5065   0.113143
 H 0.8369 0.2994 0.3518   0.100904
 H 0.7922 0.4754 0.4525   0.107284
 H 0.0516 0.839 0.0355   0.103987
 H 0.1972 0.257 0.1956   0.111398
 H 0.3017 0.225 0.0444   0.127512
 H 0.2389 0.9754 0.8655   0.112881
 H 0.1669 0.8324 0.8812   0.10965
 H 0.4867 0.146 0.9342   0.09724
 H 0.699 0.2014 0.0065   0.113146
 H 0.5375 0.7006 0.1482   0.100912
 H 0.3168 0.5246 0.0475   0.107311
 H 0.2126 0.161 0.4645   0.103975
 H 0.9402 0.743 0.3044   0.111393
 H 0.0767 0.775 0.4556   0.127512
 H 0.2635 0.0246 0.6345   0.112886
 H 0.3345 0.1676 0.6188   0.10967
 H 0.3407 0.854 0.5658   0.097247
 H 0.4976 0.7986 0.4935   0.11316
 C 0.94702 0.72424 0.62391   0.633597
 C 0.97316 0.60632 0.56092   -0.11976
 C 0.09737 0.61974 0.58849   -0.079112
 C 0.12446 0.51452 0.52829   -0.062551
 C 0.89966 0.06096 0.94304   0.147477
 C 0.81918 0.83136 0.85548   0.040984
 C 0.76132 0.84824 0.93897   -0.143293
 C 0.76725 0.0633 0.08389   -0.074494
 C 0.62796 0.03332 0.04424   0.023813
 C 0.50821 0.91322 0.0394   -0.106856
 C 0.38071 0.87962 0.9958   -0.124556
 C 0.22278 0.27576 0.87609   0.633578
 C 0.36684 0.39368 0.93908   -0.119695
 C 0.47763 0.38026 0.91151   -0.079122
 C 0.60994 0.48548 0.97171   -0.062624
 C 0.8387 0.93904 0.55696   0.147484
 C 0.98782 0.16864 0.64452   0.041014
 C 0.91308 0.15176 0.56103   -0.143324
 C 0.70395 0.9367 0.41611   -0.074546
 C 0.59464 0.96668 0.45576   0.023822
 C 0.59499 0.08678 0.4606   -0.106856
 C 0.50109 0.12038 0.5042   -0.124575
 C 0.05298 0.27576 0.37609   0.633597
 C 0.02684 0.39368 0.43908   -0.119774
 C 0.90263 0.38026 0.41151   -0.079108
 C 0.87554 0.48548 0.47171   -0.062568
 C 0.10034 0.93904 0.05696   0.147469
 C 0.18082 0.16864 0.14452   0.040983
 C 0.23868 0.15176 0.06103   -0.143296
 C 0.23275 0.9367 0.91611   -0.074501
 C 0.37204 0.96668 0.95576   0.023835
 C 0.49179 0.08678 0.9606   -0.106862
 C 0.61929 0.12038 0.0042   -0.124539
 C 0.77722 0.72424 0.12391   0.633578
 C 0.63316 0.60632 0.06092   -0.11971
 C 0.52237 0.61974 0.08849   -0.079117
 C 0.39006 0.51452 0.02829   -0.06264
 C 0.1613 0.06096 0.44304   0.147476
 C 0.01218 0.83136 0.35548   0.041012
 C 0.08692 0.84824 0.43897   -0.143327
 C 0.29605 0.0633 0.58389   -0.074553
 C 0.40536 0.03332 0.54424   0.023843
 C 0.40501 0.91322 0.5394   -0.106862
 C 0.49891 0.87962 0.4958   -0.124558
 N 0.90621 0.96534 0.85771   -0.437472
 N 0.81343 0.99416 0.99424   0.054862
 N 0.94087 0.03466 0.64229   -0.437475
 N 0.81927 0.00584 0.50576   0.054905
 N 0.09379 0.03466 0.14229   -0.437471
 N 0.18657 0.00584 0.00576   0.054864
 N 0.05913 0.96534 0.35771   -0.437474
 N 0.18073 0.99416 0.49424   0.054907
 O 0.05311 0.84476 0.6869   -0.606516
 O 0.83009 0.70252 0.61086   -0.592242
 O 0.20835 0.15524 0.8131   -0.606522
 O 0.12757 0.29748 0.88914   -0.592246
 O 0.94689 0.15524 0.3131   -0.606516
 O 0.16991 0.29748 0.38914   -0.592242
 O 0.79165 0.84476 0.1869   -0.606522
 O 0.87243 0.70252 0.11086   -0.592246
