{'_ref': 'TBD', '_srcid': 'CAKYAQ_clean', 'submitters': [{'name': 'Dalar Nazarian Jeff Camp and David Sholl', 'email': 'dalar@gatech.edu jcamp6@gatech.edu'}], '_method': 'VASP DFT with PBE;DDEC'}
data_ZnH18C22(NO)4
_symmetry_space_group_name_H-M   'P 1'
_cell_length_a   10.89770000
_cell_length_b   14.66130000
_cell_length_c   18.71160000
_cell_angle_alpha   90.00000000
_cell_angle_beta   90.00000000
_cell_angle_gamma   90.00000000
_symmetry_Int_Tables_number   1
_chemical_formula_structural   ZnH18C22(NO)4
_chemical_formula_sum   'Zn4 H72 C88 N16 O16'
_cell_volume   2989.6355801
_cell_formula_units_Z   4
loop_
 _symmetry_equiv_pos_site_id
 _symmetry_equiv_pos_as_xyz
  1  'x, y, z'
loop_
 _atom_site_label
 _atom_site_fract_x
 _atom_site_fract_y
 _atom_site_fract_z
 _atom_site_charge
 Zn 0.54085 0.95376 0.998573   0.873368
 Zn 0.45915 0.45376 0.001427   0.873368
 Zn 0.95915 0.95376 0.498573   0.873368
 Zn 0.04085 0.45376 0.501427   0.873368
 H 0.7145 0.1043 0.0917   0.108676
 H 0.2855 0.6043 0.9083   0.108676
 H 0.7855 0.1043 0.5917   0.108676
 H 0.2145 0.6043 0.4083   0.108676
 H 0.7157 0.186 0.1459   0.108632
 H 0.2843 0.686 0.8541   0.108632
 H 0.7843 0.186 0.6459   0.108632
 H 0.2157 0.686 0.3541   0.108632
 H 0.5821 0.3214 0.1114   0.110093
 H 0.4179 0.8214 0.8886   0.110093
 H 0.9179 0.3214 0.6114   0.110093
 H 0.0821 0.8214 0.3886   0.110093
 H 0.538 0.2823 0.9063   0.115249
 H 0.462 0.7823 0.0937   0.115249
 H 0.962 0.2823 0.4063   0.115249
 H 0.038 0.7823 0.5937   0.115249
 H 0.6676 0.1573 0.9516   0.142252
 H 0.3324 0.6573 0.0484   0.142252
 H 0.8324 0.1573 0.4516   0.142252
 H 0.1676 0.6573 0.5484   0.142252
 H 0.7135 0.9272 0.7479   0.094683
 H 0.2865 0.4272 0.2521   0.094683
 H 0.7865 0.9272 0.2479   0.094683
 H 0.2135 0.4272 0.7521   0.094683
 H 0.0474 0.0295 0.713   0.092889
 H 0.9526 0.5295 0.287   0.092889
 H 0.4526 0.0295 0.213   0.092889
 H 0.5474 0.5295 0.787   0.092889
 H 0.0602 0.0749 0.8328   0.098608
 H 0.9398 0.5749 0.1672   0.098608
 H 0.4398 0.0749 0.3328   0.098608
 H 0.5602 0.5749 0.6672   0.098608
 H 0.8944 0.0448 0.9087   0.080195
 H 0.1056 0.5448 0.0913   0.080195
 H 0.6056 0.0448 0.4087   0.080195
 H 0.3944 0.5448 0.5913   0.080195
 H 0.3891 0.1106 0.071   0.108427
 H 0.6109 0.6106 0.929   0.108427
 H 0.1109 0.1106 0.571   0.108427
 H 0.8891 0.6106 0.429   0.108427
 H 0.2555 0.1805 0.8827   0.155769
 H 0.7445 0.6805 0.1173   0.155769
 H 0.2445 0.1805 0.3827   0.155769
 H 0.7555 0.6805 0.6173   0.155769
 H 0.3763 0.0407 0.8681   0.117972
 H 0.6237 0.5407 0.1319   0.117972
 H 0.1237 0.0407 0.3681   0.117972
 H 0.8763 0.5407 0.6319   0.117972
 H 0.2395 0.3016 0.9927   0.121856
 H 0.7605 0.8016 0.0073   0.121856
 H 0.2605 0.3016 0.4927   0.121856
 H 0.7395 0.8016 0.5073   0.121856
 H 0.2798 0.2649 0.0679   0.113113
 H 0.7202 0.7649 0.9321   0.113113
 H 0.2202 0.2649 0.5679   0.113113
 H 0.7798 0.7649 0.4321   0.113113
 H 0.0649 0.3503 0.0753   0.100351
 H 0.9351 0.8503 0.9247   0.100351
 H 0.4351 0.3503 0.5753   0.100351
 H 0.5649 0.8503 0.4247   0.100351
 H 0.8654 0.3213 0.1097   0.104248
 H 0.1346 0.8213 0.8903   0.104248
 H 0.6346 0.3213 0.6097   0.104248
 H 0.3654 0.8213 0.3903   0.104248
 H 0.9039 0.0627 0.0417   0.117057
 H 0.0961 0.5627 0.9583   0.117057
 H 0.5961 0.0627 0.5417   0.117057
 H 0.4039 0.5627 0.4583   0.117057
 H 0.1037 0.093 0.0115   0.096153
 H 0.8963 0.593 0.9885   0.096153
 H 0.3963 0.093 0.5115   0.096153
 H 0.6037 0.593 0.4885   0.096153
 C 0.873 0.9428 0.64109   0.672616
 C 0.127 0.4428 0.35891   0.672616
 C 0.627 0.9428 0.14109   0.672616
 C 0.373 0.4428 0.85891   0.672616
 C 0.7309 0.169 0.0966   -0.068925
 C 0.2691 0.669 0.9034   -0.068925
 C 0.7691 0.169 0.5966   -0.068925
 C 0.2309 0.669 0.4034   -0.068925
 C 0.5868 0.2961 0.06591   0.128714
 C 0.4132 0.7961 0.93409   0.128714
 C 0.9132 0.2961 0.56591   0.128714
 C 0.0868 0.7961 0.43409   0.128714
 C 0.5629 0.2744 0.95338   0.021959
 C 0.4371 0.7744 0.04662   0.021959
 C 0.9371 0.2744 0.45338   0.021959
 C 0.0629 0.7744 0.54662   0.021959
 C 0.6349 0.205 0.97817   -0.140584
 C 0.3651 0.705 0.02183   -0.140584
 C 0.8651 0.205 0.47817   -0.140584
 C 0.1349 0.705 0.52183   -0.140584
 C 0.6807 0.967 0.88337   0.6375
 C 0.3193 0.467 0.11663   0.6375
 C 0.8193 0.967 0.38337   0.6375
 C 0.1807 0.467 0.61663   0.6375
 C 0.7858 0.9866 0.83486   -0.158519
 C 0.2142 0.4866 0.16514   -0.158519
 C 0.7142 0.9866 0.33486   -0.158519
 C 0.2858 0.4866 0.66514   -0.158519
 C 0.7824 0.958 0.76461   0.008344
 C 0.2176 0.458 0.23539   0.008344
 C 0.7176 0.958 0.26461   0.008344
 C 0.2824 0.458 0.73539   0.008344
 C 0.8798 0.9742 0.71823   -0.163298
 C 0.1202 0.4742 0.28177   -0.163298
 C 0.6202 0.9742 0.21823   -0.163298
 C 0.3798 0.4742 0.78177   -0.163298
 C 0.9822 0.018 0.74378   -0.034549
 C 0.0178 0.518 0.25622   -0.034549
 C 0.5178 0.018 0.24378   -0.034549
 C 0.4822 0.518 0.75622   -0.034549
 C 0.9904 0.0457 0.81568   -0.139658
 C 0.0096 0.5457 0.18432   -0.139658
 C 0.5096 0.0457 0.31568   -0.139658
 C 0.4904 0.5457 0.68432   -0.139658
 C 0.8903 0.0282 0.86083   -0.027215
 C 0.1097 0.5282 0.13917   -0.027215
 C 0.6097 0.0282 0.36083   -0.027215
 C 0.3903 0.5282 0.63917   -0.027215
 C 0.3715 0.1105 0.02238   0.117794
 C 0.6285 0.6105 0.97762   0.117794
 C 0.1285 0.1105 0.52238   0.117794
 C 0.8715 0.6105 0.47762   0.117794
 C 0.2972 0.1492 0.91843   -0.157398
 C 0.7028 0.6492 0.08157   -0.157398
 C 0.2028 0.1492 0.41843   -0.157398
 C 0.7972 0.6492 0.58157   -0.157398
 C 0.3644 0.0721 0.91068   0.033929
 C 0.6356 0.5721 0.08932   0.033929
 C 0.1356 0.0721 0.41068   0.033929
 C 0.8644 0.5721 0.58932   0.033929
 C 0.2377 0.2488 0.024   -0.08347
 C 0.7623 0.7488 0.976   -0.08347
 C 0.2623 0.2488 0.524   -0.08347
 C 0.7377 0.7488 0.476   -0.08347
 C 0.1055 0.2248 0.04081   0.039944
 C 0.8945 0.7248 0.95919   0.039944
 C 0.3945 0.2248 0.54081   0.039944
 C 0.6055 0.7248 0.45919   0.039944
 C 0.0326 0.292 0.06931   -0.102317
 C 0.9674 0.792 0.93069   -0.102317
 C 0.4674 0.292 0.56931   -0.102317
 C 0.5326 0.792 0.43069   -0.102317
 C 0.9126 0.2754 0.0893   -0.130994
 C 0.0874 0.7754 0.9107   -0.130994
 C 0.5874 0.2754 0.5893   -0.130994
 C 0.4126 0.7754 0.4107   -0.130994
 C 0.863 0.1878 0.0783   0.016795
 C 0.137 0.6878 0.9217   0.016795
 C 0.637 0.1878 0.5783   0.016795
 C 0.363 0.6878 0.4217   0.016795
 C 0.9359 0.1207 0.04911   -0.099766
 C 0.0641 0.6207 0.95089   -0.099766
 C 0.5641 0.1207 0.54911   -0.099766
 C 0.4359 0.6207 0.45089   -0.099766
 C 0.0555 0.1391 0.0309   -0.136382
 C 0.9445 0.6391 0.9691   -0.136382
 C 0.4445 0.1391 0.5309   -0.136382
 C 0.5555 0.6391 0.4691   -0.136382
 N 0.5333 0.3306 0.00968   -0.38741
 N 0.4667 0.8306 0.99032   -0.38741
 N 0.9667 0.3306 0.50968   -0.38741
 N 0.0333 0.8306 0.49032   -0.38741
 N 0.6496 0.21974 0.05019   0.052767
 N 0.3504 0.71974 0.94981   0.052767
 N 0.8504 0.21974 0.55019   0.052767
 N 0.1496 0.71974 0.44981   0.052767
 N 0.4119 0.048 0.97519   -0.393981
 N 0.5881 0.548 0.02481   -0.393981
 N 0.0881 0.048 0.47519   -0.393981
 N 0.9119 0.548 0.52481   -0.393981
 N 0.3029 0.1719 0.98899   0.074329
 N 0.6971 0.6719 0.01101   0.074329
 N 0.1971 0.1719 0.48899   0.074329
 N 0.8029 0.6719 0.51101   0.074329
 O 0.5819 0.93509 0.85856   -0.607897
 O 0.4181 0.43509 0.14144   -0.607897
 O 0.9181 0.93509 0.35856   -0.607897
 O 0.0819 0.43509 0.64144   -0.607897
 O 0.95186 0.97952 0.60044   -0.634098
 O 0.04814 0.47952 0.39956   -0.634098
 O 0.54814 0.97952 0.10044   -0.634098
 O 0.45186 0.47952 0.89956   -0.634098
 O 0.7963 0.8878 0.62281   -0.595676
 O 0.2037 0.3878 0.37719   -0.595676
 O 0.7037 0.8878 0.12281   -0.595676
 O 0.2963 0.3878 0.87719   -0.595676
 O 0.69619 0.98297 0.95029   -0.602144
 O 0.30381 0.48297 0.04971   -0.602144
 O 0.80381 0.98297 0.45029   -0.602144
 O 0.19619 0.48297 0.54971   -0.602144
