{'_ref': 'TBD', '_srcid': 'CAKYAQ_clean', 'submitters': [{'name': 'Dalar Nazarian Jeff Camp and David Sholl', 'email': 'dalar@gatech.edu jcamp6@gatech.edu'}], '_method': 'VASP DFT with PBE;DDEC'}
data_Zn2H30C40N4O9
_symmetry_space_group_name_H-M   'P 1'
_cell_length_a   12.09949969
_cell_length_b   14.00769982
_cell_length_c   14.00770000
_cell_angle_alpha   82.45379790
_cell_angle_beta   79.91700094
_cell_angle_gamma   79.91680102
_symmetry_Int_Tables_number   1
_chemical_formula_structural   Zn2H30C40N4O9
_chemical_formula_sum   'Zn4 H60 C80 N8 O18'
_cell_volume   2288.89552096
_cell_formula_units_Z   2
loop_
 _symmetry_equiv_pos_site_id
 _symmetry_equiv_pos_as_xyz
  1  'x, y, z'
loop_
 _atom_site_label
 _atom_site_fract_x
 _atom_site_fract_y
 _atom_site_fract_z
 _atom_site_charge
 Zn 0.10065 0.23015 0.18391   0.872974
 Zn 0.39935 0.81609 0.76985   0.872989
 Zn 0.89935 0.76985 0.81609   0.872974
 Zn 0.60065 0.18391 0.23015   0.872989
 H 0.0358 0.3381 0.8467   0.106564
 H 0.9443 0.3233 0.7187   0.110108
 H 0.6819 0.241 0.9074   0.133394
 H 0.8775 0.3445 0.2305   0.089098
 H 0.7737 0.439 0.3446   0.129025
 H 0.004 0.3444 0.518   0.131833
 H 0.1084 0.255 0.396   0.084436
 H 0.835 0.4403 0.5835   0.092664
 H 0.8342 0.5309 0.5055   0.083589
 H 0.342 0.2073 0.0899   0.096127
 H 0.4861 0.2965 0.0389   0.137405
 H 0.2816 0.5272 0.1408   0.112635
 H 0.1406 0.4345 0.1855   0.069735
 H 0.4802 0.5411 0.0885   0.090966
 H 0.5669 0.4463 0.0667   0.101135
 H 0.4642 0.1533 0.6619   0.106569
 H 0.5557 0.2813 0.6767   0.110107
 H 0.8181 0.0926 0.759   0.133395
 H 0.6225 0.7695 0.6555   0.089099
 H 0.7263 0.6554 0.561   0.129027
 H 0.496 0.482 0.6556   0.131821
 H 0.3916 0.604 0.745   0.084434
 H 0.665 0.4165 0.5597   0.092658
 H 0.6658 0.4945 0.4691   0.083589
 H 0.158 0.9101 0.7927   0.096133
 H 0.0139 0.9611 0.7035   0.1374
 H 0.2184 0.8592 0.4728   0.112636
 H 0.3594 0.8145 0.5655   0.069729
 H 0.0198 0.9115 0.4589   0.09096
 H 0.9331 0.9333 0.5537   0.101133
 H 0.9642 0.6619 0.1533   0.106566
 H 0.0557 0.6767 0.2813   0.11011
 H 0.3181 0.759 0.0926   0.133394
 H 0.1225 0.6555 0.7695   0.089098
 H 0.2263 0.561 0.6554   0.129027
 H 0.996 0.6556 0.482   0.131836
 H 0.8916 0.745 0.604   0.084436
 H 0.165 0.5597 0.4165   0.092665
 H 0.1658 0.4691 0.4945   0.083591
 H 0.658 0.7927 0.9101   0.096127
 H 0.5139 0.7035 0.9611   0.137405
 H 0.7184 0.4728 0.8592   0.112635
 H 0.8594 0.5655 0.8145   0.069736
 H 0.5198 0.4589 0.9115   0.090967
 H 0.4331 0.5537 0.9333   0.101135
 H 0.5358 0.8467 0.3381   0.106571
 H 0.4443 0.7187 0.3233   0.110108
 H 0.1819 0.9074 0.241   0.133395
 H 0.3775 0.2305 0.3445   0.0891
 H 0.2737 0.3446 0.439   0.12903
 H 0.504 0.518 0.3444   0.131824
 H 0.6084 0.396 0.255   0.084434
 H 0.335 0.5835 0.4403   0.092659
 H 0.3342 0.5055 0.5309   0.083592
 H 0.842 0.0899 0.2073   0.096133
 H 0.9861 0.0389 0.2965   0.1374
 H 0.7816 0.1408 0.5272   0.112636
 H 0.6406 0.1855 0.4345   0.06973
 H 0.9802 0.0885 0.5411   0.090961
 H 0.0669 0.0667 0.4463   0.101133
 C 0.8078 0.26874 0.97294   -0.032877
 C 0.9146 0.2962 0.955   -0.077016
 C 0.9651 0.3177 0.8593   -0.035506
 C 0.9102 0.309 0.7826   -0.238119
 C 0.806 0.27917 0.80097   0.267492
 C 0.7535 0.25998 0.89538   -0.219966
 C 0.7418 0.26173 0.07353   0.65485
 C 0.9816 0.3009 0.0347   0.652065
 C 0.9054 0.3455 0.2881   0.212865
 C 0.8419 0.4014 0.3572   -0.234321
 C 0.8772 0.4028 0.4452   0.167739
 C 0.977 0.3469 0.4593   -0.24102
 C 0.0396 0.29284 0.38524   0.177488
 C 0.8118 0.4668 0.5212   -0.156544
 C 0.3291 0.2729 0.0999   0.194121
 C 0.4166 0.3259 0.0701   -0.230292
 C 0.4011 0.4233 0.0867   0.160419
 C 0.2962 0.4619 0.1295   -0.215229
 C 0.2115 0.4056 0.1564   0.193406
 C 0.4953 0.4843 0.0527   -0.165273
 C 0.6922 0.02706 0.73126   -0.032865
 C 0.5854 0.045 0.7038   -0.077025
 C 0.5349 0.1407 0.6823   -0.035505
 C 0.5898 0.2174 0.691   -0.238129
 C 0.694 0.19903 0.72083   0.267513
 C 0.7465 0.10462 0.74002   -0.219981
 C 0.7582 0.92647 0.73827   0.654852
 C 0.5184 0.9653 0.6991   0.652071
 C 0.5946 0.7119 0.6545   0.212859
 C 0.6581 0.6428 0.5986   -0.234316
 C 0.6228 0.5548 0.5972   0.167732
 C 0.523 0.5407 0.6531   -0.241001
 C 0.4604 0.61476 0.70716   0.177488
 C 0.6882 0.4788 0.5332   -0.156504
 C 0.1709 0.9001 0.7271   0.194105
 C 0.0834 0.9299 0.6741   -0.230291
 C 0.0989 0.9133 0.5767   0.160427
 C 0.2038 0.8705 0.5381   -0.21523
 C 0.2885 0.8436 0.5944   0.193406
 C 0.0047 0.9473 0.5157   -0.165265
 C 0.1922 0.73126 0.02706   -0.032877
 C 0.0854 0.7038 0.045   -0.077016
 C 0.0349 0.6823 0.1407   -0.035506
 C 0.0898 0.691 0.2174   -0.23812
 C 0.194 0.72083 0.19903   0.267492
 C 0.2465 0.74002 0.10462   -0.219966
 C 0.2582 0.73827 0.92647   0.65485
 C 0.0184 0.6991 0.9653   0.652065
 C 0.0946 0.6545 0.7119   0.212865
 C 0.1581 0.5986 0.6428   -0.234321
 C 0.1228 0.5972 0.5548   0.16774
 C 0.023 0.6531 0.5407   -0.241021
 C 0.9604 0.70716 0.61476   0.177488
 C 0.1882 0.5332 0.4788   -0.156545
 C 0.6709 0.7271 0.9001   0.194121
 C 0.5834 0.6741 0.9299   -0.230292
 C 0.5989 0.5767 0.9133   0.160419
 C 0.7038 0.5381 0.8705   -0.215228
 C 0.7885 0.5944 0.8436   0.193406
 C 0.5047 0.5157 0.9473   -0.165275
 C 0.3078 0.97294 0.26874   -0.032865
 C 0.4146 0.955 0.2962   -0.077025
 C 0.4651 0.8593 0.3177   -0.035506
 C 0.4102 0.7826 0.309   -0.238129
 C 0.306 0.80097 0.27917   0.267513
 C 0.2535 0.89538 0.25998   -0.219981
 C 0.2418 0.07353 0.26173   0.654852
 C 0.4816 0.0347 0.3009   0.652071
 C 0.4054 0.2881 0.3455   0.212858
 C 0.3419 0.3572 0.4014   -0.234317
 C 0.3772 0.4452 0.4028   0.167733
 C 0.477 0.4593 0.3469   -0.241001
 C 0.5396 0.38524 0.29284   0.177488
 C 0.3118 0.5212 0.4668   -0.156505
 C 0.8291 0.0999 0.2729   0.194105
 C 0.9166 0.0701 0.3259   -0.230291
 C 0.9011 0.0867 0.4233   0.160426
 C 0.7962 0.1295 0.4619   -0.21523
 C 0.7115 0.1564 0.4056   0.193406
 C 0.9953 0.0527 0.4843   -0.165267
 N 0.0048 0.29292 0.29972   -0.36031
 N 0.2264 0.3113 0.14266   -0.356321
 N 0.4952 0.70028 0.70708   -0.360313
 N 0.2736 0.85734 0.6887   -0.356314
 N 0.9952 0.70708 0.70028   -0.36031
 N 0.7736 0.6887 0.85734   -0.356321
 N 0.5048 0.29972 0.29292   -0.360313
 N 0.7264 0.14266 0.3113   -0.356314
 O 0.6782 0.19534 0.095   -0.613382
 O 0.7482 0.31884 0.13002   -0.59301
 O 0.9959 0.22475 0.09331   -0.616872
 O 0.0165 0.3759 0.0421   -0.584862
 O 0.8218 0.905 0.80466   -0.613383
 O 0.7518 0.86998 0.68116   -0.593012
 O 0.5041 0.90669 0.77525   -0.616875
 O 0.4835 0.9579 0.6241   -0.584867
 O 0.3218 0.80466 0.905   -0.613382
 O 0.2518 0.68116 0.86998   -0.59301
 O 0.0041 0.77525 0.90669   -0.616872
 O 0.9835 0.6241 0.9579   -0.58486
 O 0.1782 0.095 0.19534   -0.613383
 O 0.2482 0.13002 0.31884   -0.593012
 O 0.4959 0.09331 0.22475   -0.616875
 O 0.5165 0.0421 0.3759   -0.584865
 O 0.75 0.2781 0.7219   -0.302477
 O 0.25 0.7219 0.2781   -0.302477
