{'_ref': 'TBD', '_srcid': 'CAKYAQ_clean', 'submitters': [{'name': 'Dalar Nazarian Jeff Camp and David Sholl', 'email': 'dalar@gatech.edu jcamp6@gatech.edu'}], '_method': 'VASP DFT with PBE;DDEC'}
data_CdH4(CN)3
_symmetry_space_group_name_H-M   'P 1'
_cell_length_a   8.17679990
_cell_length_b   8.17680017
_cell_length_c   15.83700000
_cell_angle_alpha   91.38820326
_cell_angle_beta   91.38820331
_cell_angle_gamma   95.20280254
_symmetry_Int_Tables_number   1
_chemical_formula_structural   CdH4(CN)3
_chemical_formula_sum   'Cd4 H16 C12 N12'
_cell_volume   1053.81935688
_cell_formula_units_Z   4
loop_
 _symmetry_equiv_pos_site_id
 _symmetry_equiv_pos_as_xyz
  1  'x, y, z'
loop_
 _atom_site_label
 _atom_site_fract_x
 _atom_site_fract_y
 _atom_site_fract_z
 _atom_site_charge
 Cd 0.49269 0.51411 0.74956   0.489904
 Cd 0.00367 0.49633 0.0   0.91675
 Cd 0.51411 0.49269 0.24956   0.489915
 Cd 0.49633 0.00367 0.5   0.916744
 H 0.81951 0.19611 0.95958   0.296752
 H 0.000770000000003 0.20807 0.89921   0.29591
 H 0.14782 0.12218 0.0184   0.07395
 H 0.96086 0.10046 0.07399   0.07614
 H 0.04244 0.89928 0.92028   0.0749
 H 0.85541 0.87759 0.97581   0.072459
 H 0.000129999999999 0.79093 0.09216   0.289958
 H 0.17993 0.80107 0.0307   0.291505
 H 0.19611 0.81951 0.45958   0.296751
 H 0.20807 0.000770000000003 0.39921   0.295909
 H 0.12218 0.14782 0.5184   0.07395
 H 0.10046 0.96086 0.57399   0.07614
 H 0.89928 0.04244 0.42028   0.0749
 H 0.87759 0.85541 0.47581   0.072459
 H 0.79093 0.000129999999999 0.59216   0.289957
 H 0.80107 0.17993 0.5307   0.291505
 C 0.2867 0.5033 0.8382   -0.065075
 C 0.7294 0.4798 0.1642   -0.072484
 C 0.4811 0.3075 0.6531   -0.062387
 C 0.6988 0.5306 0.843   -0.070666
 C 0.0162 0.0872 0.0125   0.021933
 C 0.9871 0.9125 0.9817   0.029441
 C 0.5033 0.2867 0.3382   -0.065076
 C 0.4798 0.7294 0.6642   -0.072479
 C 0.3075 0.4811 0.1531   -0.062386
 C 0.5306 0.6988 0.343   -0.070734
 C 0.0872 0.0162 0.5125   0.021934
 C 0.9125 0.9871 0.4817   0.029441
 N 0.1844 0.507 0.8907   -0.373307
 N 0.812 0.4786 0.1111   -0.353834
 N 0.4716 0.211 0.6012   -0.355026
 N 0.7962 0.5344 0.8964   -0.357887
 N 0.9533 0.2139 0.9628   -0.613272
 N 0.0461 0.7863 0.0282   -0.605669
 N 0.507 0.1844 0.3907   -0.373307
 N 0.4786 0.812 0.6111   -0.353835
 N 0.211 0.4716 0.1012   -0.355027
 N 0.5344 0.7962 0.3964   -0.357819
 N 0.2139 0.9533 0.4628   -0.613271
 N 0.7863 0.0461 0.5282   -0.605668
