{'_ref': 'TBD', '_srcid': 'CAKYAQ_clean', 'submitters': [{'name': 'Dalar Nazarian Jeff Camp and David Sholl', 'email': 'dalar@gatech.edu jcamp6@gatech.edu'}], '_method': 'VASP DFT with PBE;DDEC'}
data_MnHgC4(SN)4
_symmetry_space_group_name_H-M   'P 1'
_cell_length_a   7.73730000
_cell_length_b   15.21350000
_cell_length_c   16.12030000
_cell_angle_alpha   90.00000000
_cell_angle_beta   90.00000000
_cell_angle_gamma   90.00000000
_symmetry_Int_Tables_number   1
_chemical_formula_structural   MnHgC4(SN)4
_chemical_formula_sum   'Mn4 Hg4 C16 S16 N16'
_cell_volume   1897.54329985
_cell_formula_units_Z   4
loop_
 _symmetry_equiv_pos_site_id
 _symmetry_equiv_pos_as_xyz
  1  'x, y, z'
loop_
 _atom_site_label
 _atom_site_fract_x
 _atom_site_fract_y
 _atom_site_fract_z
 _atom_site_charge
 Mn 0.4821 0.54802 0.12634   1.143054
 Mn 0.5179 0.04802 0.87366   1.143054
 Mn 0.0179 0.54802 0.62634   1.143054
 Mn 0.9821 0.04802 0.37366   1.143054
 Hg 0.54699 0.35315 0.43373   0.415862
 Hg 0.45301 0.85315 0.56627   0.415862
 Hg 0.95301 0.35315 0.93373   0.415862
 Hg 0.04699 0.85315 0.06627   0.415862
 C 0.6409 0.3866 0.2469   0.397728
 C 0.8267 0.5385 0.0028   0.377151
 C 0.3248 0.3876 0.0076   0.368162
 C 0.3082 0.7072 0.0086   0.388742
 C 0.3591 0.8866 0.7531   0.397728
 C 0.1733 0.0385 0.9972   0.377151
 C 0.6752 0.8876 0.9924   0.368162
 C 0.6918 0.2072 0.9914   0.388742
 C 0.8591 0.3866 0.7469   0.397728
 C 0.6733 0.5385 0.5028   0.377151
 C 0.1752 0.3876 0.5076   0.368162
 C 0.1918 0.7072 0.5086   0.388742
 C 0.1409 0.8866 0.2531   0.397728
 C 0.3267 0.0385 0.4972   0.377151
 C 0.8248 0.8876 0.4924   0.368162
 C 0.8082 0.2072 0.4914   0.388742
 S 0.7018 0.3024 0.3043   -0.269772
 S 0.9759 0.5202 0.934   -0.229063
 S 0.2607 0.3005 0.9544   -0.236733
 S 0.241 0.79 0.9519   -0.218377
 S 0.2982 0.8024 0.6957   -0.269772
 S 0.0241 0.0202 0.066   -0.229063
 S 0.7393 0.8005 0.0456   -0.236733
 S 0.759 0.29 0.0481   -0.218377
 S 0.7982 0.3024 0.8043   -0.269772
 S 0.5241 0.5202 0.434   -0.229063
 S 0.2393 0.3005 0.4544   -0.236733
 S 0.259 0.79 0.4519   -0.218377
 S 0.2018 0.8024 0.1957   -0.269772
 S 0.4759 0.0202 0.566   -0.229063
 S 0.7607 0.8005 0.5456   -0.236733
 S 0.741 0.29 0.5481   -0.218377
 N 0.6004 0.4445 0.2064   -0.547141
 N 0.72 0.5523 0.0501   -0.526938
 N 0.3737 0.4448 0.0464   -0.518933
 N 0.3532 0.6515 0.0493   -0.543743
 N 0.3996 0.9445 0.7936   -0.547141
 N 0.28 0.0523 0.9499   -0.526938
 N 0.6263 0.9448 0.9536   -0.518933
 N 0.6468 0.1515 0.9507   -0.543742
 N 0.8996 0.4445 0.7064   -0.547141
 N 0.78 0.5523 0.5501   -0.526938
 N 0.1263 0.4448 0.5464   -0.518933
 N 0.1468 0.6515 0.5493   -0.543742
 N 0.1004 0.9445 0.2936   -0.547141
 N 0.22 0.0523 0.4499   -0.526938
 N 0.8737 0.9448 0.4536   -0.518933
 N 0.8532 0.1515 0.4507   -0.543742
