{'_ref': 'TBD', '_srcid': 'CAKYAQ_clean', 'submitters': [{'name': 'Dalar Nazarian Jeff Camp and David Sholl', 'email': 'dalar@gatech.edu jcamp6@gatech.edu'}], '_method': 'VASP DFT with PBE;DDEC'}
data_FeH4C8O5
_symmetry_space_group_name_H-M   'P 1'
_cell_length_a   6.88899954
_cell_length_b   11.07300010
_cell_length_c   11.09686284
_cell_angle_alpha   119.92866880
_cell_angle_beta   105.79905632
_cell_angle_gamma   89.99999968
_symmetry_Int_Tables_number   1
_chemical_formula_structural   FeH4C8O5
_chemical_formula_sum   'Fe2 H8 C16 O10'
_cell_volume   696.465826387
_cell_formula_units_Z   2
loop_
 _symmetry_equiv_pos_site_id
 _symmetry_equiv_pos_as_xyz
  1  'x, y, z'
loop_
 _atom_site_label
 _atom_site_fract_x
 _atom_site_fract_y
 _atom_site_fract_z
 _atom_site_charge
 Fe 0.0 0.0 0.0   1.323475
 Fe 0.5 0.0 0.0   1.324229
 H 0.6626 0.0169 0.4176   0.108555
 H 0.2124 0.9656 0.3614   0.113656
 H 0.8374 0.5993 0.5824   0.108544
 H 0.2876 0.6042 0.6386   0.113652
 H 0.3374 0.9831 0.5824   0.108556
 H 0.7876 0.0344 0.6386   0.113659
 H 0.1626 0.4007 0.4176   0.108545
 H 0.7124 0.3958 0.3614   0.113655
 C 0.9219 0.9869 0.363   -0.114128
 C 0.799 0.0095 0.4504   -0.052022
 C 0.8435 0.9745 0.217   0.69233
 C 0.126 0.979 0.417   -0.052747
 C 0.5781 0.6239 0.637   -0.114138
 C 0.701 0.5591 0.5496   -0.052055
 C 0.6565 0.7575 0.783   0.692355
 C 0.374 0.562 0.583   -0.05274
 C 0.0781 0.0131 0.637   -0.114106
 C 0.201 0.9905 0.5496   -0.052078
 C 0.1565 0.0255 0.783   0.692331
 C 0.874 0.021 0.583   -0.052799
 C 0.4219 0.3761 0.363   -0.114118
 C 0.299 0.4409 0.4504   -0.052109
 C 0.3435 0.2425 0.217   0.692356
 C 0.626 0.438 0.417   -0.05279
 O 0.9609 0.9452 0.1424   -0.530775
 O 0.6563 0.9882 0.1776   -0.534392
 O 0.5391 0.8028 0.8576   -0.531076
 O 0.8437 0.8106 0.8224   -0.534116
 O 0.0391 0.0548 0.8576   -0.530775
 O 0.3437 0.0118 0.8224   -0.534392
 O 0.4609 0.1972 0.1424   -0.531075
 O 0.1563 0.1894 0.1776   -0.534115
 O 0.25 0.9182 0.0   -0.584676
 O 0.75 0.0818 0.0   -0.584676
