{'_ref': 'TBD', '_srcid': 'CAKYAQ_clean', 'submitters': [{'name': 'Dalar Nazarian Jeff Camp and David Sholl', 'email': 'dalar@gatech.edu jcamp6@gatech.edu'}], '_method': 'VASP DFT with PBE;DDEC'}
data_Ba2U2P2H2CO9F4
_symmetry_space_group_name_H-M   'P 1'
_cell_length_a   12.07400000
_cell_length_b   12.70899975
_cell_length_c   13.94700000
_cell_angle_alpha   90.00000000
_cell_angle_beta   90.00000000
_cell_angle_gamma   115.48099895
_symmetry_Int_Tables_number   1
_chemical_formula_structural   Ba2U2P2H2CO9F4
_chemical_formula_sum   'Ba8 U8 P8 H8 C4 O36 F16'
_cell_volume   1931.9694718
_cell_formula_units_Z   4
loop_
 _symmetry_equiv_pos_site_id
 _symmetry_equiv_pos_as_xyz
  1  'x, y, z'
loop_
 _atom_site_label
 _atom_site_fract_x
 _atom_site_fract_y
 _atom_site_fract_z
 _atom_site_charge
 Ba 0.7781 0.15589 0.39531   1.66665
 Ba 0.60677 0.80395 0.29771   1.648205
 Ba 0.2219 0.34411 0.89531   1.666651
 Ba 0.39323 0.69605 0.79771   1.64851
 Ba 0.2219 0.84411 0.60469   1.666961
 Ba 0.39323 0.19605 0.70229   1.648788
 Ba 0.7781 0.65589 0.10469   1.666962
 Ba 0.60677 0.30395 0.20229   1.649085
 U 0.96864 0.01663 0.21519   2.257939
 U 0.3906 0.49519 0.17926   3.013657
 U 0.03136 0.48337 0.71519   2.257946
 U 0.6094 0.00481 0.67926   3.013661
 U 0.03136 0.98337 0.78481   2.258045
 U 0.6094 0.50481 0.82074   3.013617
 U 0.96864 0.51663 0.28481   2.258051
 U 0.3906 0.99519 0.32074   3.01362
 P 0.27024 0.20916 0.28944   1.738749
 P 0.10061 0.31932 0.29379   1.739199
 P 0.72976 0.29084 0.78944   1.738745
 P 0.89939 0.18068 0.79379   1.7392
 P 0.72976 0.79084 0.71056   1.738766
 P 0.89939 0.68068 0.70621   1.739205
 P 0.27024 0.70916 0.21056   1.738761
 P 0.10061 0.81932 0.20621   1.739205
 H 0.254 0.3379 0.4019   0.27329
 H 0.1426 0.2146 0.4133   0.248247
 H 0.746 0.1621 0.9019   0.27329
 H 0.8574 0.2854 0.9133   0.248248
 H 0.746 0.6621 0.5981   0.273292
 H 0.8574 0.7854 0.5867   0.248245
 H 0.254 0.8379 0.0981   0.273292
 H 0.1426 0.7146 0.0867   0.248246
 C 0.1937 0.2721 0.3671   -1.022217
 C 0.8063 0.2279 0.8671   -1.022218
 C 0.8063 0.7279 0.6329   -1.022221
 C 0.1937 0.7721 0.1329   -1.022222
 O 0.3766 0.3105 0.2417   -1.053072
 O 0.1781 0.1364 0.2138   -0.956381
 O 0.184 0.3873 0.2114   -0.993709
 O 0.3133 0.1351 0.3517   -0.879209
 O 0.0513 0.3935 0.3492   -1.016899
 O 0.9927 0.2071 0.2605   -1.027899
 O 0.424 0.5491 0.2988   -0.894254
 O 0.3558 0.4468 0.0588   -0.874915
 O 0.776 0.9306 0.4564   -0.894064
 O 0.6234 0.1895 0.7417   -1.053056
 O 0.8219 0.3636 0.7138   -0.956383
 O 0.816 0.1127 0.7114   -0.993709
 O 0.6867 0.3649 0.8517   -0.879208
 O 0.9487 0.1065 0.8492   -1.0169
 O 0.0073 0.2929 0.7605   -1.027899
 O 0.576 0.9509 0.7988   -0.894267
 O 0.6442 0.0532 0.5588   -0.874948
 O 0.224 0.5694 0.9564   -0.894108
 O 0.6234 0.6895 0.7583   -1.053041
 O 0.8219 0.8636 0.7862   -0.956393
 O 0.816 0.6127 0.7886   -0.99371
 O 0.6867 0.8649 0.6483   -0.879368
 O 0.9487 0.6065 0.6508   -1.016904
 O 0.0073 0.7929 0.7395   -1.027913
 O 0.576 0.4509 0.7012   -0.894278
 O 0.6442 0.5532 0.9412   -0.874928
 O 0.224 0.0694 0.5436   -0.894241
 O 0.3766 0.8105 0.2583   -1.053024
 O 0.1781 0.6364 0.2862   -0.956395
 O 0.184 0.8873 0.2886   -0.99371
 O 0.3133 0.6351 0.1483   -0.879366
 O 0.0513 0.8935 0.1508   -1.016905
 O 0.9927 0.7071 0.2395   -1.027913
 O 0.424 0.0491 0.2012   -0.894291
 O 0.3558 0.9468 0.4412   -0.874961
 O 0.776 0.4306 0.0436   -0.894284
 F 0.568 0.4797 0.1583   -0.735008
 F 0.5523 0.6714 0.1397   -0.754795
 F 0.7871 0.0159 0.2598   -0.710237
 F 0.808 0.8363 0.1992   -0.77367
 F 0.432 0.0203 0.6583   -0.734996
 F 0.4477 0.8286 0.6397   -0.754805
 F 0.2129 0.4841 0.7598   -0.710245
 F 0.192 0.6637 0.6992   -0.773684
 F 0.432 0.5203 0.8417   -0.734981
 F 0.4477 0.3286 0.8603   -0.754809
 F 0.2129 0.9841 0.7402   -0.710271
 F 0.192 0.1637 0.8008   -0.773682
 F 0.568 0.9797 0.3417   -0.734968
 F 0.5523 0.1714 0.3603   -0.754819
 F 0.7871 0.5159 0.2402   -0.710279
 F 0.808 0.3363 0.3008   -0.773695
