{'_ref': 'TBD', '_srcid': 'CAKYAQ_clean', 'submitters': [{'name': 'Dalar Nazarian Jeff Camp and David Sholl', 'email': 'dalar@gatech.edu jcamp6@gatech.edu'}], '_method': 'VASP DFT with PBE;DDEC'}
data_InH4C8O5
_symmetry_space_group_name_H-M   'P 1'
_cell_length_a   12.32019981
_cell_length_b   12.61369988
_cell_length_c   12.61370000
_cell_angle_alpha   76.20199930
_cell_angle_beta   60.76689701
_cell_angle_gamma   60.76689781
_symmetry_Int_Tables_number   1
_chemical_formula_structural   InH4C8O5
_chemical_formula_sum   'In4 H16 C32 O20'
_cell_volume   1492.70176327
_cell_formula_units_Z   4
loop_
 _symmetry_equiv_pos_site_id
 _symmetry_equiv_pos_as_xyz
  1  'x, y, z'
loop_
 _atom_site_label
 _atom_site_fract_x
 _atom_site_fract_y
 _atom_site_fract_z
 _atom_site_charge
 In 0.31204 0.37593 0.0   1.822371
 In 0.68796 0.62407 0.0   1.822364
 In 0.56203 0.5 0.87594   1.822387
 In 0.93797 0.5 0.12406   1.822398
 H 0.2711 0.4462 0.6742   0.100425
 H 0.3915 0.5538 0.3258   0.100421
 H 0.1953 0.8258 0.9462   0.100422
 H 0.9673 0.1742 0.0538   0.10043
 H 0.8585 0.1742 0.9462   0.100425
 H 0.9789 0.8258 0.0538   0.100426
 H 0.2827 0.4462 0.3258   0.100426
 H 0.0547 0.5538 0.6742   0.100422
 H 0.125 0.5574 0.9426   0.478034
 H 0.625 0.4426 0.0574   0.478049
 H 0.3176 0.5574 0.0574   0.47805
 H 0.9324 0.4426 0.9426   0.478036
 H 0.6141 0.5 0.5   0.123952
 H 0.3641 0.0 0.0   0.123952
 H 0.6359 0.0 0.0   0.123952
 H 0.8859 0.5 0.5   0.123955
 C 0.33222 0.46886 0.6045   -0.05686
 C 0.44293 0.47107 0.60607   -0.141743
 C 0.45724 0.44683 0.72121   0.729281
 C 0.40558 0.53114 0.3955   -0.056876
 C 0.52007 0.52893 0.39393   -0.141709
 C 0.62528 0.55317 0.27879   0.729291
 C 0.18672 0.8955 0.96886   -0.056862
 C 0.299 0.89393 0.97107   -0.141708
 C 0.42845 0.77879 0.94683   0.729263
 C 0.05108 0.1045 0.03114   -0.056884
 C 0.164 0.10607 0.02893   -0.141717
 C 0.15407 0.22121 0.05317   0.729293
 C 0.84442 0.1045 0.96886   -0.056871
 C 0.72993 0.10607 0.97107   -0.141711
 C 0.62472 0.22121 0.94683   0.729285
 C 0.91778 0.8955 0.03114   -0.056855
 C 0.80707 0.89393 0.02893   -0.141741
 C 0.79276 0.77879 0.05317   0.729284
 C 0.19892 0.46886 0.3955   -0.056891
 C 0.086 0.47107 0.39393   -0.14172
 C 0.09593 0.44683 0.27879   0.729295
 C 0.06328 0.53114 0.6045   -0.056867
 C 0.951 0.52893 0.60607   -0.141705
 C 0.82155 0.55317 0.72121   0.729265
 C 0.3113 0.5 0.5   0.009054
 C 0.5386 0.5 0.5   0.003279
 C 0.0613 0.0 0.0   0.009056
 C 0.2886 0.0 0.0   0.003273
 C 0.9387 0.0 0.0   0.009051
 C 0.7114 0.0 0.0   0.00328
 C 0.1887 0.5 0.5   0.009055
 C 0.9614 0.5 0.5   0.003272
 O 0.40271 0.38379 0.80085   -0.657019
 O 0.52479 0.49397 0.72813   -0.642438
 O 0.58735 0.61621 0.19915   -0.657032
 O 0.74689 0.50603 0.27187   -0.642454
 O 0.45356 0.69915 0.88379   -0.657005
 O 0.50292 0.77187 0.99397   -0.642445
 O 0.0365 0.30085 0.11621   -0.657027
 O 0.26876 0.22813 0.00603   -0.642453
 O 0.66265 0.30085 0.88379   -0.657017
 O 0.50311 0.22813 0.99397   -0.642457
 O 0.84729 0.69915 0.11621   -0.657019
 O 0.72521 0.77187 0.00603   -0.642446
 O 0.2135 0.38379 0.19915   -0.657033
 O 0.98124 0.49397 0.27187   -0.642444
 O 0.79644 0.61621 0.80085   -0.65701
 O 0.74708 0.50603 0.72813   -0.642444
 O 0.125 0.501 0.999   -1.09999
 O 0.625 0.499 0.000999999999998   -1.100013
 O 0.374 0.501 0.000999999999998   -1.100017
 O 0.876 0.499 0.999   -1.09999
