{'_ref': 'TBD', '_srcid': 'CAKYAQ_clean', 'submitters': [{'name': 'Dalar Nazarian Jeff Camp and David Sholl', 'email': 'dalar@gatech.edu jcamp6@gatech.edu'}], '_method': 'VASP DFT with PBE;DDEC'}
data_Dy2H9(C4O3)5
_symmetry_space_group_name_H-M   'P 1'
_cell_length_a   7.34940007
_cell_length_b   11.47499979
_cell_length_c   16.18520000
_cell_angle_alpha   78.79899797
_cell_angle_beta   82.48300094
_cell_angle_gamma   79.95500220
_symmetry_Int_Tables_number   1
_chemical_formula_structural   Dy2H9(C4O3)5
_chemical_formula_sum   'Dy4 H18 C40 O30'
_cell_volume   1311.78685621
_cell_formula_units_Z   2
loop_
 _symmetry_equiv_pos_site_id
 _symmetry_equiv_pos_as_xyz
  1  'x, y, z'
loop_
 _atom_site_label
 _atom_site_fract_x
 _atom_site_fract_y
 _atom_site_fract_z
 _atom_site_charge
 Dy 0.05846 0.93402 0.22637   2.269895
 Dy 0.55571 0.73545 0.23603   2.343911
 Dy 0.94154 0.06598 0.77363   2.269894
 Dy 0.44429 0.26456 0.76397   2.343883
 H 0.0053 0.7929 0.033   0.401388
 H 0.429 0.2694 0.0201   0.403793
 H 0.1537 0.7444 0.4406   0.410202
 H 0.1512 0.1234 0.4032   0.41407
 H 0.1254 0.6147 0.8932   0.136396
 H 0.3498 0.4588 0.1533   0.143182
 H 0.7813 0.4946 0.4107   0.131321
 H 0.6149 0.8207 0.453   0.138365
 H 0.7973 0.0459 0.9703   0.117938
 H 0.9947 0.2071 0.967   0.401388
 H 0.571 0.7306 0.9799   0.403792
 H 0.8463 0.2556 0.5594   0.410202
 H 0.8488 0.8766 0.5968   0.41407
 H 0.8746 0.3853 0.1068   0.136397
 H 0.6502 0.5412 0.8467   0.14318
 H 0.2187 0.5054 0.5893   0.131317
 H 0.3851 0.1793 0.547   0.138367
 H 0.2027 0.9541 0.0297   0.117939
 C 0.206 0.6074 0.0873   -0.26183
 C 0.1297 0.6511 0.01   0.312576
 C 0.1653 0.5826 0.9463   -0.131114
 C 0.2604 0.4662 0.9617   -0.230432
 C 0.3231 0.4185 0.0405   0.316502
 C 0.3011 0.4894 0.1019   -0.130094
 C 0.1921 0.6858 0.152   0.819174
 C 0.2986 0.3952 0.8921   0.697818
 C 0.0987 0.5959 0.4858   0.323587
 C 0.9671 0.5938 0.431   -0.260244
 C 0.8694 0.497 0.4464   -0.124956
 C 0.9285 0.6916 0.357   0.855103
 C 0.3502 0.0759 0.464   0.315888
 C 0.5685 0.8927 0.472   -0.132749
 C 0.4179 0.9681 0.4361   -0.268026
 C 0.3374 0.9306 0.3663   0.843349
 C 0.6769 0.0279 0.9816   -0.153078
 C 0.4329 0.9528 0.0854   0.408014
 C 0.6132 0.9829 0.0647   -0.205456
 C 0.7479 0.9651 0.1285   0.788658
 C 0.794 0.3926 0.9127   -0.261837
 C 0.8703 0.3489 0.99   0.312576
 C 0.8347 0.4174 0.0537   -0.131116
 C 0.7396 0.5338 0.0383   -0.230426
 C 0.6769 0.5815 0.9595   0.3165
 C 0.6989 0.5106 0.8981   -0.130096
 C 0.8079 0.3142 0.848   0.819175
 C 0.7014 0.6048 0.1079   0.697819
 C 0.9013 0.4041 0.5142   0.323588
 C 0.0329 0.4062 0.569   -0.260248
 C 0.1306 0.503 0.5536   -0.124955
 C 0.0715 0.3084 0.643   0.855099
 C 0.6498 0.9241 0.536   0.315883
 C 0.4315 0.1073 0.528   -0.132752
 C 0.5821 0.0319 0.5639   -0.268017
 C 0.6626 0.0694 0.6337   0.84335
 C 0.3231 0.9721 0.0184   -0.15308
 C 0.5671 0.0472 0.9146   0.408008
 C 0.3868 0.0171 0.9353   -0.205445
 C 0.2521 0.0349 0.8715   0.788658
 O 0.0742 0.7803 0.1455   -0.727274
 O 0.3021 0.6563 0.20938   -0.802177
 O 0.2671 0.4425 0.8175   -0.688029
 O 0.3723 0.2856 0.9086   -0.725765
 O 0.0181 0.7582 0.9924   -0.494836
 O 0.4188 0.3038 0.0608   -0.540638
 O 0.0213 0.7787 0.34341   -0.815973
 O 0.8089 0.6825 0.3126   -0.769809
 O 0.2023 0.6868 0.4731   -0.529944
 O 0.411 0.8336 0.3421   -0.806635
 O 0.1971 0.9958 0.336   -0.775126
 O 0.2031 0.1553 0.4327   -0.512678
 O 0.7288 0.8935 0.19893   -0.846193
 O 0.8868 0.0188 0.11176   -0.71044
 O 0.3665 0.9061 0.16515   -0.947636
 O 0.9258 0.2197 0.8545   -0.727267
 O 0.6979 0.3437 0.79062   -0.80218
 O 0.7329 0.5575 0.1825   -0.68803
 O 0.6277 0.7144 0.0914   -0.725762
 O 0.9819 0.2418 0.0076   -0.494837
 O 0.5812 0.6962 0.9392   -0.540639
 O 0.9787 0.2213 0.65659   -0.81597
 O 0.1911 0.3175 0.6874   -0.769794
 O 0.7977 0.3132 0.5269   -0.529945
 O 0.589 0.1664 0.6579   -0.806633
 O 0.8029 0.0042 0.664   -0.775129
 O 0.7969 0.8447 0.5673   -0.51268
 O 0.2712 0.1065 0.80107   -0.846188
 O 0.1132 0.9812 0.88824   -0.710445
 O 0.6335 0.0939 0.83485   -0.94761
