{'_ref': 'TBD', '_srcid': 'CAKYAQ_clean', 'submitters': [{'name': 'Dalar Nazarian Jeff Camp and David Sholl', 'email': 'dalar@gatech.edu jcamp6@gatech.edu'}], '_method': 'VASP DFT with PBE;DDEC'}
data_ZnPO4
_symmetry_space_group_name_H-M   'P 1'
_cell_length_a   8.92740000
_cell_length_b   14.68500000
_cell_length_c   14.68500000
_cell_angle_alpha   90.00000000
_cell_angle_beta   90.00000000
_cell_angle_gamma   90.00000000
_symmetry_Int_Tables_number   1
_chemical_formula_structural   ZnPO4
_chemical_formula_sum   'Zn16 P16 O64'
_cell_volume   1925.18689127
_cell_formula_units_Z   16
loop_
 _symmetry_equiv_pos_site_id
 _symmetry_equiv_pos_as_xyz
  1  'x, y, z'
loop_
 _atom_site_label
 _atom_site_fract_x
 _atom_site_fract_y
 _atom_site_fract_z
 _atom_site_charge
 Zn 0.26092 0.86821 0.98885   1.212657
 Zn 0.44601 0.99844 0.63109   1.145487
 Zn 0.26092 0.13179 0.01115   1.212657
 Zn 0.44601 0.00156 0.36891   1.145488
 Zn 0.76092 0.01115 0.86821   1.212656
 Zn 0.94601 0.36891 0.99844   1.145487
 Zn 0.76092 0.98885 0.13179   1.212657
 Zn 0.94601 0.63109 0.00156   1.145487
 Zn 0.26092 0.36821 0.51115   1.212656
 Zn 0.44601 0.49844 0.86891   1.145487
 Zn 0.26092 0.63179 0.48885   1.212657
 Zn 0.44601 0.50156 0.13109   1.145487
 Zn 0.76092 0.51115 0.63179   1.212656
 Zn 0.94601 0.86891 0.50156   1.145486
 Zn 0.76092 0.48885 0.36821   1.212656
 Zn 0.94601 0.13109 0.49844   1.145487
 P 0.3048 0.6463 0.0   1.574644
 P 0.4031 0.0134 0.853   1.73392
 P 0.3048 0.3537 0.0   1.574644
 P 0.4031 0.9866 0.147   1.733919
 P 0.8048 0.0 0.6463   1.574644
 P 0.9031 0.147 0.0134   1.73392
 P 0.8048 0.0 0.3537   1.574644
 P 0.9031 0.853 0.9866   1.733919
 P 0.3048 0.1463 0.5   1.574643
 P 0.4031 0.5134 0.647   1.733919
 P 0.3048 0.8537 0.5   1.574643
 P 0.4031 0.4866 0.353   1.733919
 P 0.8048 0.5 0.8537   1.574643
 P 0.9031 0.647 0.4866   1.733919
 P 0.8048 0.5 0.1463   1.574643
 P 0.9031 0.353 0.5134   1.733919
 O 0.3969 0.9223 0.9036   -0.730031
 O 0.5572 0.0538 0.8608   -0.791943
 O 0.2867 0.0771 0.8942   -0.743484
 O 0.3639 0.9964 0.7543   -0.684434
 O 0.3548 0.75 0.9917   -0.635438
 O 0.154 0.641 0.0517   -0.680624
 O 0.314 0.6005 0.9166   -0.774639
 O 0.42 0.613 0.0798   -0.626115
 O 0.3969 0.0777 0.0964   -0.730031
 O 0.5572 0.9462 0.1392   -0.791943
 O 0.2867 0.9229 0.1058   -0.743484
 O 0.3639 0.0036 0.2457   -0.684434
 O 0.3548 0.25 0.0083   -0.635438
 O 0.154 0.359 0.9483   -0.680624
 O 0.314 0.3995 0.0834   -0.774639
 O 0.42 0.387 0.9202   -0.626115
 O 0.8969 0.0964 0.9223   -0.73003
 O 0.0572 0.1392 0.0538   -0.791943
 O 0.7867 0.1058 0.0771   -0.743484
 O 0.8639 0.2457 0.9964   -0.684433
 O 0.8548 0.0083 0.75   -0.635438
 O 0.654 0.9483 0.641   -0.680624
 O 0.814 0.0834 0.6005   -0.774639
 O 0.92 0.9202 0.613   -0.626114
 O 0.8969 0.9036 0.0777   -0.73003
 O 0.0572 0.8608 0.9462   -0.791943
 O 0.7867 0.8942 0.9229   -0.743484
 O 0.8639 0.7543 0.0036   -0.684433
 O 0.8548 0.9917 0.25   -0.635438
 O 0.654 0.0517 0.359   -0.680624
 O 0.814 0.9166 0.3995   -0.774639
 O 0.92 0.0798 0.387   -0.626114
 O 0.3969 0.4223 0.5964   -0.73003
 O 0.5572 0.5538 0.6392   -0.791943
 O 0.2867 0.5771 0.6058   -0.743484
 O 0.3639 0.4964 0.7457   -0.684433
 O 0.3548 0.25 0.5083   -0.635438
 O 0.154 0.141 0.4483   -0.680624
 O 0.314 0.1005 0.5834   -0.774639
 O 0.42 0.113 0.4202   -0.626114
 O 0.3969 0.5777 0.4036   -0.73003
 O 0.5572 0.4462 0.3608   -0.791943
 O 0.2867 0.4229 0.3942   -0.743484
 O 0.3639 0.5036 0.2543   -0.684433
 O 0.3548 0.75 0.4917   -0.635438
 O 0.154 0.859 0.5517   -0.680624
 O 0.314 0.8995 0.4166   -0.774639
 O 0.42 0.887 0.5798   -0.626114
 O 0.8969 0.5964 0.5777   -0.73003
 O 0.0572 0.6392 0.4462   -0.791943
 O 0.7867 0.6058 0.4229   -0.743484
 O 0.8639 0.7457 0.5036   -0.684433
 O 0.8548 0.5083 0.75   -0.635438
 O 0.654 0.4483 0.859   -0.680624
 O 0.814 0.5834 0.8995   -0.774639
 O 0.92 0.4202 0.887   -0.626114
 O 0.8969 0.4036 0.4223   -0.73003
 O 0.0572 0.3608 0.5538   -0.791943
 O 0.7867 0.3942 0.5771   -0.743484
 O 0.8639 0.2543 0.4964   -0.684433
 O 0.8548 0.4917 0.25   -0.635438
 O 0.654 0.5517 0.141   -0.680624
 O 0.814 0.4166 0.1005   -0.774639
 O 0.92 0.5798 0.113   -0.626114
