{'_ref': 'TBD', '_srcid': 'CAKYAQ_clean', 'submitters': [{'name': 'Dalar Nazarian Jeff Camp and David Sholl', 'email': 'dalar@gatech.edu jcamp6@gatech.edu'}], '_method': 'VASP DFT with PBE;DDEC'}
data_CdH6(C2O)4
_symmetry_space_group_name_H-M   'P 1'
_cell_length_a   8.13240000
_cell_length_b   11.34399969
_cell_length_c   39.26600000
_cell_angle_alpha   90.00000000
_cell_angle_beta   90.00000000
_cell_angle_gamma   102.90799914
_symmetry_Int_Tables_number   1
_chemical_formula_structural   CdH6(C2O)4
_chemical_formula_sum   'Cd12 H72 C96 O48'
_cell_volume   3530.90424419
_cell_formula_units_Z   12
loop_
 _symmetry_equiv_pos_site_id
 _symmetry_equiv_pos_as_xyz
  1  'x, y, z'
loop_
 _atom_site_label
 _atom_site_fract_x
 _atom_site_fract_y
 _atom_site_fract_z
 _atom_site_charge
 Cd 0.75928 0.48146 0.94787   1.045051
 Cd 0.09504 0.59544 0.29949   1.064476
 Cd 0.01126 0.80951 0.12239   1.131217
 Cd 0.74072 0.51854 0.44787   1.045051
 Cd 0.40496 0.40456 0.79949   1.064477
 Cd 0.48874 0.19049 0.62239   1.131217
 Cd 0.24072 0.51854 0.05213   1.045051
 Cd 0.90496 0.40456 0.70051   1.064477
 Cd 0.98874 0.19049 0.87761   1.131219
 Cd 0.25928 0.48146 0.55213   1.045052
 Cd 0.59504 0.59544 0.20051   1.064477
 Cd 0.51126 0.80951 0.37761   1.131219
 H 0.4996 0.8292 0.0294   0.109564
 H 0.858 0.1335 0.039   0.12209
 H 0.7729 0.9685 0.9485   0.137842
 H 0.5061 0.8051 0.9426   0.145957
 H 0.4198 0.7444 0.9759   0.143804
 H 0.5209 0.9426 0.0824   0.140706
 H 0.6643 0.0602 0.0872   0.13067
 H 0.0307 0.1332 0.9582   0.140069
 H 0.0471 0.2062 0.9925   0.145223
 H 0.8871 0.1137 0.2133   0.125063
 H 0.0445 0.8877 0.277   0.100294
 H 0.8752 0.167 0.3136   0.134332
 H 0.7886 0.2776 0.2314   0.136788
 H 0.6957 0.2611 0.2665   0.141444
 H 0.0286 0.9638 0.1907   0.149888
 H 0.1058 0.8835 0.2158   0.16604
 H 0.039 0.0468 0.3508   0.14179
 H 0.0684 0.9244 0.3361   0.137448
 H 0.000399999999999 0.1708 0.5294   0.109564
 H 0.642 0.8665 0.539   0.12209
 H 0.7271 0.0315 0.4485   0.137842
 H 0.9939 0.1949 0.4426   0.145956
 H 0.0802 0.2556 0.4759   0.143804
 H 0.9791 0.0574 0.5824   0.140706
 H 0.8357 0.9398 0.5872   0.13067
 H 0.4693 0.8668 0.4582   0.140069
 H 0.4529 0.7938 0.4925   0.145223
 H 0.6129 0.8863 0.7133   0.125063
 H 0.4555 0.1123 0.777   0.100294
 H 0.6248 0.833 0.8136   0.134332
 H 0.7114 0.7224 0.7314   0.136788
 H 0.8043 0.7389 0.7665   0.141444
 H 0.4714 0.0362 0.6907   0.149888
 H 0.3942 0.1165 0.7158   0.16604
 H 0.461 0.9532 0.8508   0.141789
 H 0.4316 0.0756 0.8361   0.137448
 H 0.5004 0.1708 0.9706   0.109564
 H 0.142 0.8665 0.961   0.122089
 H 0.2271 0.0315 0.0515   0.137842
 H 0.4939 0.1949 0.0574   0.145956
 H 0.5802 0.2556 0.0241   0.143804
 H 0.4791 0.0574 0.9176   0.140706
 H 0.3357 0.9398 0.9128   0.130667
 H 0.9693 0.8668 0.0418   0.140069
 H 0.9529 0.7938 0.0075   0.145223
 H 0.1129 0.8863 0.7867   0.125062
 H 0.9555 0.1123 0.723   0.100294
 H 0.1248 0.833 0.6864   0.134332
 H 0.2114 0.7224 0.7686   0.136788
 H 0.3043 0.7389 0.7335   0.141444
 H 0.9714 0.0362 0.8093   0.149887
 H 0.8942 0.1165 0.7842   0.16604
 H 0.961 0.9532 0.6492   0.141787
 H 0.9316 0.0756 0.6639   0.137448
 H 0.9996 0.8292 0.4706   0.109564
 H 0.358 0.1335 0.461   0.122089
 H 0.2729 0.9685 0.5515   0.137842
 H 0.0061 0.8051 0.5574   0.145955
 H 0.9198 0.7444 0.5241   0.143804
 H 0.0209 0.9426 0.4176   0.140706
 H 0.1643 0.0602 0.4128   0.130667
 H 0.5307 0.1332 0.5418   0.140069
 H 0.5471 0.2062 0.5075   0.145223
 H 0.3871 0.1137 0.2867   0.125062
 H 0.5445 0.8877 0.223   0.100294
 H 0.3752 0.167 0.1864   0.134332
 H 0.2886 0.2776 0.2686   0.136788
 H 0.1957 0.2611 0.2335   0.141444
 H 0.5286 0.9638 0.3093   0.149887
 H 0.6058 0.8835 0.2842   0.16604
 H 0.539 0.0468 0.1492   0.141786
 H 0.5684 0.9244 0.1639   0.137448
 C 0.6239 0.8821 0.98585   0.140645
 C 0.5855 0.8882 0.01995   -0.203758
 C 0.6734 0.9812 0.04033   0.147455
 C 0.7985 0.0708 0.02561   -0.221518
 C 0.8354 0.0677 0.99126   0.141701
 C 0.7478 0.972 0.97156   -0.226396
 C 0.5278 0.7766 0.96509   -0.350487
 C 0.6222 0.6766 0.96151   0.724108
 C 0.6388 0.9786 0.07804   -0.36134
 C 0.7504 0.9038 0.09472   0.712956
 C 0.9682 0.168 0.9751   -0.366754
 C 0.8904 0.2625 0.95826   0.773616
 C 0.8723 0.1594 0.26243   0.143555
 C 0.9063 0.0903 0.23534   -0.233221
 C 0.9682 0.9874 0.24023   0.155726
 C 0.9988 0.9548 0.27334   -0.21519
 C 0.963 0.0198 0.30092   0.144092
 C 0.8996 0.1225 0.2951   -0.224022
 C 0.8052 0.2712 0.25569   -0.347367
 C 0.9177 0.3891 0.2682   0.719072
 C 0.005 0.9124 0.21067   -0.391434
 C 0.8644 0.8052 0.20222   0.765623
 C 0.9902 0.9776 0.33672   -0.354735
 C 0.8244 0.9112 0.35196   0.713191
 C 0.8761 0.1179 0.48585   0.140645
 C 0.9145 0.1118 0.51995   -0.203758
 C 0.8266 0.0188 0.54033   0.147455
 C 0.7015 0.9292 0.52561   -0.221518
 C 0.6646 0.9323 0.49126   0.141701
 C 0.7522 0.028 0.47156   -0.226396
 C 0.9722 0.2234 0.46509   -0.350487
 C 0.8778 0.3234 0.46151   0.724108
 C 0.8612 0.0214 0.57804   -0.36134
 C 0.7496 0.0962 0.59472   0.712956
 C 0.5318 0.832 0.4751   -0.366754
 C 0.6096 0.7375 0.45826   0.773616
 C 0.6277 0.8406 0.76243   0.143555
 C 0.5937 0.9097 0.73534   -0.233221
 C 0.5318 0.0126 0.74023   0.155726
 C 0.5012 0.0452 0.77334   -0.21519
 C 0.537 0.9802 0.80092   0.144092
 C 0.6004 0.8775 0.7951   -0.224022
 C 0.6948 0.7288 0.75569   -0.347367
 C 0.5823 0.6109 0.7682   0.719072
 C 0.495 0.0876 0.71067   -0.391434
 C 0.6356 0.1948 0.70222   0.765623
 C 0.5098 0.0224 0.83672   -0.354735
 C 0.6756 0.0888 0.85196   0.713191
 C 0.3761 0.1179 0.01415   0.140645
 C 0.4145 0.1118 0.98005   -0.203757
 C 0.3266 0.0188 0.95967   0.147455
 C 0.2015 0.9292 0.97439   -0.221518
 C 0.1646 0.9323 0.00874   0.141701
 C 0.2522 0.028 0.02844   -0.226396
 C 0.4722 0.2234 0.03491   -0.350487
 C 0.3778 0.3234 0.03849   0.724108
 C 0.3612 0.0214 0.92196   -0.361339
 C 0.2496 0.0962 0.90528   0.712956
 C 0.0318 0.832 0.0249   -0.366754
 C 0.1096 0.7375 0.04174   0.773616
 C 0.1277 0.8406 0.73757   0.143554
 C 0.0937 0.9097 0.76466   -0.233221
 C 0.0318 0.0126 0.75977   0.155726
 C 0.0012 0.0452 0.72666   -0.21519
 C 0.037 0.9802 0.69908   0.144091
 C 0.1004 0.8775 0.7049   -0.224022
 C 0.1948 0.7288 0.74431   -0.347366
 C 0.0823 0.6109 0.7318   0.719072
 C 0.995 0.0876 0.78933   -0.391433
 C 0.1356 0.1948 0.79778   0.765623
 C 0.0098 0.0224 0.66328   -0.354734
 C 0.1756 0.0888 0.64804   0.71319
 C 0.1239 0.8821 0.51415   0.140645
 C 0.0855 0.8882 0.48005   -0.203757
 C 0.1734 0.9812 0.45967   0.147455
 C 0.2985 0.0708 0.47439   -0.221518
 C 0.3354 0.0677 0.50874   0.141701
 C 0.2478 0.972 0.52844   -0.226396
 C 0.0278 0.7766 0.53491   -0.350486
 C 0.1222 0.6766 0.53849   0.724108
 C 0.1388 0.9786 0.42196   -0.361339
 C 0.2504 0.9038 0.40528   0.712956
 C 0.4682 0.168 0.5249   -0.366754
 C 0.3904 0.2625 0.54174   0.773616
 C 0.3723 0.1594 0.23757   0.143554
 C 0.4063 0.0903 0.26466   -0.233221
 C 0.4682 0.9874 0.25977   0.155726
 C 0.4988 0.9548 0.22666   -0.21519
 C 0.463 0.0198 0.19908   0.144091
 C 0.3996 0.1225 0.2049   -0.224022
 C 0.3052 0.2712 0.24431   -0.347366
 C 0.4177 0.3891 0.2318   0.719072
 C 0.505 0.9124 0.28933   -0.391433
 C 0.3644 0.8052 0.29778   0.765623
 C 0.4902 0.9776 0.16328   -0.354734
 C 0.3244 0.9112 0.14804   0.71319
 O 0.6515 0.6172 0.98688   -0.606443
 O 0.6703 0.6535 0.93218   -0.588611
 O 0.8886 0.9594 0.10655   -0.625404
 O 0.7077 0.7903 0.09462   -0.665021
 O 0.8364 0.3351 0.97764   -0.597674
 O 0.8797 0.268 0.92685   -0.659955
 O 0.9354 0.4028 0.3   -0.59372
 O 0.988 0.4687 0.24785   -0.614321
 O 0.7789 0.7466 0.22589   -0.572296
 O 0.8363 0.7768 0.17166   -0.664745
 O 0.7492 0.9665 0.37243   -0.619759
 O 0.7596 0.804 0.34363   -0.667321
 O 0.8485 0.3828 0.48688   -0.606443
 O 0.8297 0.3465 0.43218   -0.588612
 O 0.6114 0.0406 0.60655   -0.625404
 O 0.7923 0.2097 0.59462   -0.665021
 O 0.6636 0.6649 0.47764   -0.597674
 O 0.6203 0.732 0.42685   -0.659955
 O 0.5646 0.5972 0.8   -0.59372
 O 0.512 0.5313 0.74785   -0.614321
 O 0.7211 0.2534 0.72589   -0.572296
 O 0.6637 0.2232 0.67166   -0.664745
 O 0.7508 0.0335 0.87243   -0.619759
 O 0.7404 0.196 0.84363   -0.667321
 O 0.3485 0.3828 0.01312   -0.606443
 O 0.3297 0.3465 0.06782   -0.588612
 O 0.1114 0.0406 0.89345   -0.625405
 O 0.2923 0.2097 0.90538   -0.665021
 O 0.1636 0.6649 0.02236   -0.597674
 O 0.1203 0.732 0.07315   -0.659955
 O 0.0646 0.5972 0.7   -0.59372
 O 0.012 0.5313 0.75215   -0.61432
 O 0.2211 0.2534 0.77411   -0.572296
 O 0.1637 0.2232 0.82834   -0.664745
 O 0.2508 0.0335 0.62757   -0.619759
 O 0.2404 0.196 0.65637   -0.667321
 O 0.1515 0.6172 0.51312   -0.606443
 O 0.1703 0.6535 0.56782   -0.588612
 O 0.3886 0.9594 0.39345   -0.625405
 O 0.2077 0.7903 0.40538   -0.665021
 O 0.3364 0.3351 0.52236   -0.597674
 O 0.3797 0.268 0.57315   -0.659955
 O 0.4354 0.4028 0.2   -0.59372
 O 0.488 0.4687 0.25215   -0.61432
 O 0.2789 0.7466 0.27411   -0.572296
 O 0.3363 0.7768 0.32834   -0.664745
 O 0.2492 0.9665 0.12757   -0.619759
 O 0.2596 0.804 0.15637   -0.667321
