{'_ref': 'TBD', '_srcid': 'CAKYAQ_clean', 'submitters': [{'name': 'Dalar Nazarian Jeff Camp and David Sholl', 'email': 'dalar@gatech.edu jcamp6@gatech.edu'}], '_method': 'VASP DFT with PBE;DDEC'}
data_Zn3H14C26(NO3)4
_symmetry_space_group_name_H-M   'P 1'
_cell_length_a   15.17510000
_cell_length_b   15.17510000
_cell_length_c   22.56040000
_cell_angle_alpha   90.00000000
_cell_angle_beta   90.00000000
_cell_angle_gamma   90.00000000
_symmetry_Int_Tables_number   1
_chemical_formula_structural   Zn3H14C26(NO3)4
_chemical_formula_sum   'Zn12 H56 C104 N16 O48'
_cell_volume   5195.29148329
_cell_formula_units_Z   4
loop_
 _symmetry_equiv_pos_site_id
 _symmetry_equiv_pos_as_xyz
  1  'x, y, z'
loop_
 _atom_site_label
 _atom_site_fract_x
 _atom_site_fract_y
 _atom_site_fract_z
 _atom_site_charge
 Zn 0.75753 0.66679 0.85609   0.884882
 Zn 0.24247 0.33321 0.3561   0.884919
 Zn 0.83321 0.25753 0.60609   0.884882
 Zn 0.16679 0.74247 0.1061   0.884918
 Zn 0.74247 0.16679 0.89391   0.884882
 Zn 0.25753 0.83321 0.39391   0.884881
 Zn 0.66679 0.75753 0.14391   0.884882
 Zn 0.33321 0.24247 0.64391   0.884881
 Zn 0.72128 0.72128 0.0   1.102188
 Zn 0.27872 0.27872 0.5   1.102188
 Zn 0.77872 0.22128 0.75   1.102188
 Zn 0.22128 0.77872 0.25   1.102188
 H 0.9941 0.7409 0.0371   0.088147
 H 0.0366 0.6328 0.8775   0.109397
 H 0.1879 0.629 0.8985   0.138459
 H 0.3246 0.6355 0.9237   0.129229
 H 0.4693 0.6457 0.9558   0.115622
 H 0.3793 0.7373 0.1125   0.091119
 H 0.5696 0.7929 0.9056   0.015859
 H 0.0059 0.2591 0.5371   0.088152
 H 0.9634 0.3672 0.3775   0.109403
 H 0.8121 0.371 0.3985   0.138463
 H 0.6754 0.3645 0.4237   0.12923
 H 0.5307 0.3543 0.4558   0.115623
 H 0.6207 0.2627 0.6125   0.091123
 H 0.4304 0.2071 0.4056   0.015861
 H 0.7591 0.4941 0.7871   0.088151
 H 0.8672 0.5366 0.6275   0.109399
 H 0.871 0.6879 0.6485   0.138462
 H 0.8645 0.8246 0.6737   0.129229
 H 0.8543 0.9693 0.7058   0.115623
 H 0.7627 0.8793 0.8625   0.091122
 H 0.7071 0.0696 0.6556   0.015859
 H 0.2409 0.5059 0.2871   0.088147
 H 0.1328 0.4634 0.1275   0.109401
 H 0.129 0.3121 0.1485   0.138461
 H 0.1355 0.1754 0.1737   0.12923
 H 0.1457 0.0307 0.2058   0.115621
 H 0.2373 0.1207 0.3625   0.091119
 H 0.2929 0.9304 0.1556   0.015861
 H 0.5059 0.2409 0.7129   0.08815
 H 0.4634 0.1328 0.8725   0.109401
 H 0.3121 0.129 0.8515   0.138463
 H 0.1754 0.1355 0.8263   0.129231
 H 0.0307 0.1457 0.7942   0.115624
 H 0.1207 0.2373 0.6375   0.091121
 H 0.9304 0.2929 0.8444   0.015859
 H 0.4941 0.7591 0.2129   0.088152
 H 0.5366 0.8672 0.3725   0.1094
 H 0.6879 0.871 0.3515   0.138462
 H 0.8246 0.8645 0.3263   0.12923
 H 0.9693 0.8543 0.2942   0.115624
 H 0.8793 0.7627 0.1375   0.091125
 H 0.0696 0.7071 0.3444   0.015859
 H 0.7409 0.9941 0.9629   0.088151
 H 0.6328 0.0366 0.1225   0.1094
 H 0.629 0.1879 0.1015   0.138462
 H 0.6355 0.3246 0.0763   0.12923
 H 0.6457 0.4693 0.0442   0.115624
 H 0.7373 0.3793 0.8875   0.091122
 H 0.7929 0.5696 0.0944   0.01586
 H 0.2591 0.0059 0.4629   0.088151
 H 0.3672 0.9634 0.6225   0.109401
 H 0.371 0.8121 0.6015   0.138463
 H 0.3645 0.6754 0.5763   0.129231
 H 0.3543 0.5307 0.5442   0.115624
 H 0.2627 0.6207 0.3875   0.091123
 H 0.2071 0.4304 0.5944   0.015859
 C 0.0335 0.7173 0.0084   0.213732
 C 0.9989 0.6877 0.9552   -0.200845
 C 0.0577 0.6541 0.9145   0.043076
 C 0.147 0.6508 0.9268   -0.196181
 C 0.175 0.6805 0.9819   0.196329
 C 0.2686 0.6804 0.999   0.175917
 C 0.3369 0.6564 0.9625   -0.177723
 C 0.4223 0.6622 0.9813   0.040125
 C 0.4396 0.6926 0.0383   -0.195056
 C 0.368 0.717 0.0734   0.19608
 C 0.9013 0.6953 0.94276   0.700215
 C 0.5327 0.7118 0.0578   0.688954
 C 0.612 0.7557 0.8873   0.619086
 C 0.9665 0.2827 0.5084   0.213741
 C 0.0011 0.3123 0.4552   -0.200844
 C 0.9423 0.3459 0.4145   0.043081
 C 0.853 0.3492 0.4268   -0.196175
 C 0.825 0.3195 0.4819   0.196328
 C 0.7314 0.3196 0.499   0.175915
 C 0.6631 0.3436 0.4625   -0.177717
 C 0.5777 0.3378 0.4813   0.040127
 C 0.5604 0.3074 0.5383   -0.195051
 C 0.632 0.283 0.5734   0.196094
 C 0.0987 0.3047 0.44276   0.700217
 C 0.4673 0.2882 0.5578   0.688952
 C 0.388 0.2443 0.3873   0.619087
 C 0.7827 0.5335 0.7584   0.213741
 C 0.8123 0.4989 0.7052   -0.200842
 C 0.8459 0.5577 0.6645   0.04308
 C 0.8492 0.647 0.6768   -0.196176
 C 0.8195 0.675 0.7319   0.196327
 C 0.8196 0.7686 0.749   0.175915
 C 0.8436 0.8369 0.7125   -0.177719
 C 0.8378 0.9223 0.7313   0.040126
 C 0.8074 0.9396 0.7883   -0.195051
 C 0.783 0.868 0.8234   0.196094
 C 0.8047 0.4013 0.69276   0.700213
 C 0.7882 0.0327 0.8078   0.688952
 C 0.7443 0.112 0.6373   0.619085
 C 0.2173 0.4665 0.2584   0.213733
 C 0.1877 0.5011 0.2052   -0.200847
 C 0.1541 0.4423 0.1645   0.043077
 C 0.1508 0.353 0.1768   -0.19618
 C 0.1805 0.325 0.2319   0.19633
 C 0.1804 0.2314 0.249   0.175917
 C 0.1564 0.1631 0.2125   -0.177721
 C 0.1622 0.0777 0.2313   0.040125
 C 0.1926 0.0604 0.2883   -0.195056
 C 0.217 0.132 0.3234   0.19608
 C 0.1953 0.5987 0.19276   0.700219
 C 0.2118 0.9673 0.3078   0.688954
 C 0.2557 0.888 0.1373   0.619087
 C 0.4665 0.2173 0.7416   0.21374
 C 0.5011 0.1877 0.7948   -0.20084
 C 0.4423 0.1541 0.8355   0.043081
 C 0.353 0.1508 0.8232   -0.196174
 C 0.325 0.1805 0.7681   0.196326
 C 0.2314 0.1804 0.751   0.175916
 C 0.1631 0.1564 0.7875   -0.177716
 C 0.0777 0.1622 0.7687   0.040129
 C 0.0604 0.1926 0.7117   -0.195052
 C 0.132 0.217 0.6766   0.196093
 C 0.5987 0.1953 0.80724   0.700212
 C 0.9673 0.2118 0.6922   0.688952
 C 0.888 0.2557 0.8627   0.619085
 C 0.5335 0.7827 0.2416   0.213741
 C 0.4989 0.8123 0.2948   -0.200841
 C 0.5577 0.8459 0.3355   0.04308
 C 0.647 0.8492 0.3232   -0.196175
 C 0.675 0.8195 0.2681   0.196326
 C 0.7686 0.8196 0.251   0.175917
 C 0.8369 0.8436 0.2875   -0.177718
 C 0.9223 0.8378 0.2687   0.040128
 C 0.9396 0.8074 0.2117   -0.195056
 C 0.868 0.783 0.1766   0.196096
 C 0.4013 0.8047 0.30724   0.700212
 C 0.0327 0.7882 0.1922   0.688963
 C 0.112 0.7443 0.3627   0.619084
 C 0.7173 0.0335 0.9916   0.21374
 C 0.6877 0.9989 0.0448   -0.200841
 C 0.6541 0.0577 0.0855   0.04308
 C 0.6508 0.147 0.0732   -0.196175
 C 0.6805 0.175 0.0181   0.196327
 C 0.6804 0.2686 0.000999999999998   0.175915
 C 0.6564 0.3369 0.0375   -0.177717
 C 0.6622 0.4223 0.0187   0.040128
 C 0.6926 0.4396 0.9617   -0.19505
 C 0.717 0.368 0.9266   0.196093
 C 0.6953 0.9013 0.05724   0.700212
 C 0.7118 0.5327 0.9422   0.688952
 C 0.7557 0.612 0.1127   0.619085
 C 0.2827 0.9665 0.4916   0.21374
 C 0.3123 0.0011 0.5448   -0.200841
 C 0.3459 0.9423 0.5855   0.043081
 C 0.3492 0.853 0.5732   -0.196173
 C 0.3195 0.825 0.5181   0.196325
 C 0.3196 0.7314 0.501   0.175918
 C 0.3436 0.6631 0.5375   -0.177717
 C 0.3378 0.5777 0.5187   0.040129
 C 0.3074 0.5604 0.4617   -0.195057
 C 0.283 0.632 0.4266   0.196095
 C 0.3047 0.0987 0.55724   0.700212
 C 0.2882 0.4673 0.4422   0.688963
 C 0.2443 0.388 0.6127   0.619084
 N 0.1173 0.7143 0.0212   -0.314121
 N 0.2848 0.7131 0.055   -0.323312
 N 0.8827 0.2857 0.5212   -0.314124
 N 0.7152 0.2869 0.555   -0.323324
 N 0.7857 0.6173 0.7712   -0.314124
 N 0.7869 0.7848 0.805   -0.323324
 N 0.2143 0.3827 0.2712   -0.314122
 N 0.2131 0.2152 0.305   -0.323313
 N 0.3827 0.2143 0.7288   -0.314126
 N 0.2152 0.2131 0.695   -0.323327
 N 0.6173 0.7857 0.2288   -0.314123
 N 0.7848 0.7869 0.195   -0.323324
 N 0.7143 0.1173 0.9788   -0.314126
 N 0.7131 0.2848 0.945   -0.323326
 N 0.2857 0.8827 0.4788   -0.314124
 N 0.2869 0.7152 0.445   -0.323325
 O 0.854 0.726 0.98227   -0.576738
 O 0.87809 0.6662 0.89252   -0.608369
 O 0.585 0.7218 0.0145   -0.612405
 O 0.54587 0.71962 0.11228   -0.562163
 O 0.68652 0.74507 0.91177   -0.627386
 O 0.5933 0.718 0.83953   -0.603071
 O 0.146 0.274 0.48227   -0.576732
 O 0.12191 0.3338 0.39252   -0.608379
 O 0.415 0.2782 0.5145   -0.612406
 O 0.45413 0.28038 0.61228   -0.562157
 O 0.31348 0.25493 0.41177   -0.627401
 O 0.4067 0.282 0.33953   -0.603052
 O 0.774 0.354 0.73227   -0.576734
 O 0.8338 0.37809 0.64252   -0.608369
 O 0.7782 0.085 0.7645   -0.612405
 O 0.78038 0.04587 0.86228   -0.562159
 O 0.75493 0.18652 0.66177   -0.627386
 O 0.782 0.0933 0.58953   -0.60307
 O 0.226 0.646 0.23227   -0.576736
 O 0.1662 0.62191 0.14252   -0.60838
 O 0.2218 0.915 0.2645   -0.612407
 O 0.21962 0.95413 0.36228   -0.562161
 O 0.24507 0.81348 0.16177   -0.627401
 O 0.218 0.9067 0.08953   -0.603052
 O 0.646 0.226 0.76773   -0.576736
 O 0.62191 0.1662 0.85748   -0.608366
 O 0.915 0.2218 0.7355   -0.612403
 O 0.95413 0.21962 0.63772   -0.562162
 O 0.81348 0.24507 0.83823   -0.627386
 O 0.9067 0.218 0.91047   -0.603068
 O 0.354 0.774 0.26773   -0.576734
 O 0.37809 0.8338 0.35748   -0.608367
 O 0.085 0.7782 0.2355   -0.612405
 O 0.04587 0.78038 0.13772   -0.562177
 O 0.18652 0.75493 0.33823   -0.627386
 O 0.0933 0.782 0.41047   -0.603068
 O 0.726 0.854 0.01773   -0.576734
 O 0.6662 0.87809 0.10748   -0.608368
 O 0.7218 0.585 0.9855   -0.612403
 O 0.71962 0.54587 0.88772   -0.562161
 O 0.74507 0.68652 0.08823   -0.627386
 O 0.718 0.5933 0.16047   -0.603071
 O 0.274 0.146 0.51773   -0.576736
 O 0.3338 0.12191 0.60748   -0.608365
 O 0.2782 0.415 0.4855   -0.612405
 O 0.28038 0.45413 0.38772   -0.562179
 O 0.25493 0.31348 0.58823   -0.627387
 O 0.282 0.4067 0.66047   -0.603065
