{'_ref': 'TBD', '_srcid': 'CAKYAQ_clean', 'submitters': [{'name': 'Dalar Nazarian Jeff Camp and David Sholl', 'email': 'dalar@gatech.edu jcamp6@gatech.edu'}], '_method': 'VASP DFT with PBE;DDEC'}
data_Ag9H4C6(NO3)2
_symmetry_space_group_name_H-M   'P 1'
_cell_length_a   8.43400028
_cell_length_b   11.73700000
_cell_length_c   12.80400000
_cell_angle_alpha   90.00000000
_cell_angle_beta   103.40000082
_cell_angle_gamma   90.00000000
_symmetry_Int_Tables_number   1
_chemical_formula_structural   Ag9H4C6(NO3)2
_chemical_formula_sum   'Ag18 H8 C12 N4 O12'
_cell_volume   1232.96052577
_cell_formula_units_Z   2
loop_
 _symmetry_equiv_pos_site_id
 _symmetry_equiv_pos_as_xyz
  1  'x, y, z'
loop_
 _atom_site_label
 _atom_site_fract_x
 _atom_site_fract_y
 _atom_site_fract_z
 _atom_site_charge
 Ag 0.6666 0.88178 0.6813   0.193396
 Ag 0.9325 0.73798 0.79642   0.04474
 Ag 0.6771 0.59787 0.64878   0.24798
 Ag 0.0699 0.63773 0.62083   0.399363
 Ag 0.0556 0.8928 0.6475   0.11529
 Ag 0.24324 0.70424 0.18216   0.446102
 Ag 0.3333 0.92854 0.05817   0.085813
 Ag 0.41331 0.69866 0.00243   -0.071383
 Ag 0.7327 0.80126 0.12141   0.353854
 Ag 0.3334 0.38178 0.3187   0.193394
 Ag 0.0675 0.23798 0.20358   0.044741
 Ag 0.3229 0.09787 0.35122   0.24798
 Ag 0.9301 0.13773 0.37917   0.399364
 Ag 0.9444 0.3928 0.3525   0.115289
 Ag 0.75676 0.20424 0.81784   0.446102
 Ag 0.6667 0.42854 0.94183   0.085813
 Ag 0.58669 0.19866 0.99757   -0.071384
 Ag 0.2673 0.30126 0.87859   0.353854
 H 0.8157 0.7288 0.3761   0.11173
 H 0.7799 0.858 0.3918   0.124237
 H 0.5687 0.6814 0.3821   0.073191
 H 0.5309 0.8059 0.415   0.092447
 H 0.1843 0.2288 0.6239   0.11173
 H 0.2201 0.358 0.6082   0.124237
 H 0.4313 0.1814 0.6179   0.073191
 H 0.4691 0.3059 0.585   0.092447
 C 0.8426 0.7575 0.631   -0.657333
 C 0.81 0.767 0.53   0.192389
 C 0.755 0.781 0.411   -0.170436
 C 0.592 0.761 0.374   -0.077028
 C 0.54 0.796 0.2508   0.123334
 C 0.4755 0.7967 0.1573   -0.558375
 C 0.1574 0.2575 0.369   -0.657332
 C 0.19 0.267 0.47   0.192389
 C 0.245 0.281 0.589   -0.170436
 C 0.408 0.261 0.626   -0.077028
 C 0.46 0.296 0.7492   0.123334
 C 0.5245 0.2967 0.8427   -0.558375
 N 0.9517 0.4044 0.7493   0.771698
 N 0.1834 0.6179 0.415   0.796605
 N 0.0483 0.9044 0.2507   0.771698
 N 0.8166 0.1179 0.585   0.796605
 O 0.8023 0.4239 0.7183   -0.3887
 O 0.9971 0.3074 0.8034   -0.475461
 O 0.0574 0.4668 0.7294   -0.42681
 O 0.13 0.5459 0.4704   -0.430579
 O 0.228 0.5862 0.3323   -0.457199
 O 0.183 0.7207 0.4382   -0.458865
 O 0.1977 0.9239 0.2817   -0.3887
 O 0.0029 0.8074 0.1966   -0.475461
 O 0.9426 0.9668 0.2706   -0.42681
 O 0.87 0.0459 0.5296   -0.430579
 O 0.772 0.0862 0.6677   -0.457199
 O 0.817 0.2207 0.5618   -0.458865
