{'_ref': 'TBD', '_srcid': 'CAKYAQ_clean', 'submitters': [{'name': 'Dalar Nazarian Jeff Camp and David Sholl', 'email': 'dalar@gatech.edu jcamp6@gatech.edu'}], '_method': 'VASP DFT with PBE;DDEC'}
data_BaP4H26(C2O)12
_symmetry_space_group_name_H-M   'P 1'
_cell_length_a   8.30789971
_cell_length_b   14.63880023
_cell_length_c   14.63880000
_cell_angle_alpha   92.85639843
_cell_angle_beta   102.03700082
_cell_angle_gamma   102.03699990
_symmetry_Int_Tables_number   1
_chemical_formula_structural   BaP4H26(C2O)12
_chemical_formula_sum   'Ba2 P8 H52 C48 O24'
_cell_volume   1694.78498816
_cell_formula_units_Z   2
loop_
 _symmetry_equiv_pos_site_id
 _symmetry_equiv_pos_as_xyz
  1  'x, y, z'
loop_
 _atom_site_label
 _atom_site_fract_x
 _atom_site_fract_y
 _atom_site_fract_z
 _atom_site_charge
 Ba 0.25 0.04349 0.95651   1.691569
 Ba 0.75 0.95651 0.04349   1.691571
 P 0.99248 0.12 0.73344   1.310685
 P 0.39844 0.9273 0.79422   1.368164
 P 0.50752 0.26656 0.88   1.310685
 P 0.10156 0.20578 0.0727   1.368164
 P 0.00752 0.88 0.26656   1.310685
 P 0.60156 0.0727 0.20578   1.368163
 P 0.49248 0.73344 0.12   1.310685
 P 0.89844 0.79422 0.9273   1.368163
 H 0.9101 0.1296 0.5404   0.118373
 H 0.2061 0.8856 0.6144   0.115574
 H 0.7235 0.0337 0.8061   0.09281
 H 0.415 0.7617 0.8723   0.032119
 H 0.2232 0.7568 0.833   0.013567
 H 0.8732 0.2849 0.7475   0.007261
 H 0.0473 0.2952 0.8178   0.043471
 H 0.3861 0.6563 0.7339   0.110725
 H 0.325 0.6159 0.8211   0.12593
 H 0.1937 0.6356 0.735   0.098258
 H 0.9597 0.4151 0.7051   0.104574
 H 0.1369 0.4232 0.7722   0.118242
 H 0.1008 0.3776 0.6688   0.122262
 H 0.5899 0.4596 0.8704   0.118375
 H 0.2939 0.3856 0.1144   0.115574
 H 0.7765 0.1939 0.9663   0.092811
 H 0.085 0.1277 0.2383   0.032119
 H 0.2768 0.167 0.2432   0.013567
 H 0.6268 0.2525 0.7151   0.00726
 H 0.4527 0.1822 0.7048   0.043471
 H 0.1139 0.2661 0.3437   0.110727
 H 0.175 0.1789 0.3841   0.125931
 H 0.3063 0.265 0.3644   0.098258
 H 0.5403 0.2949 0.5849   0.10458
 H 0.3631 0.2278 0.5768   0.118244
 H 0.3992 0.3312 0.6224   0.122272
 H 0.0899 0.8704 0.4596   0.118371
 H 0.7939 0.1144 0.3856   0.115573
 H 0.2765 0.9663 0.1939   0.09281
 H 0.585 0.2383 0.1277   0.032119
 H 0.7768 0.2432 0.167   0.013567
 H 0.1268 0.7151 0.2525   0.007261
 H 0.9527 0.7048 0.1822   0.043471
 H 0.6139 0.3437 0.2661   0.110731
 H 0.675 0.3841 0.1789   0.125931
 H 0.8063 0.3644 0.265   0.098263
 H 0.0403 0.5849 0.2949   0.104578
 H 0.8631 0.5768 0.2278   0.118242
 H 0.8992 0.6224 0.3312   0.122266
 H 0.4101 0.5404 0.1296   0.118373
 H 0.7061 0.6144 0.8856   0.115573
 H 0.2235 0.8061 0.0337   0.092811
 H 0.915 0.8723 0.7617   0.032119
 H 0.7232 0.833 0.7568   0.013567
 H 0.3732 0.7475 0.2849   0.00726
 H 0.5473 0.8178 0.2952   0.043471
 H 0.8861 0.7339 0.6563   0.110733
 H 0.825 0.8211 0.6159   0.125932
 H 0.6937 0.735 0.6356   0.098264
 H 0.4597 0.7051 0.4151   0.104584
 H 0.6369 0.7722 0.4232   0.118244
 H 0.6008 0.6688 0.3776   0.122275
 C 0.5135 0.9754 0.7092   -0.281884
 C 0.4404 0.9638 0.6124   0.124475
 C 0.5365 0.005 0.5494   -0.0392
 C 0.7061 0.0558 0.5842   0.128251
 C 0.7991 0.0962 0.5186   -0.085481
 C 0.2706 0.9131 0.5741   -0.047842
 C 0.7762 0.0651 0.6819   -0.326822
 C 0.6775 0.0258 0.742   0.079643
 C 0.327 0.7519 0.8151   0.246011
 C 0.994 0.2948 0.7522   0.243193
 C 0.306 0.6568 0.7726   -0.367671
 C 0.053 0.3851 0.7221   -0.371662
 C 0.9865 0.2908 0.0246   -0.281883
 C 0.0596 0.3876 0.0362   0.124475
 C 0.9635 0.4506 0.995   -0.0392
 C 0.7939 0.4158 0.9442   0.128251
 C 0.7009 0.4814 0.9038   -0.085482
 C 0.2294 0.4259 0.0869   -0.047842
 C 0.7238 0.3181 0.9349   -0.326822
 C 0.8225 0.258 0.9742   0.079643
 C 0.173 0.1849 0.2481   0.246011
 C 0.506 0.2478 0.7052   0.243195
 C 0.194 0.2274 0.3432   -0.367672
 C 0.447 0.2779 0.6149   -0.371668
 C 0.4865 0.0246 0.2908   -0.281883
 C 0.5596 0.0362 0.3876   0.124472
 C 0.4635 0.995 0.4506   -0.039201
 C 0.2939 0.9442 0.4158   0.128248
 C 0.2009 0.9038 0.4814   -0.085459
 C 0.7294 0.0869 0.4259   -0.04782
 C 0.2238 0.9349 0.3181   -0.326822
 C 0.3225 0.9742 0.258   0.079643
 C 0.673 0.2481 0.1849   0.246012
 C 0.006 0.7052 0.2478   0.243194
 C 0.694 0.3432 0.2274   -0.367675
 C 0.947 0.6149 0.2779   -0.371665
 C 0.0135 0.7092 0.9754   -0.281883
 C 0.9404 0.6124 0.9638   0.124472
 C 0.0365 0.5494 0.005   -0.039201
 C 0.2061 0.5842 0.0558   0.128248
 C 0.2991 0.5186 0.0962   -0.08546
 C 0.7706 0.5741 0.9131   -0.04782
 C 0.2762 0.6819 0.0651   -0.326822
 C 0.1775 0.742 0.0258   0.079643
 C 0.827 0.8151 0.7519   0.246012
 C 0.494 0.7522 0.2948   0.243196
 C 0.806 0.7726 0.6568   -0.367676
 C 0.553 0.7221 0.3851   -0.371671
 O 0.03 0.11587 0.83473   -0.783466
 O 0.5024 0.95163 0.89181   -0.919813
 O 0.3657 0.8193 0.7639   -0.46934
 O 0.2325 0.95691 0.78009   -0.742281
 O 0.0248 0.2193 0.7015   -0.462372
 O 0.1054 0.0734 0.6816   -0.551573
 O 0.47 0.16527 0.88413   -0.783466
 O 0.9976 0.10819 0.04837   -0.919813
 O 0.1343 0.2361 0.1807   -0.46934
 O 0.2675 0.21991 0.04309   -0.742281
 O 0.4752 0.2985 0.7807   -0.462372
 O 0.3946 0.3184 0.9266   -0.551573
 O 0.97 0.88413 0.16527   -0.783465
 O 0.4976 0.04837 0.10819   -0.919813
 O 0.6343 0.1807 0.2361   -0.46934
 O 0.7675 0.04309 0.21991   -0.742281
 O 0.9752 0.7807 0.2985   -0.462372
 O 0.8946 0.9266 0.3184   -0.551573
 O 0.53 0.83473 0.11587   -0.783465
 O 0.0024 0.89181 0.95163   -0.919813
 O 0.8657 0.7639 0.8193   -0.46934
 O 0.7325 0.78009 0.95691   -0.742281
 O 0.5248 0.7015 0.2193   -0.462372
 O 0.6054 0.6816 0.0734   -0.551574
