{'_ref': 'TBD', '_srcid': 'CAKYAQ_clean', 'submitters': [{'name': 'Dalar Nazarian Jeff Camp and David Sholl', 'email': 'dalar@gatech.edu jcamp6@gatech.edu'}], '_method': 'VASP DFT with PBE;DDEC'}
data_ZnH8C6N8O
_symmetry_space_group_name_H-M   'P 1'
_cell_length_a   13.04780042
_cell_length_b   15.06930000
_cell_length_c   15.06929963
_cell_angle_alpha   112.02739979
_cell_angle_beta   106.77500099
_cell_angle_gamma   106.77519880
_symmetry_Int_Tables_number   1
_chemical_formula_structural   ZnH8C6N8O
_chemical_formula_sum   'Zn6 H48 C36 N48 O6'
_cell_volume   2352.24331554
_cell_formula_units_Z   6
loop_
 _symmetry_equiv_pos_site_id
 _symmetry_equiv_pos_as_xyz
  1  'x, y, z'
loop_
 _atom_site_label
 _atom_site_fract_x
 _atom_site_fract_y
 _atom_site_fract_z
 _atom_site_charge
 Zn 0.96987 0.19119 0.71449   0.744032
 Zn 0.77868 0.5233 0.80881   0.744644
 Zn 0.25538 0.28551 0.4767   0.744463
 Zn 0.03013 0.80881 0.28551   0.744032
 Zn 0.22132 0.4767 0.19119   0.744644
 Zn 0.74462 0.71449 0.5233   0.744463
 H 0.2656 0.2747 0.7529   0.135561
 H 0.3004 0.2428 0.6582   0.130607
 H 0.1573 0.0605 0.5816   0.041372
 H 0.2631 0.1024 0.6927   0.060809
 H 0.1548 0.9928 0.742   0.056147
 H 0.0562 0.9347 0.6231   0.048433
 H 0.9714 0.9014 0.7335   0.130834
 H 0.0148 0.0247 0.8037   0.12487
 H 0.9909 0.4782 0.7253   0.136216
 H 0.0576 0.4154 0.7572   0.130471
 H 0.0968 0.5211 0.9395   0.041328
 H 0.1607 0.5903 0.8976   0.060807
 H 0.162 0.7492 0.0072   0.056526
 H 0.1215 0.6884 0.0653   0.048116
 H 0.07 0.8321 0.0986   0.130009
 H 0.9901 0.779 0.9753   0.124653
 H 0.5127 0.2471 0.5218   0.136708
 H 0.6422 0.3418 0.5846   0.129932
 H 0.5757 0.4184 0.4789   0.0411
 H 0.5704 0.3073 0.4097   0.060404
 H 0.4128 0.258 0.2508   0.055684
 H 0.4331 0.3769 0.3116   0.047759
 H 0.2379 0.2665 0.1679   0.130563
 H 0.2111 0.1963 0.221   0.125838
 H 0.7344 0.7253 0.2471   0.135561
 H 0.6996 0.7572 0.3418   0.130607
 H 0.8427 0.9395 0.4184   0.041372
 H 0.7369 0.8976 0.3073   0.060811
 H 0.8452 0.0072 0.258   0.056147
 H 0.9438 0.0653 0.3769   0.048433
 H 0.0286 0.0986 0.2665   0.130834
 H 0.9852 0.9753 0.1963   0.124869
 H 0.0091 0.5218 0.2747   0.136216
 H 0.9424 0.5846 0.2428   0.130471
 H 0.9032 0.4789 0.0605   0.041328
 H 0.8393 0.4097 0.1024   0.060809
 H 0.838 0.2508 0.9928   0.056527
 H 0.8785 0.3116 0.9347   0.048116
 H 0.93 0.1679 0.9014   0.130009
 H 0.0099 0.221 0.0247   0.124652
 H 0.4873 0.7529 0.4782   0.136708
 H 0.3578 0.6582 0.4154   0.129932
 H 0.4243 0.5816 0.5211   0.041099
 H 0.4296 0.6927 0.5903   0.060405
 H 0.5872 0.742 0.7492   0.055685
 H 0.5669 0.6231 0.6884   0.047759
 H 0.7621 0.7335 0.8321   0.130563
 H 0.7889 0.8037 0.779   0.125837
 C 0.1364 0.241 0.6138   0.374003
 C 0.2353 0.2255 0.6773   -0.306104
 C 0.1947 0.1112 0.6578   0.159895
 C 0.0838 0.9907 0.6955   0.156251
 C 0.9871 0.9676 0.7318   -0.303519
 C 0.874 0.958 0.6586   0.366324
 C 0.8954 0.3728 0.759   0.37593
 C 0.0098 0.4518 0.7745   -0.308277
 C 0.0835 0.5466 0.8888   0.161159
 C 0.0931 0.7048 0.0093   0.15503
 C 0.0195 0.7642 0.0324   -0.301691
 C 0.916 0.7006 0.042   0.366603
 C 0.5226 0.3862 0.6272   0.374311
 C 0.558 0.3227 0.5482   -0.307763
 C 0.5369 0.3422 0.4534   0.162257
 C 0.3883 0.3045 0.2952   0.157497
 C 0.2553 0.2682 0.2358   -0.30487
 C 0.2154 0.3414 0.2994   0.36768
 C 0.8636 0.759 0.3862   0.374003
 C 0.7647 0.7745 0.3227   -0.306104
 C 0.8053 0.8888 0.3422   0.159894
 C 0.9162 0.0093 0.3045   0.156251
 C 0.0129 0.0324 0.2682   -0.303519
 C 0.126 0.042 0.3414   0.366324
 C 0.1046 0.6272 0.241   0.37593
 C 0.9902 0.5482 0.2255   -0.308277
 C 0.9165 0.4534 0.1112   0.161159
 C 0.9069 0.2952 0.9907   0.15503
 C 0.9805 0.2358 0.9676   -0.30169
 C 0.084 0.2994 0.958   0.366603
 C 0.4774 0.6138 0.3728   0.374311
 C 0.442 0.6773 0.4518   -0.307763
 C 0.4631 0.6578 0.5466   0.162256
 C 0.6117 0.6955 0.7048   0.157497
 C 0.7447 0.7318 0.7642   -0.304869
 C 0.7846 0.6586 0.7006   0.36768
 N 0.0336 0.2267 0.6212   -0.303022
 N 0.9706 0.2494 0.5499   -0.101029
 N 0.0315 0.2751 0.5023   -0.093418
 N 0.13772 0.27082 0.54144   -0.297436
 N 0.8588 0.0394 0.6531   -0.301597
 N 0.7461 0.9972 0.5744   -0.077222
 N 0.697 0.8952 0.5357   -0.061004
 N 0.77575 0.8686 0.58885   -0.317748
 N 0.8069 0.3945 0.7733   -0.302297
 N 0.7212 0.3005 0.7506   -0.10308
 N 0.7564 0.2272 0.7249   -0.091856
 N 0.8669 0.27062 0.72918   -0.298343
 N 0.8194 0.6137 0.9606   -0.302991
 N 0.7489 0.5772 0.0028   -0.077021
 N 0.8018 0.6405 0.1048   -0.059555
 N 0.90715 0.72025 0.1314   -0.318867
 N 0.4124 0.3788 0.6055   -0.301682
 N 0.4207 0.4501 0.6995   -0.103159
 N 0.5292 0.4977 0.7728   -0.091833
 N 0.59628 0.45856 0.72938   -0.297889
 N 0.2057 0.3469 0.3863   -0.303201
 N 0.1717 0.4256 0.4228   -0.076727
 N 0.1613 0.4643 0.3595   -0.060461
 N 0.1869 0.41115 0.27975   -0.31838
 N 0.9664 0.7733 0.3788   -0.303022
 N 0.0294 0.7506 0.4501   -0.101029
 N 0.9685 0.7249 0.4977   -0.093418
 N 0.86228 0.72918 0.45856   -0.297436
 N 0.1412 0.9606 0.3469   -0.301597
 N 0.2539 0.0028 0.4256   -0.077222
 N 0.303 0.1048 0.4643   -0.061004
 N 0.22425 0.1314 0.41115   -0.317748
 N 0.1931 0.6055 0.2267   -0.302297
 N 0.2788 0.6995 0.2494   -0.10308
 N 0.2436 0.7728 0.2751   -0.091856
 N 0.1331 0.72938 0.27082   -0.298343
 N 0.1806 0.3863 0.0394   -0.302991
 N 0.2511 0.4228 0.9972   -0.077021
 N 0.1982 0.3595 0.8952   -0.059555
 N 0.09285 0.27975 0.8686   -0.318867
 N 0.5876 0.6212 0.3945   -0.301682
 N 0.5793 0.5499 0.3005   -0.10316
 N 0.4708 0.5023 0.2272   -0.091833
 N 0.40372 0.54144 0.27062   -0.297889
 N 0.7943 0.6531 0.6137   -0.303201
 N 0.8283 0.5744 0.5772   -0.076727
 N 0.8387 0.5357 0.6405   -0.060461
 N 0.8131 0.58885 0.72025   -0.31838
 O 0.11189 0.09146 0.69971   -0.367217
 O 0.02043 0.60825 0.90854   -0.367243
 O 0.41218 0.30029 0.39175   -0.368323
 O 0.88811 0.90854 0.30029   -0.367217
 O 0.97957 0.39175 0.09146   -0.367243
 O 0.58782 0.69971 0.60825   -0.368322
