{'_ref': 'TBD', '_srcid': 'CAKYAQ_clean', 'submitters': [{'name': 'Dalar Nazarian Jeff Camp and David Sholl', 'email': 'dalar@gatech.edu jcamp6@gatech.edu'}], '_method': 'VASP DFT with PBE;DDEC'}
data_CrNiH20C24(N2O)2
_symmetry_space_group_name_H-M   'P 1'
_cell_length_a   13.54240031
_cell_length_b   13.54240016
_cell_length_c   13.54240000
_cell_angle_alpha   102.85799981
_cell_angle_beta   102.85799965
_cell_angle_gamma   102.85799834
_symmetry_Int_Tables_number   1
_chemical_formula_structural   CrNiH20C24(N2O)2
_chemical_formula_sum   'Cr3 Ni3 H60 C72 N12 O6'
_cell_volume   2261.86725863
_cell_formula_units_Z   3
loop_
 _symmetry_equiv_pos_site_id
 _symmetry_equiv_pos_as_xyz
  1  'x, y, z'
loop_
 _atom_site_label
 _atom_site_fract_x
 _atom_site_fract_y
 _atom_site_fract_z
 _atom_site_charge
 Cr 0.0 0.2103 0.7897   0.589719
 Cr 0.7897 0.0 0.2103   0.58972
 Cr 0.2103 0.7897 0.0   0.589722
 Ni 0.11593 0.5 0.88407   0.721633
 Ni 0.88407 0.11593 0.5   0.721633
 Ni 0.5 0.88407 0.11593   0.721634
 H 0.1186 0.3701 0.6755   0.080138
 H 0.1174 0.6655 0.7581   0.045493
 H 0.1416 0.3817 0.5155   0.115226
 H 0.1498 0.3478 0.0186   0.040412
 H 0.1133 0.6304 0.0929   0.042341
 H 0.1369 0.6857 0.599   0.123535
 H 0.1266 0.6282 0.2642   0.123083
 H 0.1504 0.4066 0.3648   0.099512
 H 0.1648 0.3377 0.188   0.12306
 H 0.1495 0.6139 0.4227   0.095399
 H 0.6755 0.1186 0.3701   0.080138
 H 0.7581 0.1174 0.6655   0.045493
 H 0.5155 0.1416 0.3817   0.115226
 H 0.0186 0.1498 0.3478   0.040412
 H 0.0929 0.1133 0.6304   0.042341
 H 0.599 0.1369 0.6857   0.123535
 H 0.2642 0.1266 0.6282   0.123083
 H 0.3648 0.1504 0.4066   0.099512
 H 0.188 0.1648 0.3377   0.123061
 H 0.4227 0.1495 0.6139   0.095399
 H 0.3701 0.6755 0.1186   0.080138
 H 0.6655 0.7581 0.1174   0.045493
 H 0.3817 0.5155 0.1416   0.115226
 H 0.3478 0.0186 0.1498   0.040412
 H 0.6304 0.0929 0.1133   0.042341
 H 0.6857 0.599 0.1369   0.123535
 H 0.6282 0.2642 0.1266   0.123083
 H 0.4066 0.3648 0.1504   0.099512
 H 0.3377 0.188 0.1648   0.123061
 H 0.6139 0.4227 0.1495   0.095399
 H 0.6299 0.8814 0.3245   0.080137
 H 0.3345 0.8826 0.2419   0.045493
 H 0.6183 0.8584 0.4845   0.11523
 H 0.6522 0.8502 0.9814   0.040412
 H 0.3696 0.8867 0.9071   0.042341
 H 0.3143 0.8631 0.401   0.123533
 H 0.3718 0.8734 0.7358   0.12308
 H 0.5934 0.8496 0.6352   0.099512
 H 0.6623 0.8352 0.812   0.12306
 H 0.3861 0.8505 0.5773   0.095398
 H 0.8814 0.3245 0.6299   0.080138
 H 0.8826 0.2419 0.3345   0.045493
 H 0.8584 0.4845 0.6183   0.115226
 H 0.8502 0.9814 0.6522   0.040413
 H 0.8867 0.9071 0.3696   0.042341
 H 0.8631 0.401 0.3143   0.123533
 H 0.8734 0.7358 0.3718   0.12308
 H 0.8496 0.6352 0.5934   0.099512
 H 0.8352 0.812 0.6623   0.123061
 H 0.8505 0.5773 0.3861   0.095398
 H 0.3245 0.6299 0.8814   0.080138
 H 0.2419 0.3345 0.8826   0.045495
 H 0.4845 0.6183 0.8584   0.115226
 H 0.9814 0.6522 0.8502   0.040413
 H 0.9071 0.3696 0.8867   0.042341
 H 0.401 0.3143 0.8631   0.123532
 H 0.7358 0.3718 0.8734   0.12308
 H 0.6352 0.5934 0.8496   0.099512
 H 0.812 0.6623 0.8352   0.123061
 H 0.5773 0.3861 0.8505   0.095398
 C 0.1221 0.43455 0.65924   0.152796
 C 0.12094 0.60718 0.70764   0.156204
 C 0.13527 0.44055 0.56309   -0.201575
 C 0.1448 0.40532 0.06898   0.149757
 C 0.1235 0.57024 0.11256   0.166379
 C 0.1446 0.4812 0.2465   0.134972
 C 0.1392 0.53513 0.53628   0.1217
 C 0.133 0.6199 0.6126   -0.226103
 C 0.1308 0.5692 0.2152   -0.229523
 C 0.1473 0.4719 0.3527   -0.149666
 C 0.1532 0.3984 0.1704   -0.236904
 C 0.1459 0.54683 0.43277   -0.133457
 C 0.65924 0.1221 0.43455   0.152796
 C 0.70764 0.12094 0.60718   0.156204
 C 0.56309 0.13527 0.44055   -0.201575
 C 0.06898 0.1448 0.40532   0.149757
 C 0.11256 0.1235 0.57024   0.166379
 C 0.2465 0.1446 0.4812   0.134972
 C 0.53628 0.1392 0.53513   0.1217
 C 0.6126 0.133 0.6199   -0.226103
 C 0.2152 0.1308 0.5692   -0.229524
 C 0.3527 0.1473 0.4719   -0.149666
 C 0.1704 0.1532 0.3984   -0.236904
 C 0.43277 0.1459 0.54683   -0.133457
 C 0.43455 0.65924 0.1221   0.152796
 C 0.60718 0.70764 0.12094   0.156203
 C 0.44055 0.56309 0.13527   -0.201575
 C 0.40532 0.06898 0.1448   0.149758
 C 0.57024 0.11256 0.1235   0.166379
 C 0.4812 0.2465 0.1446   0.134972
 C 0.53513 0.53628 0.1392   0.1217
 C 0.6199 0.6126 0.133   -0.226103
 C 0.5692 0.2152 0.1308   -0.229523
 C 0.4719 0.3527 0.1473   -0.149666
 C 0.3984 0.1704 0.1532   -0.236904
 C 0.54683 0.43277 0.1459   -0.133457
 C 0.56545 0.8779 0.34076   0.152801
 C 0.39282 0.87906 0.29236   0.156204
 C 0.55945 0.86473 0.43691   -0.201603
 C 0.59468 0.8552 0.93102   0.149757
 C 0.42976 0.8765 0.88744   0.166378
 C 0.5188 0.8554 0.7535   0.134971
 C 0.46487 0.8608 0.46372   0.121719
 C 0.3801 0.867 0.3874   -0.226104
 C 0.4308 0.8692 0.7848   -0.229523
 C 0.5281 0.8527 0.6473   -0.149666
 C 0.6016 0.8468 0.8296   -0.236904
 C 0.45317 0.8541 0.56723   -0.133457
 C 0.8779 0.34076 0.56545   0.152795
 C 0.87906 0.29236 0.39282   0.156203
 C 0.86473 0.43691 0.55945   -0.201575
 C 0.8552 0.93102 0.59468   0.149757
 C 0.8765 0.88744 0.42976   0.166378
 C 0.8554 0.7535 0.5188   0.134971
 C 0.8608 0.46372 0.46487   0.1217
 C 0.867 0.3874 0.3801   -0.226103
 C 0.8692 0.7848 0.4308   -0.229523
 C 0.8527 0.6473 0.5281   -0.149666
 C 0.8468 0.8296 0.6016   -0.236904
 C 0.8541 0.56723 0.45317   -0.133456
 C 0.34076 0.56545 0.8779   0.152794
 C 0.29236 0.39282 0.87906   0.156185
 C 0.43691 0.55945 0.86473   -0.201575
 C 0.93102 0.59468 0.8552   0.149757
 C 0.88744 0.42976 0.8765   0.166378
 C 0.7535 0.5188 0.8554   0.134971
 C 0.46372 0.46487 0.8608   0.121698
 C 0.3874 0.3801 0.867   -0.226086
 C 0.7848 0.4308 0.8692   -0.229523
 C 0.6473 0.5281 0.8527   -0.149666
 C 0.8296 0.6016 0.8468   -0.236904
 C 0.56723 0.45317 0.8541   -0.133456
 N 0.11406 0.51573 0.73148   -0.312818
 N 0.13002 0.48909 0.03902   -0.297516
 N 0.73148 0.11406 0.51573   -0.312818
 N 0.03902 0.13002 0.48909   -0.297516
 N 0.51573 0.73148 0.11406   -0.312818
 N 0.48909 0.03902 0.13002   -0.297516
 N 0.48427 0.88594 0.26852   -0.312819
 N 0.51091 0.86998 0.96098   -0.297516
 N 0.88594 0.26852 0.48427   -0.312818
 N 0.86998 0.96098 0.51091   -0.297516
 N 0.26852 0.48427 0.88594   -0.312814
 N 0.96098 0.51091 0.86998   -0.297516
 O 0.05718 0.33902 0.8277   -0.638116
 O 0.8277 0.05718 0.33902   -0.638116
 O 0.33902 0.8277 0.05718   -0.638116
 O 0.66098 0.94282 0.1723   -0.638116
 O 0.94282 0.1723 0.66098   -0.638116
 O 0.1723 0.66098 0.94282   -0.638116
