{'_ref': 'TBD', '_srcid': 'CAKYAQ_clean', 'submitters': [{'name': 'Dalar Nazarian Jeff Camp and David Sholl', 'email': 'dalar@gatech.edu jcamp6@gatech.edu'}], '_method': 'VASP DFT with PBE;DDEC'}
data_CoMoH20C24(N2O)2
_symmetry_space_group_name_H-M   'P 1'
_cell_length_a   13.68219996
_cell_length_b   13.68220024
_cell_length_c   13.68220000
_cell_angle_alpha   102.35299998
_cell_angle_beta   102.35300024
_cell_angle_gamma   102.35299847
_symmetry_Int_Tables_number   1
_chemical_formula_structural   CoMoH20C24(N2O)2
_chemical_formula_sum   'Co3 Mo3 H60 C72 N12 O6'
_cell_volume   2351.85733225
_cell_formula_units_Z   3
loop_
 _symmetry_equiv_pos_site_id
 _symmetry_equiv_pos_as_xyz
  1  'x, y, z'
loop_
 _atom_site_label
 _atom_site_fract_x
 _atom_site_fract_y
 _atom_site_fract_z
 _atom_site_charge
 Co 0.88292 0.5 0.11708   0.619955
 Co 0.11708 0.88292 0.5   0.619955
 Co 0.5 0.11708 0.88292   0.619952
 Mo 0.79279 0.20721 0.0   0.464886
 Mo 0.0 0.79279 0.20721   0.464886
 Mo 0.20721 0.0 0.79279   0.464886
 H 0.8816 0.3366 0.2483   0.037395
 H 0.8656 0.3175 0.4073   0.126382
 H 0.8604 0.6165 0.487   0.111334
 H 0.8793 0.6281 0.3272   0.07972
 H 0.8575 0.3892 0.5819   0.098998
 H 0.8512 0.5926 0.6362   0.102074
 H 0.8235 0.6557 0.8063   0.122861
 H 0.8352 0.6443 0.9737   0.046675
 H 0.901 0.3783 0.9108   0.037843
 H 0.8896 0.3804 0.7419   0.123409
 H 0.2483 0.8816 0.3366   0.037395
 H 0.4073 0.8656 0.3175   0.126382
 H 0.487 0.8604 0.6165   0.111334
 H 0.3272 0.8793 0.6281   0.07972
 H 0.5819 0.8575 0.3892   0.098998
 H 0.6362 0.8512 0.5926   0.102074
 H 0.8063 0.8235 0.6557   0.122862
 H 0.9737 0.8352 0.6443   0.046675
 H 0.9108 0.901 0.3783   0.037843
 H 0.7419 0.8896 0.3804   0.123409
 H 0.3366 0.2483 0.8816   0.037395
 H 0.3175 0.4073 0.8656   0.126382
 H 0.6165 0.487 0.8604   0.111334
 H 0.6281 0.3272 0.8793   0.07972
 H 0.3892 0.5819 0.8575   0.098998
 H 0.5926 0.6362 0.8512   0.102074
 H 0.6557 0.8063 0.8235   0.122862
 H 0.6443 0.9737 0.8352   0.046674
 H 0.3783 0.9108 0.901   0.037841
 H 0.3804 0.7419 0.8896   0.12341
 H 0.6634 0.1184 0.7517   0.037395
 H 0.6825 0.1344 0.5927   0.126381
 H 0.3835 0.1396 0.513   0.111334
 H 0.3719 0.1207 0.6728   0.07972
 H 0.6108 0.1425 0.4181   0.098998
 H 0.4074 0.1488 0.3638   0.102074
 H 0.3443 0.1765 0.1937   0.122861
 H 0.3557 0.1648 0.0263   0.046675
 H 0.6217 0.099 0.0892   0.037843
 H 0.6196 0.1104 0.2581   0.123407
 H 0.1184 0.7517 0.6634   0.037395
 H 0.1344 0.5927 0.6825   0.126381
 H 0.1396 0.513 0.3835   0.111334
 H 0.1207 0.6728 0.3719   0.07972
 H 0.1425 0.4181 0.6108   0.098998
 H 0.1488 0.3638 0.4074   0.102074
 H 0.1765 0.1937 0.3443   0.122862
 H 0.1648 0.0263 0.3557   0.046675
 H 0.099 0.0892 0.6217   0.037843
 H 0.1104 0.2581 0.6196   0.123407
 H 0.7517 0.6634 0.1184   0.037395
 H 0.5927 0.6825 0.1344   0.126381
 H 0.513 0.3835 0.1396   0.111334
 H 0.6728 0.3719 0.1207   0.07972
 H 0.4181 0.6108 0.1425   0.098998
 H 0.3638 0.4074 0.1488   0.102074
 H 0.1937 0.3443 0.1765   0.122862
 H 0.0263 0.3557 0.1648   0.046675
 H 0.0892 0.6217 0.099   0.037843
 H 0.2581 0.6196 0.1104   0.123407
 C 0.87853 0.39437 0.29782   0.16101
 C 0.86876 0.38214 0.3929   -0.227786
 C 0.86369 0.46612 0.46753   0.123005
 C 0.86609 0.55837 0.43984   -0.198099
 C 0.87677 0.56464 0.34381   0.149189
 C 0.8586 0.45465 0.57055   -0.132193
 C 0.8553 0.5286 0.649   -0.147229
 C 0.8575 0.51898 0.75452   0.13461
 C 0.84 0.5981 0.8261   -0.237443
 C 0.84714 0.59047 0.92619   0.147264
 C 0.8852 0.43531 0.88948   0.165599
 C 0.8791 0.4362 0.7881   -0.228552
 C 0.29782 0.87853 0.39437   0.16101
 C 0.3929 0.86876 0.38214   -0.227787
 C 0.46753 0.86369 0.46612   0.123005
 C 0.43984 0.86609 0.55837   -0.198099
 C 0.34381 0.87677 0.56464   0.149189
 C 0.57055 0.8586 0.45465   -0.132193
 C 0.649 0.8553 0.5286   -0.147229
 C 0.75452 0.8575 0.51898   0.13461
 C 0.8261 0.84 0.5981   -0.237443
 C 0.92619 0.84714 0.59047   0.147264
 C 0.88948 0.8852 0.43531   0.165599
 C 0.7881 0.8791 0.4362   -0.228552
 C 0.39437 0.29782 0.87853   0.16101
 C 0.38214 0.3929 0.86876   -0.227786
 C 0.46612 0.46753 0.86369   0.123005
 C 0.55837 0.43984 0.86609   -0.198099
 C 0.56464 0.34381 0.87677   0.149189
 C 0.45465 0.57055 0.8586   -0.132193
 C 0.5286 0.649 0.8553   -0.147229
 C 0.51898 0.75452 0.8575   0.13461
 C 0.5981 0.8261 0.84   -0.237442
 C 0.59047 0.92619 0.84714   0.147267
 C 0.43531 0.88948 0.8852   0.165607
 C 0.4362 0.7881 0.8791   -0.228555
 C 0.60563 0.12147 0.70218   0.16101
 C 0.61786 0.13124 0.6071   -0.227785
 C 0.53388 0.13631 0.53247   0.123005
 C 0.44163 0.13391 0.56016   -0.198098
 C 0.43536 0.12323 0.65619   0.149189
 C 0.54535 0.1414 0.42945   -0.132193
 C 0.4714 0.1447 0.351   -0.147229
 C 0.48102 0.1425 0.24548   0.134609
 C 0.4019 0.16 0.1739   -0.237443
 C 0.40953 0.15286 0.07381   0.147264
 C 0.56469 0.1148 0.11052   0.165598
 C 0.5638 0.1209 0.2119   -0.228551
 C 0.12147 0.70218 0.60563   0.16101
 C 0.13124 0.6071 0.61786   -0.227786
 C 0.13631 0.53247 0.53388   0.123006
 C 0.13391 0.56016 0.44163   -0.198099
 C 0.12323 0.65619 0.43536   0.14919
 C 0.1414 0.42945 0.54535   -0.132192
 C 0.1447 0.351 0.4714   -0.147229
 C 0.1425 0.24548 0.48102   0.134609
 C 0.16 0.1739 0.4019   -0.237443
 C 0.15286 0.07381 0.40953   0.147264
 C 0.1148 0.11052 0.56469   0.165598
 C 0.1209 0.2119 0.5638   -0.228551
 C 0.70218 0.60563 0.12147   0.16101
 C 0.6071 0.61786 0.13124   -0.227786
 C 0.53247 0.53388 0.13631   0.123006
 C 0.56016 0.44163 0.13391   -0.198099
 C 0.65619 0.43536 0.12323   0.14919
 C 0.42945 0.54535 0.1414   -0.132192
 C 0.351 0.4714 0.1447   -0.147229
 C 0.24548 0.48102 0.1425   0.13461
 C 0.1739 0.4019 0.16   -0.237443
 C 0.07381 0.40953 0.15286   0.147264
 C 0.11052 0.56469 0.1148   0.165598
 C 0.2119 0.5638 0.1209   -0.228552
 N 0.86985 0.51102 0.95935   -0.30272
 N 0.88379 0.4838 0.27225   -0.316873
 N 0.95935 0.86985 0.51102   -0.30272
 N 0.27225 0.88379 0.4838   -0.316873
 N 0.51102 0.95935 0.86985   -0.302727
 N 0.4838 0.27225 0.88379   -0.316872
 N 0.48898 0.13015 0.04065   -0.302719
 N 0.5162 0.11621 0.72775   -0.316872
 N 0.13015 0.04065 0.48898   -0.30272
 N 0.11621 0.72775 0.5162   -0.316873
 N 0.04065 0.48898 0.13015   -0.30272
 N 0.72775 0.5162 0.11621   -0.316873
 O 0.83125 0.34225 0.06134   -0.518891
 O 0.06134 0.83125 0.34225   -0.518891
 O 0.34225 0.06134 0.83125   -0.518891
 O 0.65775 0.16875 0.93866   -0.518891
 O 0.16875 0.93866 0.65775   -0.518892
 O 0.93866 0.65775 0.16875   -0.518891
