{'_ref': 'TBD', '_srcid': 'CAKYAQ_clean', 'submitters': [{'name': 'Dalar Nazarian Jeff Camp and David Sholl', 'email': 'dalar@gatech.edu jcamp6@gatech.edu'}], '_method': 'VASP DFT with PBE;DDEC'}
data_CoH28C41(NO)4
_symmetry_space_group_name_H-M   'P 1'
_cell_length_a   9.92280000
_cell_length_b   17.55420026
_cell_length_c   23.92230000
_cell_angle_alpha   91.92000063
_cell_angle_beta   90.00000000
_cell_angle_gamma   90.00000000
_symmetry_Int_Tables_number   1
_chemical_formula_structural   CoH28C41(NO)4
_chemical_formula_sum   'Co4 H112 C164 N16 O16'
_cell_volume   4164.60992022
_cell_formula_units_Z   4
loop_
 _symmetry_equiv_pos_site_id
 _symmetry_equiv_pos_as_xyz
  1  'x, y, z'
loop_
 _atom_site_label
 _atom_site_fract_x
 _atom_site_fract_y
 _atom_site_fract_z
 _atom_site_charge
 Co 0.68783 0.75949 0.63232   0.840175
 Co 0.18783 0.74051 0.86768   0.840175
 Co 0.31217 0.24051 0.36768   0.840175
 Co 0.81217 0.25949 0.13232   0.840175
 H 0.6492 0.5974 0.4846   0.089942
 H 0.6237 0.5006 0.4183   0.090494
 H 0.7027 0.9511 0.5293   0.099828
 H 0.3002 0.9461 0.5287   0.094345
 H 0.6969 0.7088 0.7573   0.076002
 H 0.7466 0.6048 0.8081   0.141127
 H 0.8927 0.5046 0.6697   0.128782
 H 0.8438 0.6123 0.6227   0.084698
 H 0.8628 0.5162 0.8529   0.099454
 H 0.9263 0.4086 0.8979   0.114198
 H 0.9136 0.2887 0.7525   0.119743
 H 0.8515 0.3969 0.7077   0.098168
 H 0.5926 0.9156 0.6705   0.060368
 H 0.6464 0.0243 0.7195   0.110287
 H 0.9695 0.9179 0.7782   0.121309
 H 0.9055 0.8118 0.727   0.062081
 H 0.6698 0.1053 0.7879   0.08348
 H 0.7295 0.2186 0.8303   0.118959
 H 0.11 0.1492 0.8391   0.113657
 H 0.0496 0.0337 0.7976   0.092579
 H 0.7288 0.2686 0.0131   0.081307
 H 0.5513 0.2757 0.9538   0.123578
 H 0.3057 0.274 0.0854   0.145593
 H 0.4894 0.2618 0.1406   0.065298
 H 0.1559 0.2234 0.0215   0.112481
 H 0.9779 0.2208 0.9598   0.123775
 H 0.1981 0.3368 0.8519   0.11419
 H 0.3749 0.3386 0.9138   0.099929
 H 0.1492 0.9026 0.0154   0.089942
 H 0.1237 0.9994 0.0817   0.090494
 H 0.2027 0.5489 0.9707   0.099828
 H 0.8002 0.5539 0.9713   0.094345
 H 0.1969 0.7912 0.7427   0.076002
 H 0.2466 0.8952 0.6919   0.141127
 H 0.3927 0.9954 0.8303   0.128782
 H 0.3438 0.8877 0.8773   0.084698
 H 0.3628 0.9838 0.6471   0.099453
 H 0.4263 0.0914 0.6021   0.114198
 H 0.4136 0.2113 0.7475   0.119745
 H 0.3515 0.1031 0.7923   0.098168
 H 0.0926 0.5844 0.8295   0.060368
 H 0.1464 0.4757 0.7805   0.110287
 H 0.4695 0.5821 0.7218   0.121309
 H 0.4055 0.6882 0.773   0.062081
 H 0.1698 0.3947 0.7121   0.08348
 H 0.2295 0.2814 0.6697   0.11896
 H 0.61 0.3508 0.6609   0.113658
 H 0.5496 0.4663 0.7024   0.092579
 H 0.2288 0.2314 0.4869   0.081307
 H 0.0513 0.2243 0.5462   0.123578
 H 0.8057 0.226 0.4146   0.145593
 H 0.9894 0.2382 0.3594   0.065298
 H 0.6559 0.2766 0.4785   0.112481
 H 0.4779 0.2792 0.5402   0.123775
 H 0.6981 0.1632 0.6481   0.11419
 H 0.8749 0.1614 0.5862   0.09993
 H 0.3508 0.4026 0.5154   0.089941
 H 0.3763 0.4994 0.5817   0.090494
 H 0.2973 0.0489 0.4707   0.099828
 H 0.6998 0.0539 0.4713   0.094346
 H 0.3031 0.2912 0.2427   0.076003
 H 0.2534 0.3952 0.1919   0.141127
 H 0.1073 0.4954 0.3303   0.128782
 H 0.1562 0.3877 0.3773   0.084698
 H 0.1372 0.4838 0.1471   0.099454
 H 0.0737 0.5914 0.1021   0.114198
 H 0.0864 0.7113 0.2475   0.119743
 H 0.1485 0.6031 0.2923   0.098168
 H 0.4074 0.0844 0.3295   0.060368
 H 0.3536 0.9757 0.2805   0.110287
 H 0.0305 0.0821 0.2218   0.121309
 H 0.0945 0.1882 0.273   0.062081
 H 0.3302 0.8947 0.2121   0.08348
 H 0.2705 0.7814 0.1697   0.118959
 H 0.89 0.8508 0.1609   0.113657
 H 0.9504 0.9663 0.2024   0.092579
 H 0.2712 0.7314 0.9869   0.081307
 H 0.4487 0.7243 0.0462   0.123578
 H 0.6943 0.726 0.9146   0.145593
 H 0.5106 0.7382 0.8594   0.065298
 H 0.8441 0.7766 0.9785   0.112481
 H 0.0221 0.7792 0.0402   0.123774
 H 0.8019 0.6632 0.1481   0.11419
 H 0.6251 0.6614 0.0862   0.099929
 H 0.8508 0.0974 0.9846   0.089941
 H 0.8763 0.000599999999999 0.9183   0.090494
 H 0.7973 0.4511 0.0293   0.099828
 H 0.1998 0.4461 0.0287   0.094346
 H 0.8031 0.2088 0.2573   0.076003
 H 0.7534 0.1048 0.3081   0.141127
 H 0.6073 0.0046 0.1697   0.128782
 H 0.6562 0.1123 0.1227   0.084698
 H 0.6372 0.0162 0.3529   0.099453
 H 0.5737 0.9086 0.3979   0.114198
 H 0.5864 0.7887 0.2525   0.119745
 H 0.6485 0.8969 0.2077   0.098168
 H 0.9074 0.4156 0.1705   0.060368
 H 0.8536 0.5243 0.2195   0.110287
 H 0.5305 0.4179 0.2782   0.121309
 H 0.5945 0.3118 0.227   0.062081
 H 0.8302 0.6053 0.2879   0.08348
 H 0.7705 0.7186 0.3303   0.11896
 H 0.39 0.6492 0.3391   0.113658
 H 0.4504 0.5337 0.2976   0.092579
 H 0.7712 0.7686 0.5131   0.081307
 H 0.9487 0.7757 0.4538   0.123578
 H 0.1943 0.774 0.5854   0.145593
 H 0.0106 0.7618 0.6406   0.065298
 H 0.3441 0.7234 0.5215   0.112481
 H 0.5221 0.7208 0.4598   0.123774
 H 0.3019 0.8368 0.3519   0.11419
 H 0.1251 0.8386 0.4138   0.09993
 C 0.528 0.6241 0.58264   0.655488
 C 0.5151 0.56001 0.53956   -0.119778
 C 0.5884 0.55831 0.49099   -0.078058
 C 0.574 0.5 0.45122   -0.067397
 C 0.5054 0.87238 0.57404   0.645379
 C 0.6207 0.97059 0.51747   -0.079596
 C 0.5018 0.93763 0.53469   -0.117122
 C 0.3809 0.96749 0.51723   -0.058957
 C 0.737 0.66704 0.73902   0.167284
 C 0.7657 0.60409 0.76999   -0.195218
 C 0.8228 0.53967 0.74444   0.123834
 C 0.852 0.54544 0.6888   -0.211513
 C 0.822 0.61076 0.66043   0.182173
 C 0.8539 0.46947 0.77487   -0.045557
 C 0.8742 0.47074 0.83241   -0.04236
 C 0.9109 0.40604 0.85958   -0.180387
 C 0.9251 0.33702 0.83019   0.172921
 C 0.9036 0.33439 0.77288   -0.194951
 C 0.8674 0.3996 0.74606   -0.070754
 C 0.6712 0.9163 0.69174   0.180294
 C 0.7023 0.98199 0.72165   -0.213983
 C 0.8165 0.98599 0.75513   0.123475
 C 0.8924 0.9195 0.75623   -0.176603
 C 0.8534 0.85562 0.72456   0.170597
 C 0.8539 0.05694 0.78596   -0.01035
 C 0.7595 0.11379 0.79746   -0.065766
 C 0.7954 0.18212 0.8226   -0.18641
 C 0.9273 0.19764 0.83668   0.180383
 C 0.0212 0.14095 0.82809   -0.18878
 C 0.9846 0.07141 0.80302   -0.04845
 C 0.6422 0.2688 0.02804   0.189551
 C 0.5356 0.2738 0.99202   -0.229101
 C 0.4047 0.27606 0.01195   0.124906
 C 0.391 0.2722 0.06931   -0.192283
 C 0.5025 0.2656 0.10232   0.148657
 C 0.2864 0.27888 0.97403   -0.006148
 C 0.1658 0.2455 0.98691   -0.0438
 C 0.0586 0.2438 0.94994   -0.15964
 C 0.0717 0.27624 0.89843   0.163874
 C 0.1896 0.3127 0.88573   -0.178289
 C 0.2955 0.3138 0.92303   -0.08609
 C 0.028 0.8759 0.91736   0.655488
 C 0.0151 0.93999 0.96044   -0.119778
 C 0.0884 0.94169 0.00901   -0.078058
 C 0.074 0.0 0.04878   -0.067398
 C 0.0054 0.62762 0.92596   0.645379
 C 0.1207 0.52941 0.98253   -0.079597
 C 0.0018 0.56237 0.96531   -0.117122
 C 0.8809 0.53251 0.98277   -0.058957
 C 0.237 0.83296 0.76098   0.167284
 C 0.2657 0.89591 0.73001   -0.195218
 C 0.3228 0.96033 0.75556   0.123834
 C 0.352 0.95456 0.8112   -0.211513
 C 0.322 0.88924 0.83957   0.182173
 C 0.3539 0.03053 0.72513   -0.045557
 C 0.3742 0.02926 0.66759   -0.04236
 C 0.4109 0.09396 0.64042   -0.180388
 C 0.4251 0.16298 0.66981   0.172922
 C 0.4036 0.16561 0.72712   -0.194951
 C 0.3674 0.1004 0.75394   -0.070754
 C 0.1712 0.5837 0.80826   0.180294
 C 0.2023 0.51801 0.77835   -0.213983
 C 0.3165 0.51401 0.74487   0.123476
 C 0.3924 0.5805 0.74377   -0.176603
 C 0.3534 0.64438 0.77544   0.170597
 C 0.3539 0.44306 0.71404   -0.01035
 C 0.2595 0.38621 0.70254   -0.065766
 C 0.2954 0.31788 0.6774   -0.18641
 C 0.4273 0.30236 0.66332   0.180383
 C 0.5212 0.35905 0.67191   -0.18878
 C 0.4846 0.42859 0.69698   -0.04845
 C 0.1422 0.2312 0.47196   0.189551
 C 0.0356 0.2262 0.50798   -0.229101
 C 0.9047 0.22394 0.48805   0.124905
 C 0.891 0.2278 0.43069   -0.192283
 C 0.0025 0.2344 0.39768   0.148657
 C 0.7864 0.22112 0.52597   -0.006147
 C 0.6658 0.2545 0.51309   -0.0438
 C 0.5586 0.2562 0.55006   -0.15964
 C 0.5717 0.22376 0.60157   0.163874
 C 0.6896 0.1873 0.61427   -0.178289
 C 0.7955 0.1862 0.57697   -0.08609
 C 0.472 0.3759 0.41736   0.655488
 C 0.4849 0.43999 0.46044   -0.119781
 C 0.4116 0.44169 0.50901   -0.078057
 C 0.426 0.5 0.54878   -0.0674
 C 0.4946 0.12762 0.42596   0.645378
 C 0.3793 0.02941 0.48253   -0.079599
 C 0.4982 0.06237 0.46531   -0.117121
 C 0.6191 0.03251 0.48277   -0.05896
 C 0.263 0.33296 0.26098   0.167284
 C 0.2343 0.39591 0.23001   -0.195218
 C 0.1772 0.46033 0.25556   0.123834
 C 0.148 0.45456 0.3112   -0.211513
 C 0.178 0.38924 0.33957   0.182174
 C 0.1461 0.53053 0.22513   -0.045557
 C 0.1258 0.52926 0.16759   -0.04236
 C 0.0891 0.59396 0.14042   -0.180387
 C 0.0749 0.66298 0.16981   0.172921
 C 0.0964 0.66561 0.22712   -0.194951
 C 0.1326 0.6004 0.25394   -0.070754
 C 0.3288 0.0837 0.30826   0.180294
 C 0.2977 0.01801 0.27835   -0.213983
 C 0.1835 0.01401 0.24487   0.123475
 C 0.1076 0.0805 0.24377   -0.176603
 C 0.1466 0.14438 0.27544   0.170597
 C 0.1461 0.94306 0.21404   -0.01035
 C 0.2405 0.88621 0.20254   -0.065766
 C 0.2046 0.81788 0.1774   -0.18641
 C 0.0727 0.80236 0.16332   0.180383
 C 0.9788 0.85905 0.17191   -0.188781
 C 0.0154 0.92859 0.19698   -0.04845
 C 0.3578 0.7312 0.97196   0.189551
 C 0.4644 0.7262 0.00798   -0.229101
 C 0.5953 0.72394 0.98805   0.124906
 C 0.609 0.7278 0.93069   -0.192283
 C 0.4975 0.7344 0.89768   0.148657
 C 0.7136 0.72112 0.02597   -0.006148
 C 0.8342 0.7545 0.01309   -0.0438
 C 0.9414 0.7562 0.05006   -0.159641
 C 0.9283 0.72376 0.10157   0.163874
 C 0.8104 0.6873 0.11427   -0.178289
 C 0.7045 0.6862 0.07697   -0.08609
 C 0.972 0.1241 0.08264   0.655488
 C 0.9849 0.06001 0.03956   -0.119781
 C 0.9116 0.05831 0.99099   -0.078057
 C 0.926 0.0 0.95122   -0.067401
 C 0.9946 0.37238 0.07404   0.645378
 C 0.8793 0.47059 0.01747   -0.0796
 C 0.9982 0.43763 0.03469   -0.117121
 C 0.1191 0.46749 0.01723   -0.05896
 C 0.763 0.16704 0.23902   0.167284
 C 0.7343 0.10409 0.26999   -0.195218
 C 0.6772 0.03967 0.24444   0.123834
 C 0.648 0.04544 0.1888   -0.211513
 C 0.678 0.11076 0.16043   0.182174
 C 0.6461 0.96947 0.27487   -0.045557
 C 0.6258 0.97074 0.33241   -0.04236
 C 0.5891 0.90604 0.35958   -0.180388
 C 0.5749 0.83702 0.33019   0.172922
 C 0.5964 0.83439 0.27288   -0.194951
 C 0.6326 0.8996 0.24606   -0.070754
 C 0.8288 0.4163 0.19174   0.180294
 C 0.7977 0.48199 0.22165   -0.213983
 C 0.6835 0.48599 0.25513   0.123476
 C 0.6076 0.4195 0.25623   -0.176603
 C 0.6466 0.35562 0.22456   0.170597
 C 0.6461 0.55694 0.28596   -0.01035
 C 0.7405 0.61379 0.29746   -0.065766
 C 0.7046 0.68212 0.3226   -0.18641
 C 0.5727 0.69764 0.33668   0.180383
 C 0.4788 0.64095 0.32809   -0.188781
 C 0.5154 0.57141 0.30302   -0.04845
 C 0.8578 0.7688 0.52804   0.189551
 C 0.9644 0.7738 0.49202   -0.229101
 C 0.0953 0.77606 0.51195   0.124905
 C 0.109 0.7722 0.56931   -0.192283
 C 0.9975 0.7656 0.60232   0.148657
 C 0.2136 0.77888 0.47403   -0.006147
 C 0.3342 0.7455 0.48691   -0.043801
 C 0.4414 0.7438 0.44994   -0.159641
 C 0.4283 0.77624 0.39843   0.163874
 C 0.3104 0.8127 0.38573   -0.178289
 C 0.2045 0.8138 0.42303   -0.086091
 N 0.7632 0.67169 0.68484   -0.376366
 N 0.7474 0.85285 0.69124   -0.380219
 N 0.6289 0.26417 0.08316   -0.330209
 N 0.9634 0.27064 0.85892   -0.163919
 N 0.2632 0.82831 0.81516   -0.376366
 N 0.2474 0.64715 0.80876   -0.380219
 N 0.1289 0.23583 0.41684   -0.330209
 N 0.4634 0.22936 0.64108   -0.163919
 N 0.2368 0.32831 0.31516   -0.376366
 N 0.2526 0.14715 0.30876   -0.380219
 N 0.3711 0.73583 0.91684   -0.330209
 N 0.0366 0.72936 0.14108   -0.163919
 N 0.7368 0.17169 0.18484   -0.376366
 N 0.7526 0.35285 0.19124   -0.380219
 N 0.8711 0.76417 0.58316   -0.330209
 N 0.5366 0.77064 0.35892   -0.163919
 O 0.4443 0.62746 0.62094   -0.621147
 O 0.6233 0.67068 0.57623   -0.60823
 O 0.61671 0.83927 0.57842   -0.587717
 O 0.40107 0.85768 0.60109   -0.619488
 O 0.9443 0.87254 0.87906   -0.621147
 O 0.1233 0.82932 0.92377   -0.60823
 O 0.11671 0.66073 0.92158   -0.587717
 O 0.90107 0.64232 0.89891   -0.619488
 O 0.5557 0.37254 0.37906   -0.621147
 O 0.3767 0.32932 0.42377   -0.60823
 O 0.38329 0.16073 0.42158   -0.587717
 O 0.59893 0.14232 0.39891   -0.619488
 O 0.0557 0.12746 0.12094   -0.621147
 O 0.8767 0.17068 0.07623   -0.60823
 O 0.88329 0.33927 0.07842   -0.587717
 O 0.09893 0.35768 0.10109   -0.619488
