{'_ref': 'TBD', '_srcid': 'CAKYAQ_clean', 'submitters': [{'name': 'Dalar Nazarian Jeff Camp and David Sholl', 'email': 'dalar@gatech.edu jcamp6@gatech.edu'}], '_method': 'VASP DFT with PBE;DDEC'}
data_Zn4H28C28N8O5
_symmetry_space_group_name_H-M   'P 1'
_cell_length_a   11.55850000
_cell_length_b   11.55850000
_cell_length_c   25.81900000
_cell_angle_alpha   90.00000000
_cell_angle_beta   90.00000000
_cell_angle_gamma   90.00000000
_symmetry_Int_Tables_number   1
_chemical_formula_structural   Zn4H28C28N8O5
_chemical_formula_sum   'Zn8 H56 C56 N16 O10'
_cell_volume   3449.39057357
_cell_formula_units_Z   2
loop_
 _symmetry_equiv_pos_site_id
 _symmetry_equiv_pos_as_xyz
  1  'x, y, z'
loop_
 _atom_site_label
 _atom_site_fract_x
 _atom_site_fract_y
 _atom_site_fract_z
 _atom_site_charge
 Zn 0.90122 0.09878 0.79186   0.871992
 Zn 0.09878 0.90122 0.79186   0.871992
 Zn 0.90122 0.90122 0.29186   0.871992
 Zn 0.09878 0.09878 0.29186   0.871992
 Zn 0.09878 0.09878 0.70814   0.871992
 Zn 0.90122 0.90122 0.70814   0.871993
 Zn 0.09878 0.90122 0.20814   0.871992
 Zn 0.90122 0.09878 0.20814   0.871993
 H 0.6793 0.1761 0.8397   0.116521
 H 0.562 0.2097 0.8104   0.127098
 H 0.5629 0.1055 0.8512   0.129225
 H 0.3207 0.8239 0.8397   0.116521
 H 0.438 0.7903 0.8104   0.127098
 H 0.4371 0.8945 0.8512   0.129225
 H 0.8239 0.6793 0.3397   0.116521
 H 0.7903 0.562 0.3104   0.127098
 H 0.8945 0.5629 0.3512   0.129225
 H 0.1761 0.3207 0.3397   0.116521
 H 0.2097 0.438 0.3104   0.127098
 H 0.1055 0.4371 0.3512   0.129225
 H 0.3207 0.1761 0.6603   0.11652
 H 0.438 0.2097 0.6896   0.127099
 H 0.4371 0.1055 0.6488   0.129225
 H 0.6793 0.8239 0.6603   0.116521
 H 0.562 0.7903 0.6896   0.127099
 H 0.5629 0.8945 0.6488   0.129225
 H 0.1761 0.6793 0.1603   0.11652
 H 0.2097 0.562 0.1896   0.127099
 H 0.1055 0.5629 0.1488   0.129225
 H 0.8239 0.3207 0.1603   0.116521
 H 0.7903 0.438 0.1896   0.127099
 H 0.8945 0.4371 0.1488   0.129225
 H 0.3207 0.8239 0.1603   0.11652
 H 0.438 0.7903 0.1896   0.127099
 H 0.4371 0.8945 0.1488   0.129226
 H 0.6793 0.1761 0.1603   0.11652
 H 0.562 0.2097 0.1896   0.127099
 H 0.5629 0.1055 0.1488   0.129226
 H 0.1761 0.3207 0.6603   0.11652
 H 0.2097 0.438 0.6896   0.127099
 H 0.1055 0.4371 0.6488   0.129226
 H 0.8239 0.6793 0.6603   0.11652
 H 0.7903 0.562 0.6896   0.127099
 H 0.8945 0.5629 0.6488   0.129226
 H 0.6793 0.8239 0.3397   0.11652
 H 0.562 0.7903 0.3104   0.127099
 H 0.5629 0.8945 0.3512   0.129226
 H 0.3207 0.1761 0.3397   0.11652
 H 0.438 0.2097 0.3104   0.1271
 H 0.4371 0.1055 0.3512   0.129226
 H 0.8239 0.3207 0.8397   0.11652
 H 0.7903 0.438 0.8104   0.127099
 H 0.8945 0.4371 0.8512   0.129226
 H 0.1761 0.6793 0.8397   0.11652
 H 0.2097 0.562 0.8104   0.1271
 H 0.1055 0.5629 0.8512   0.129226
 H 0.8763 0.1237 0.9556   0.102255
 H 0.1237 0.8763 0.9556   0.102255
 H 0.8763 0.8763 0.4556   0.102255
 H 0.1237 0.1237 0.4556   0.102255
 H 0.1237 0.1237 0.5444   0.102247
 H 0.8763 0.8763 0.5444   0.102247
 H 0.1237 0.8763 0.0444   0.102247
 H 0.8763 0.1237 0.0444   0.102247
 C 0.6368 0.0633 0.78219   0.235346
 C 0.6078 0.1457 0.8245   -0.36806
 C 0.3632 0.9367 0.78219   0.235346
 C 0.3922 0.8543 0.8245   -0.36806
 C 0.9367 0.6368 0.28219   0.235346
 C 0.8543 0.6078 0.3245   -0.36806
 C 0.0633 0.3632 0.28219   0.235346
 C 0.1457 0.3922 0.3245   -0.36806
 C 0.3632 0.0633 0.71781   0.235344
 C 0.3922 0.1457 0.6755   -0.36806
 C 0.6368 0.9367 0.71781   0.235344
 C 0.6078 0.8543 0.6755   -0.368061
 C 0.0633 0.6368 0.21781   0.235344
 C 0.1457 0.6078 0.1755   -0.36806
 C 0.9367 0.3632 0.21781   0.235344
 C 0.8543 0.3922 0.1755   -0.368061
 C 0.3632 0.9367 0.21781   0.235346
 C 0.3922 0.8543 0.1755   -0.368061
 C 0.6368 0.0633 0.21781   0.235346
 C 0.6078 0.1457 0.1755   -0.368061
 C 0.0633 0.3632 0.71781   0.235346
 C 0.1457 0.3922 0.6755   -0.368061
 C 0.9367 0.6368 0.71781   0.235346
 C 0.8543 0.6078 0.6755   -0.368061
 C 0.6368 0.9367 0.28219   0.235344
 C 0.6078 0.8543 0.3245   -0.368061
 C 0.3632 0.0633 0.28219   0.235344
 C 0.3922 0.1457 0.3245   -0.368061
 C 0.9367 0.3632 0.78219   0.235344
 C 0.8543 0.3922 0.8245   -0.368061
 C 0.0633 0.6368 0.78219   0.235344
 C 0.1457 0.6078 0.8245   -0.368061
 C 0.9282 0.0718 0.9739   -0.061925
 C 0.0718 0.9282 0.9739   -0.061924
 C 0.9282 0.9282 0.4739   -0.061925
 C 0.0718 0.0718 0.4739   -0.061924
 C 0.0718 0.0718 0.5261   -0.061854
 C 0.9282 0.9282 0.5261   -0.061854
 C 0.0718 0.9282 0.0261   -0.061854
 C 0.9282 0.0718 0.0261   -0.061854
 C 0.0 0.0 0.8882   0.690814
 C 0.0 0.0 0.9455   -0.111777
 C 0.0 0.0 0.3882   0.690814
 C 0.0 0.0 0.4455   -0.111777
 C 0.0 0.0 0.6118   0.690818
 C 0.0 0.0 0.5545   -0.111804
 C 0.0 0.0 0.1118   0.690818
 C 0.0 0.0 0.0545   -0.111804
 C 0.5638 0.0 0.75   -0.192611
 C 0.4362 0.0 0.75   -0.192611
 C 0.0 0.5638 0.25   -0.192611
 C 0.0 0.4362 0.25   -0.192611
 C 0.4362 0.0 0.25   -0.192611
 C 0.5638 0.0 0.25   -0.192611
 C 0.0 0.4362 0.75   -0.192611
 C 0.0 0.5638 0.75   -0.192611
 N 0.7476 0.0395 0.77   -0.3258
 N 0.2524 0.9605 0.77   -0.3258
 N 0.9605 0.7476 0.27   -0.3258
 N 0.0395 0.2524 0.27   -0.3258
 N 0.2524 0.0395 0.73   -0.325789
 N 0.7476 0.9605 0.73   -0.325789
 N 0.0395 0.7476 0.23   -0.325789
 N 0.9605 0.2524 0.23   -0.325789
 N 0.2524 0.9605 0.23   -0.3258
 N 0.7476 0.0395 0.23   -0.3258
 N 0.0395 0.2524 0.73   -0.3258
 N 0.9605 0.7476 0.73   -0.3258
 N 0.7476 0.9605 0.27   -0.325788
 N 0.2524 0.0395 0.27   -0.325789
 N 0.9605 0.2524 0.77   -0.325788
 N 0.0395 0.7476 0.77   -0.325789
 O 0.9308 0.0692 0.86526   -0.594641
 O 0.0692 0.9308 0.86526   -0.594641
 O 0.9308 0.9308 0.36526   -0.594641
 O 0.0692 0.0692 0.36526   -0.594641
 O 0.0692 0.0692 0.63474   -0.594642
 O 0.9308 0.9308 0.63474   -0.594642
 O 0.0692 0.9308 0.13474   -0.594642
 O 0.9308 0.0692 0.13474   -0.594642
 O 0.0 0.0 0.75   -0.973132
 O 0.0 0.0 0.25   -0.973132
