{'_ref': 'TBD', '_srcid': 'CAKYAQ_clean', 'submitters': [{'name': 'Dalar Nazarian Jeff Camp and David Sholl', 'email': 'dalar@gatech.edu jcamp6@gatech.edu'}], '_method': 'VASP DFT with PBE;DDEC'}
data_Sr2Cu(CO2)6
_symmetry_space_group_name_H-M   'P 1'
_cell_length_a   6.34900023
_cell_length_b   10.25800014
_cell_length_c   15.73700000
_cell_angle_alpha   106.78999869
_cell_angle_beta   93.65999692
_cell_angle_gamma   103.56000276
_symmetry_Int_Tables_number   1
_chemical_formula_structural   Sr2Cu(CO2)6
_chemical_formula_sum   'Sr4 Cu2 C12 O24'
_cell_volume   944.296902029
_cell_formula_units_Z   2
loop_
 _symmetry_equiv_pos_site_id
 _symmetry_equiv_pos_as_xyz
  1  'x, y, z'
loop_
 _atom_site_label
 _atom_site_fract_x
 _atom_site_fract_y
 _atom_site_fract_z
 _atom_site_charge
 Sr 0.98654 0.0778 0.6496   1.581281
 Sr 0.69404 0.73254 0.73627   1.704349
 Sr 0.01346 0.9222 0.3504   1.581281
 Sr 0.30596 0.26746 0.26373   1.70436
 Cu 0.0 0.5 0.0   0.857297
 Cu 0.5 0.5 0.5   0.805919
 C 0.0531 0.27622 0.87179   0.524763
 C 0.9013 0.34039 0.82748   0.54468
 C 0.75657 0.73863 0.48926   0.592286
 C 0.68485 0.63713 0.39236   0.550608
 C 0.43078 0.95431 0.67876   0.586855
 C 0.24872 0.84944 0.70655   0.623434
 C 0.9469 0.72378 0.12821   0.524763
 C 0.0987 0.65961 0.17252   0.54468
 C 0.24343 0.26137 0.51074   0.592286
 C 0.31515 0.36287 0.60764   0.550608
 C 0.56922 0.04569 0.32124   0.586855
 C 0.75128 0.15056 0.29345   0.623435
 O 0.1166 0.33612 0.95527   -0.543303
 O 0.8536 0.44692 0.87829   -0.566201
 O 0.1089 0.17357 0.82502   -0.577206
 O 0.84241 0.29265 0.74643   -0.571576
 O 0.69208 0.68844 0.55037   -0.629505
 O 0.43458 0.48536 0.6155   -0.673529
 O 0.86897 0.861 0.49966   -0.623267
 O 0.74638 0.67605 0.32857   -0.524876
 O 0.29973 0.7517 0.72677   -0.709284
 O 0.62225 0.94424 0.68984   -0.751217
 O 0.3688 0.03904 0.64617   -0.611536
 O 0.06231 0.87119 0.70602   -0.758369
 O 0.8834 0.66388 0.04473   -0.543303
 O 0.1464 0.55308 0.12171   -0.566201
 O 0.8911 0.82643 0.17498   -0.577206
 O 0.15759 0.70735 0.25357   -0.571577
 O 0.30792 0.31156 0.44963   -0.629505
 O 0.56542 0.51464 0.3845   -0.67353
 O 0.13103 0.139 0.50034   -0.623267
 O 0.25362 0.32395 0.67143   -0.524877
 O 0.70027 0.2483 0.27323   -0.709285
 O 0.37775 0.05576 0.31016   -0.751217
 O 0.6312 0.96096 0.35383   -0.611536
 O 0.93769 0.12881 0.29398   -0.758369
