{'_ref': 'TBD', '_srcid': 'CAKYAQ_clean', 'submitters': [{'name': 'Dalar Nazarian Jeff Camp and David Sholl', 'email': 'dalar@gatech.edu jcamp6@gatech.edu'}], '_method': 'VASP DFT with PBE;DDEC'}
data_Cd3(C4N3)2
_symmetry_space_group_name_H-M   'P 1'
_cell_length_a   8.69400000
_cell_length_b   11.21200000
_cell_length_c   13.48300000
_cell_angle_alpha   90.00000000
_cell_angle_beta   90.00000000
_cell_angle_gamma   90.00000000
_symmetry_Int_Tables_number   1
_chemical_formula_structural   Cd3(C4N3)2
_chemical_formula_sum   'Cd6 C16 N12'
_cell_volume   1314.28411682
_cell_formula_units_Z   2
loop_
 _symmetry_equiv_pos_site_id
 _symmetry_equiv_pos_as_xyz
  1  'x, y, z'
loop_
 _atom_site_label
 _atom_site_fract_x
 _atom_site_fract_y
 _atom_site_fract_z
 _atom_site_charge
 Cd 0.0 0.76624 0.0   0.981029
 Cd 0.5 0.23376 0.5   0.981029
 Cd 0.5 0.06788 0.10077   0.612229
 Cd 0.5 0.48572 0.86754   0.632576
 Cd 0.0 0.93212 0.60077   0.612234
 Cd 0.0 0.51428 0.36754   0.632581
 C 0.7073 0.9608 0.0612   -0.028758
 C 0.7067 0.58 0.9183   -0.041225
 C 0.7927 0.0392 0.5612   -0.028758
 C 0.7933 0.42 0.4183   -0.041225
 C 0.2073 0.0392 0.5612   -0.028758
 C 0.2067 0.42 0.4183   -0.041225
 C 0.2927 0.9608 0.0612   -0.028757
 C 0.2933 0.58 0.9183   -0.041224
 C 0.0 0.8765 0.758   -0.029091
 C 0.0 0.6235 0.2309   -0.040273
 C 0.5 0.1235 0.258   -0.029091
 C 0.5 0.3765 0.7309   -0.040273
 C 0.5 0.2391 0.0173   -0.189115
 C 0.5 0.3272 0.9757   -0.111689
 C 0.0 0.7609 0.5173   -0.189116
 C 0.0 0.6728 0.4757   -0.111689
 N 0.8077 0.8992 0.0419   -0.289743
 N 0.8075 0.6321 0.9493   -0.279741
 N 0.6923 0.1008 0.5419   -0.289743
 N 0.6925 0.3679 0.4493   -0.279741
 N 0.3077 0.1008 0.5419   -0.289743
 N 0.3075 0.3679 0.4493   -0.279741
 N 0.1923 0.8992 0.0419   -0.289743
 N 0.1925 0.6321 0.9493   -0.279741
 N 0.0 0.8421 0.8383   -0.290159
 N 0.0 0.6775 0.1583   -0.286578
 N 0.5 0.1579 0.3383   -0.290159
 N 0.5 0.3225 0.6583   -0.286578
