{'_ref': 'TBD', '_srcid': 'CAKYAQ_clean', 'submitters': [{'name': 'Dalar Nazarian Jeff Camp and David Sholl', 'email': 'dalar@gatech.edu jcamp6@gatech.edu'}], '_method': 'VASP DFT with PBE;DDEC'}
data_Cd3(C4N3)2
_symmetry_space_group_name_H-M   'P 1'
_cell_length_a   8.77500000
_cell_length_b   8.77500007
_cell_length_c   20.54600000
_cell_angle_alpha   90.00000000
_cell_angle_beta   90.00000000
_cell_angle_gamma   119.99999973
_symmetry_Int_Tables_number   1
_chemical_formula_structural   Cd3(C4N3)2
_chemical_formula_sum   'Cd6 C16 N12'
_cell_volume   1370.09969745
_cell_formula_units_Z   2
loop_
 _symmetry_equiv_pos_site_id
 _symmetry_equiv_pos_as_xyz
  1  'x, y, z'
loop_
 _atom_site_label
 _atom_site_fract_x
 _atom_site_fract_y
 _atom_site_fract_z
 _atom_site_charge
 Cd 0.0 0.0 0.0   1.000612
 Cd 0.0 0.0 0.5   1.000612
 Cd 0.66667 0.33334 0.8864   0.615493
 Cd 0.33333 0.66666 0.3864   0.615493
 Cd 0.33333 0.66666 0.1136   0.615485
 Cd 0.66667 0.33334 0.6136   0.615485
 C 0.66667 0.33334 0.775   -0.18064
 C 0.33333 0.66666 0.275   -0.18064
 C 0.33333 0.66666 0.225   -0.180567
 C 0.66667 0.33334 0.725   -0.180567
 C 0.805 0.195 0.9186   -0.024577
 C 0.39 0.195 0.9186   -0.024577
 C 0.805 0.61 0.9186   -0.024628
 C 0.195 0.805 0.4186   -0.024577
 C 0.61 0.805 0.4186   -0.024577
 C 0.195 0.39 0.4186   -0.024628
 C 0.61 0.805 0.0814   -0.024575
 C 0.195 0.805 0.0814   -0.024574
 C 0.195 0.39 0.0814   -0.024626
 C 0.39 0.195 0.5814   -0.024575
 C 0.805 0.195 0.5814   -0.024574
 C 0.805 0.61 0.5814   -0.024626
 N 0.8774 0.1226 0.9349   -0.287148
 N 0.2452 0.1226 0.9349   -0.287148
 N 0.8774 0.7548 0.9349   -0.287118
 N 0.1226 0.8774 0.4349   -0.287148
 N 0.7548 0.8774 0.4349   -0.287148
 N 0.1226 0.2452 0.4349   -0.287118
 N 0.7548 0.8774 0.0651   -0.287148
 N 0.1226 0.8774 0.0651   -0.287148
 N 0.1226 0.2452 0.0651   -0.287118
 N 0.2452 0.1226 0.5651   -0.287148
 N 0.8774 0.1226 0.5651   -0.287148
 N 0.8774 0.7548 0.5651   -0.287118
