{'_ref': 'TBD', '_srcid': 'CAKYAQ_clean', 'submitters': [{'name': 'Dalar Nazarian Jeff Camp and David Sholl', 'email': 'dalar@gatech.edu jcamp6@gatech.edu'}], '_method': 'VASP DFT with PBE;DDEC'}
data_CeH12C28(SO6)2
_symmetry_space_group_name_H-M   'P 1'
_cell_length_a   17.57570024
_cell_length_b   17.57570009
_cell_length_c   17.57570000
_cell_angle_alpha   90.92960047
_cell_angle_beta   90.92960047
_cell_angle_gamma   90.92959944
_symmetry_Int_Tables_number   1
_chemical_formula_structural   CeH12C28(SO6)2
_chemical_formula_sum   'Ce3 H36 C84 S6 O36'
_cell_volume   5427.05857162
_cell_formula_units_Z   3
loop_
 _symmetry_equiv_pos_site_id
 _symmetry_equiv_pos_as_xyz
  1  'x, y, z'
loop_
 _atom_site_label
 _atom_site_fract_x
 _atom_site_fract_y
 _atom_site_fract_z
 _atom_site_charge
 Ce 0.36705 0.36705 0.36705   2.188526
 Ce 0.63295 0.63295 0.63295   2.188526
 Ce 0.5 0.5 0.5   2.131001
 H 0.382 0.5362 0.2328   0.123934
 H 0.3811 0.5735 0.1067   0.134143
 H 0.6107 0.5411 0.2371   0.123977
 H 0.4026 0.6143 0.9673   0.136923
 H 0.6633 0.6256 0.9164   0.129341
 H 0.4456 0.6368 0.8475   0.117518
 H 0.2328 0.382 0.5362   0.123934
 H 0.1067 0.3811 0.5735   0.134143
 H 0.2371 0.6107 0.5411   0.123977
 H 0.9673 0.4026 0.6143   0.136923
 H 0.9164 0.6633 0.6256   0.129341
 H 0.8475 0.4456 0.6368   0.117518
 H 0.5362 0.2328 0.382   0.123934
 H 0.5735 0.1067 0.3811   0.134143
 H 0.5411 0.2371 0.6107   0.123977
 H 0.6143 0.9673 0.4026   0.136923
 H 0.6256 0.9164 0.6633   0.129341
 H 0.6368 0.8475 0.4456   0.117518
 H 0.618 0.4638 0.7672   0.123934
 H 0.6189 0.4265 0.8933   0.134143
 H 0.3893 0.4589 0.7629   0.123977
 H 0.5974 0.3857 0.0327   0.136923
 H 0.3367 0.3744 0.0836   0.129341
 H 0.5544 0.3632 0.1525   0.117518
 H 0.7672 0.618 0.4638   0.123934
 H 0.8933 0.6189 0.4265   0.134143
 H 0.7629 0.3893 0.4589   0.123977
 H 0.0327 0.5974 0.3857   0.136923
 H 0.0836 0.3367 0.3744   0.129341
 H 0.1525 0.5544 0.3632   0.117518
 H 0.4638 0.7672 0.618   0.123934
 H 0.4265 0.8933 0.6189   0.134143
 H 0.4589 0.7629 0.3893   0.123977
 H 0.3857 0.0327 0.5974   0.136923
 H 0.3744 0.0836 0.3367   0.129341
 H 0.3632 0.1525 0.5544   0.117518
 C 0.4976 0.5114 0.3283   0.685718
 C 0.4953 0.5344 0.2479   -0.099807
 C 0.4279 0.5447 0.2084   -0.00833
 C 0.427 0.5671 0.1329   -0.106806
 C 0.5648 0.5484 0.2115   0.029017
 C 0.5641 0.5731 0.1374   -0.219032
 C 0.4962 0.5803 0.097   0.072562
 C 0.5094 0.6016 0.0163   0.069286
 C 0.5857 0.6074 0.9996   -0.21844
 C 0.4544 0.6152 0.9575   -0.105981
 C 0.6115 0.6226 0.9262   0.018127
 C 0.4809 0.6294 0.8865   -0.0188
 C 0.5585 0.6331 0.8691   -0.093595
 C 0.5831 0.6432 0.7885   0.622898
 C 0.3283 0.4976 0.5114   0.685718
 C 0.2479 0.4953 0.5344   -0.099807
 C 0.2084 0.4279 0.5447   -0.00833
 C 0.1329 0.427 0.5671   -0.106806
 C 0.2115 0.5648 0.5484   0.029017
 C 0.1374 0.5641 0.5731   -0.219031
 C 0.097 0.4962 0.5803   0.072562
 C 0.0163 0.5094 0.6016   0.069286
 C 0.9996 0.5857 0.6074   -0.21844
 C 0.9575 0.4544 0.6152   -0.105981
 C 0.9262 0.6115 0.6226   0.018127
 C 0.8865 0.4809 0.6294   -0.0188
 C 0.8691 0.5585 0.6331   -0.093595
 C 0.7885 0.5831 0.6432   0.622898
 C 0.5114 0.3283 0.4976   0.685718
 C 0.5344 0.2479 0.4953   -0.099807
 C 0.5447 0.2084 0.4279   -0.00833
 C 0.5671 0.1329 0.427   -0.106806
 C 0.5484 0.2115 0.5648   0.029017
 C 0.5731 0.1374 0.5641   -0.219031
 C 0.5803 0.097 0.4962   0.072562
 C 0.6016 0.0163 0.5094   0.069286
 C 0.6074 0.9996 0.5857   -0.21844
 C 0.6152 0.9575 0.4544   -0.105981
 C 0.6226 0.9262 0.6115   0.018127
 C 0.6294 0.8865 0.4809   -0.0188
 C 0.6331 0.8691 0.5585   -0.093595
 C 0.6432 0.7885 0.5831   0.622898
 C 0.5024 0.4886 0.6717   0.685718
 C 0.5047 0.4656 0.7521   -0.099807
 C 0.5721 0.4553 0.7916   -0.00833
 C 0.573 0.4329 0.8671   -0.106806
 C 0.4352 0.4516 0.7885   0.029017
 C 0.4359 0.4269 0.8626   -0.219031
 C 0.5038 0.4197 0.903   0.072562
 C 0.4906 0.3984 0.9837   0.069286
 C 0.4143 0.3926 0.000399999999999   -0.21844
 C 0.5456 0.3848 0.0425   -0.105981
 C 0.3885 0.3774 0.0738   0.018127
 C 0.5191 0.3706 0.1135   -0.0188
 C 0.4415 0.3669 0.1309   -0.093595
 C 0.4169 0.3568 0.2115   0.622898
 C 0.6717 0.5024 0.4886   0.685718
 C 0.7521 0.5047 0.4656   -0.099807
 C 0.7916 0.5721 0.4553   -0.00833
 C 0.8671 0.573 0.4329   -0.106806
 C 0.7885 0.4352 0.4516   0.029017
 C 0.8626 0.4359 0.4269   -0.219031
 C 0.903 0.5038 0.4197   0.072562
 C 0.9837 0.4906 0.3984   0.069286
 C 0.000399999999999 0.4143 0.3926   -0.21844
 C 0.0425 0.5456 0.3848   -0.105981
 C 0.0738 0.3885 0.3774   0.018127
 C 0.1135 0.5191 0.3706   -0.0188
 C 0.1309 0.4415 0.3669   -0.093595
 C 0.2115 0.4169 0.3568   0.622898
 C 0.4886 0.6717 0.5024   0.685718
 C 0.4656 0.7521 0.5047   -0.099807
 C 0.4553 0.7916 0.5721   -0.00833
 C 0.4329 0.8671 0.573   -0.106806
 C 0.4516 0.7885 0.4352   0.029017
 C 0.4269 0.8626 0.4359   -0.219031
 C 0.4197 0.903 0.5038   0.072562
 C 0.3984 0.9837 0.4906   0.069286
 C 0.3926 0.000399999999999 0.4143   -0.21844
 C 0.3848 0.0425 0.5456   -0.105981
 C 0.3774 0.0738 0.3885   0.018127
 C 0.3706 0.1135 0.5191   -0.0188
 C 0.3669 0.1309 0.4415   -0.093595
 C 0.3568 0.2115 0.4169   0.622898
 S 0.64346 0.59021 0.0799   1.118402
 S 0.0799 0.64346 0.59021   1.118402
 S 0.59021 0.0799 0.64346   1.118402
 S 0.35654 0.40979 0.9201   1.118402
 S 0.9201 0.35654 0.40979   1.118402
 S 0.40979 0.9201 0.35654   1.118402
 O 0.55901 0.51021 0.36411   -0.55513
 O 0.43443 0.49113 0.35993   -0.769195
 O 0.65338 0.63758 0.77568   -0.612839
 O 0.53522 0.65422 0.73692   -0.596668
 O 0.6838 0.659 0.107   -0.522754
 O 0.6863 0.5211 0.0684   -0.539145
 O 0.36411 0.55901 0.51021   -0.55513
 O 0.35993 0.43443 0.49113   -0.769195
 O 0.77568 0.65338 0.63758   -0.612839
 O 0.73692 0.53522 0.65422   -0.596668
 O 0.107 0.6838 0.659   -0.522754
 O 0.0684 0.6863 0.5211   -0.539145
 O 0.51021 0.36411 0.55901   -0.55513
 O 0.49113 0.35993 0.43443   -0.769195
 O 0.63758 0.77568 0.65338   -0.612839
 O 0.65422 0.73692 0.53522   -0.596668
 O 0.659 0.107 0.6838   -0.522754
 O 0.5211 0.0684 0.6863   -0.539145
 O 0.44099 0.48979 0.63589   -0.55513
 O 0.56557 0.50887 0.64007   -0.769195
 O 0.34662 0.36242 0.22432   -0.612839
 O 0.46478 0.34578 0.26308   -0.596668
 O 0.3162 0.341 0.893   -0.522754
 O 0.3137 0.4789 0.9316   -0.539145
 O 0.63589 0.44099 0.48979   -0.55513
 O 0.64007 0.56557 0.50887   -0.769195
 O 0.22432 0.34662 0.36242   -0.612839
 O 0.26308 0.46478 0.34578   -0.596668
 O 0.893 0.3162 0.341   -0.522754
 O 0.9316 0.3137 0.4789   -0.539145
 O 0.48979 0.63589 0.44099   -0.55513
 O 0.50887 0.64007 0.56557   -0.769195
 O 0.36242 0.22432 0.34662   -0.612839
 O 0.34578 0.26308 0.46478   -0.596668
 O 0.341 0.893 0.3162   -0.522754
 O 0.4789 0.9316 0.3137   -0.539145
