{'_ref': 'TBD', '_srcid': 'CAKYAQ_clean', 'submitters': [{'name': 'Dalar Nazarian Jeff Camp and David Sholl', 'email': 'dalar@gatech.edu jcamp6@gatech.edu'}], '_method': 'VASP DFT with PBE;DDEC'}
data_Dy2H18C42(SO6)3
_symmetry_space_group_name_H-M   'P 1'
_cell_length_a   12.49960008
_cell_length_b   17.70079990
_cell_length_c   22.38690000
_cell_angle_alpha   79.65699857
_cell_angle_beta   80.45200172
_cell_angle_gamma   81.32600091
_symmetry_Int_Tables_number   1
_chemical_formula_structural   Dy2H18C42(SO6)3
_chemical_formula_sum   'Dy4 H36 C84 S6 O36'
_cell_volume   4767.63727396
_cell_formula_units_Z   2
loop_
 _symmetry_equiv_pos_site_id
 _symmetry_equiv_pos_as_xyz
  1  'x, y, z'
loop_
 _atom_site_label
 _atom_site_fract_x
 _atom_site_fract_y
 _atom_site_fract_z
 _atom_site_charge
 Dy 0.65337 0.02921 0.99792   2.260355
 Dy 0.87118 0.4299 0.51805   2.257633
 Dy 0.34663 0.97079 0.00208   2.260355
 Dy 0.12882 0.5701 0.48195   2.257633
 H 0.7536 0.0073 0.2017   0.108078
 H 0.7116 0.2302 0.1195   0.126392
 H 0.7774 0.0458 0.2915   0.127475
 H 0.7993 0.1086 0.381   0.125364
 H 0.758 0.3785 0.3321   0.116084
 H 0.8206 0.1848 0.4515   0.120957
 H 0.6907 0.8859 0.1253   0.111263
 H 0.4542 0.7466 0.1511   0.115559
 H 0.5303 0.6667 0.2326   0.129317
 H 0.6355 0.5966 0.3176   0.129476
 H 0.7474 0.5514 0.3959   0.10112
 H 0.9311 0.7261 0.3285   0.118746
 H 0.9552 0.6954 0.6366   0.108958
 H 0.7147 0.5604 0.663   0.097311
 H 0.6187 0.6254 0.7423   0.135658
 H 0.542 0.711 0.822   0.121755
 H 0.768 0.8947 0.8302   0.115139
 H 0.4916 0.7993 0.889   0.103956
 H 0.2464 0.9927 0.7983   0.108078
 H 0.2884 0.7698 0.8805   0.12639
 H 0.2226 0.9542 0.7085   0.127475
 H 0.2007 0.8914 0.619   0.125364
 H 0.242 0.6215 0.6679   0.116084
 H 0.1794 0.8152 0.5485   0.120958
 H 0.3093 0.1141 0.8747   0.111263
 H 0.5458 0.2534 0.8489   0.115559
 H 0.4697 0.3333 0.7674   0.129317
 H 0.3645 0.4034 0.6824   0.129476
 H 0.2526 0.4486 0.6041   0.10112
 H 0.0689 0.2739 0.6715   0.118746
 H 0.0448 0.3046 0.3634   0.108958
 H 0.2853 0.4396 0.337   0.097311
 H 0.3813 0.3746 0.2577   0.135659
 H 0.458 0.289 0.178   0.121754
 H 0.232 0.1053 0.1698   0.115139
 H 0.5084 0.2007 0.111   0.103956
 C 0.7241 0.0847 0.0922   0.658163
 C 0.7344 0.1147 0.1508   -0.126345
 C 0.751 0.0596 0.2034   -0.005047
 C 0.7248 0.1933 0.1535   0.024136
 C 0.7356 0.2145 0.2078   -0.209773
 C 0.7635 0.0825 0.2574   -0.118146
 C 0.7549 0.1613 0.2601   0.066113
 C 0.7678 0.1977 0.3132   0.076427
 C 0.7545 0.2783 0.3001   -0.216415
 C 0.7917 0.1623 0.3707   -0.116285
 C 0.7669 0.3248 0.342   0.018786
 C 0.8043 0.2082 0.4129   -0.020435
 C 0.7928 0.2888 0.3983   -0.128709
 C 0.8085 0.3387 0.4449   0.664644
 C 0.5033 0.8759 0.0813   0.804053
 C 0.5633 0.824 0.1293   -0.164267
 C 0.6587 0.8425 0.1455   0.048734
 C 0.5174 0.7585 0.1622   -0.002613
 C 0.5623 0.7097 0.2113   -0.13344
 C 0.7034 0.7926 0.1936   -0.218191
 C 0.6573 0.7295 0.2261   0.06996
 C 0.7186 0.6876 0.2785   0.075612
 C 0.8099 0.7246 0.2819   -0.225306
 C 0.6941 0.622 0.3202   -0.14194
 C 0.7619 0.5949 0.3671   0.009277
 C 0.8732 0.6997 0.3266   0.060014
 C 0.8526 0.6349 0.3697   -0.180543
 C 0.9223 0.6054 0.418   0.815476
 C 0.9041 0.5762 0.5919   0.821757
 C 0.8439 0.6198 0.6433   -0.170666
 C 0.8894 0.6805 0.6579   0.03611
 C 0.7442 0.6003 0.6739   -0.013861
 C 0.8322 0.7178 0.7057   -0.213416
 C 0.6854 0.6395 0.7216   -0.124071
 C 0.7311 0.7001 0.7365   0.071997
 C 0.6846 0.7491 0.7844   0.076735
 C 0.7506 0.8046 0.7878   -0.222235
 C 0.5877 0.7476 0.8227   -0.114797
 C 0.7216 0.859 0.8286   0.031392
 C 0.5576 0.8011 0.8629   -0.002995
 C 0.6229 0.8573 0.8655   -0.168648
 C 0.5848 0.9145 0.9107   0.799711
 C 0.2759 0.9153 0.9078   0.658163
 C 0.2656 0.8853 0.8492   -0.126345
 C 0.249 0.9404 0.7966   -0.005047
 C 0.2752 0.8067 0.8465   0.024136
 C 0.2644 0.7855 0.7922   -0.209773
 C 0.2365 0.9175 0.7426   -0.118146
 C 0.2451 0.8387 0.7399   0.066113
 C 0.2322 0.8023 0.6868   0.076427
 C 0.2455 0.7217 0.6999   -0.216415
 C 0.2083 0.8377 0.6293   -0.116284
 C 0.2331 0.6752 0.658   0.018786
 C 0.1957 0.7918 0.5871   -0.020435
 C 0.2072 0.7112 0.6017   -0.128709
 C 0.1915 0.6613 0.5551   0.664643
 C 0.4967 0.1241 0.9187   0.804053
 C 0.4367 0.176 0.8707   -0.164267
 C 0.3413 0.1575 0.8545   0.048734
 C 0.4826 0.2415 0.8378   -0.002613
 C 0.4377 0.2903 0.7887   -0.13344
 C 0.2966 0.2074 0.8064   -0.218191
 C 0.3427 0.2705 0.7739   0.06996
 C 0.2814 0.3124 0.7215   0.075612
 C 0.1901 0.2754 0.7181   -0.225306
 C 0.3059 0.378 0.6798   -0.14194
 C 0.2381 0.4051 0.6329   0.009277
 C 0.1268 0.3003 0.6734   0.060014
 C 0.1474 0.3651 0.6303   -0.180543
 C 0.0777 0.3946 0.582   0.815476
 C 0.0959 0.4238 0.4081   0.821757
 C 0.1561 0.3802 0.3567   -0.170666
 C 0.1106 0.3195 0.3421   0.03611
 C 0.2558 0.3997 0.3261   -0.013861
 C 0.1678 0.2822 0.2943   -0.213416
 C 0.3146 0.3605 0.2784   -0.124071
 C 0.2689 0.2999 0.2635   0.071997
 C 0.3154 0.2509 0.2156   0.076735
 C 0.2494 0.1954 0.2122   -0.222235
 C 0.4123 0.2524 0.1773   -0.114797
 C 0.2784 0.141 0.1714   0.031392
 C 0.4424 0.1989 0.1371   -0.002995
 C 0.3771 0.1427 0.1345   -0.168649
 C 0.4152 0.0855 0.0893   0.799711
 S 0.72 0.3106 0.22441   1.120398
 S 0.8207 0.8064 0.224   1.140669
 S 0.8737 0.7952 0.7348   1.117838
 S 0.28 0.6894 0.77559   1.120398
 S 0.1793 0.1936 0.776   1.140669
 S 0.1263 0.2048 0.2652   1.117838
 O 0.7129 0.0147 0.096   -0.709253
 O 0.7231 0.1333 0.041   -0.693475
 O 0.8412 0.3039 0.4949   -0.706185
 O 0.7931 0.41 0.4301   -0.707507
 O 0.7996 0.3557 0.185   -0.528582
 O 0.6058 0.3446 0.2276   -0.580175
 O 0.5504 0.9326 0.0506   -0.871563
 O 0.4119 0.8639 0.0732   -0.673086
 O 0.9033 0.545 0.4566   -0.856381
 O 0.0016 0.6423 0.4189   -0.704664
 O 0.7999 0.8747 0.2505   -0.534862
 O 0.9209 0.7961 0.1811   -0.550223
 O 0.9806 0.605 0.558   -0.677688
 O 0.8679 0.5137 0.5897   -0.830542
 O 0.6488 0.9611 0.9153   -0.785719
 O 0.8792 0.8631 0.689   -0.549283
 O 0.9663 0.7675 0.7678   -0.538516
 O 0.4906 0.9078 0.941   -0.702751
 O 0.2871 0.9853 0.904   -0.709253
 O 0.2769 0.8667 0.959   -0.693475
 O 0.1588 0.6961 0.5051   -0.706185
 O 0.2069 0.59 0.5699   -0.707507
 O 0.2004 0.6443 0.815   -0.528582
 O 0.3942 0.6554 0.7724   -0.580175
 O 0.4496 0.0674 0.9494   -0.871563
 O 0.5881 0.1361 0.9268   -0.673085
 O 0.0967 0.455 0.5434   -0.856381
 O 0.9984 0.3577 0.5811   -0.704664
 O 0.2001 0.1253 0.7495   -0.534862
 O 0.0791 0.2039 0.8189   -0.550223
 O 0.0194 0.395 0.442   -0.677688
 O 0.1321 0.4863 0.4103   -0.830542
 O 0.3512 0.0389 0.0847   -0.785719
 O 0.1208 0.1369 0.311   -0.549283
 O 0.0337 0.2325 0.2322   -0.538516
 O 0.5094 0.0922 0.059   -0.702751
