{'_ref': 'TBD', '_srcid': 'CAKYAQ_clean', 'submitters': [{'name': 'Dalar Nazarian Jeff Camp and David Sholl', 'email': 'dalar@gatech.edu jcamp6@gatech.edu'}], '_method': 'VASP DFT with PBE;DDEC'}
data_CoH7C7N5O2
_symmetry_space_group_name_H-M   'P 1'
_cell_length_a   15.43550000
_cell_length_b   15.43550000
_cell_length_c   22.77500000
_cell_angle_alpha   90.00000000
_cell_angle_beta   90.00000000
_cell_angle_gamma   90.00000000
_symmetry_Int_Tables_number   1
_chemical_formula_structural   CoH7C7N5O2
_chemical_formula_sum   'Co16 H112 C112 N80 O32'
_cell_volume   5426.24988719
_cell_formula_units_Z   16
loop_
 _symmetry_equiv_pos_site_id
 _symmetry_equiv_pos_as_xyz
  1  'x, y, z'
loop_
 _atom_site_label
 _atom_site_fract_x
 _atom_site_fract_y
 _atom_site_fract_z
 _atom_site_charge
 Co 0.04353 0.48205 0.05604   0.823574
 Co 0.45647 0.51795 0.55604   0.823574
 Co 0.26795 0.29353 0.30604   0.823574
 Co 0.23205 0.70647 0.80604   0.823574
 Co 0.54353 0.98205 0.55604   0.823574
 Co 0.95647 0.01795 0.05604   0.823574
 Co 0.76795 0.79353 0.80604   0.823574
 Co 0.73205 0.20647 0.30604   0.823574
 Co 0.95647 0.51795 0.94396   0.823574
 Co 0.54353 0.48205 0.44396   0.823574
 Co 0.73205 0.70647 0.69396   0.823574
 Co 0.76795 0.29353 0.19396   0.823574
 Co 0.45647 0.01795 0.44396   0.823574
 Co 0.04353 0.98205 0.94396   0.823574
 Co 0.23205 0.20647 0.19396   0.823574
 Co 0.26795 0.79353 0.69396   0.823574
 H 0.9323 0.3797 0.1549   0.065582
 H 0.5677 0.6203 0.6549   0.065582
 H 0.3703 0.1823 0.4049   0.065582
 H 0.1297 0.8177 0.9049   0.065582
 H 0.4323 0.8797 0.6549   0.065582
 H 0.0677 0.1203 0.1549   0.065582
 H 0.8703 0.6823 0.9049   0.065582
 H 0.6297 0.3177 0.4049   0.065582
 H 0.0677 0.6203 0.8451   0.065582
 H 0.4323 0.3797 0.3451   0.065582
 H 0.6297 0.8177 0.5951   0.065582
 H 0.8703 0.1823 0.0951   0.065582
 H 0.5677 0.1203 0.3451   0.065582
 H 0.9323 0.8797 0.8451   0.065582
 H 0.1297 0.3177 0.0951   0.065582
 H 0.3703 0.6823 0.5951   0.065582
 H 0.7747 0.442 0.9124   0.052608
 H 0.7253 0.558 0.4124   0.052608
 H 0.308 0.0247 0.1624   0.052608
 H 0.192 0.9753 0.6624   0.052608
 H 0.2747 0.942 0.4124   0.052608
 H 0.2253 0.058 0.9124   0.052608
 H 0.808 0.5247 0.6624   0.052608
 H 0.692 0.4753 0.1624   0.052608
 H 0.2253 0.558 0.0876   0.052608
 H 0.2747 0.442 0.5876   0.052608
 H 0.692 0.9753 0.8376   0.052608
 H 0.808 0.0247 0.3376   0.052608
 H 0.7253 0.058 0.5876   0.052608
 H 0.7747 0.942 0.0876   0.052608
 H 0.192 0.4753 0.3376   0.052608
 H 0.308 0.5247 0.8376   0.052608
 H 0.6037 0.2975 0.0315   0.355702
 H 0.8963 0.7025 0.5315   0.355702
 H 0.4525 0.8537 0.2815   0.355702
 H 0.0475 0.1463 0.7815   0.355702
 H 0.1037 0.7975 0.5315   0.3557
 H 0.3963 0.2025 0.0315   0.3557
 H 0.9525 0.3537 0.7815   0.3557
 H 0.5475 0.6463 0.2815   0.3557
 H 0.3963 0.7025 0.9685   0.355702
 H 0.1037 0.2975 0.4685   0.355702
 H 0.5475 0.1463 0.7185   0.355702
 H 0.9525 0.8537 0.2185   0.355702
 H 0.8963 0.2025 0.4685   0.3557
 H 0.6037 0.7975 0.9685   0.3557
 H 0.0475 0.6463 0.2185   0.3557
 H 0.4525 0.3537 0.7185   0.3557
 H 0.648 0.2973 0.0913   0.331531
 H 0.852 0.7027 0.5913   0.331531
 H 0.4527 0.898 0.3413   0.331531
 H 0.0473 0.102 0.8413   0.331531
 H 0.148 0.7973 0.5913   0.331531
 H 0.352 0.2027 0.0913   0.331531
 H 0.9527 0.398 0.8413   0.331531
 H 0.5473 0.602 0.3413   0.331531
 H 0.352 0.7027 0.9087   0.331531
 H 0.148 0.2973 0.4087   0.331531
 H 0.5473 0.102 0.6587   0.331531
 H 0.9527 0.898 0.1587   0.331531
 H 0.852 0.2027 0.4087   0.331531
 H 0.648 0.7973 0.9087   0.331531
 H 0.0473 0.602 0.1587   0.331531
 H 0.4527 0.398 0.6587   0.331531
 H 0.9089 0.7252 0.1152   0.139671
 H 0.5911 0.2748 0.6152   0.139671
 H 0.0248 0.1589 0.3652   0.139671
 H 0.4752 0.8411 0.8652   0.139671
 H 0.4089 0.2252 0.6152   0.139671
 H 0.0911 0.7748 0.1152   0.139671
 H 0.5248 0.6589 0.8652   0.139671
 H 0.9752 0.3411 0.3652   0.139671
 H 0.0911 0.2748 0.8848   0.139671
 H 0.4089 0.7252 0.3848   0.139671
 H 0.9752 0.8411 0.6348   0.139671
 H 0.5248 0.1589 0.1348   0.139671
 H 0.5911 0.7748 0.3848   0.139671
 H 0.9089 0.2252 0.8848   0.139671
 H 0.4752 0.3411 0.1348   0.139671
 H 0.0248 0.6589 0.6348   0.139671
 H 0.8279 0.7068 0.0732   0.16788
 H 0.6721 0.2932 0.5732   0.16788
 H 0.0432 0.0779 0.3232   0.16788
 H 0.4568 0.9221 0.8232   0.16788
 H 0.3279 0.2068 0.5732   0.16788
 H 0.1721 0.7932 0.0732   0.16788
 H 0.5432 0.5779 0.8232   0.16788
 H 0.9568 0.4221 0.3232   0.16788
 H 0.1721 0.2932 0.9268   0.16788
 H 0.3279 0.7068 0.4268   0.16788
 H 0.9568 0.9221 0.6768   0.16788
 H 0.5432 0.0779 0.1768   0.16788
 H 0.6721 0.7932 0.4268   0.16788
 H 0.8279 0.2068 0.9268   0.16788
 H 0.4568 0.4221 0.1768   0.16788
 H 0.0432 0.5779 0.6768   0.16788
 H 0.906 0.7666 0.0509   0.158882
 H 0.594 0.2334 0.5509   0.158882
 H 0.9834 0.156 0.3009   0.158882
 H 0.5166 0.844 0.8009   0.158882
 H 0.406 0.2666 0.5509   0.158882
 H 0.094 0.7334 0.0509   0.158882
 H 0.4834 0.656 0.8009   0.158882
 H 0.0166 0.344 0.3009   0.158882
 H 0.094 0.2334 0.9491   0.158882
 H 0.406 0.7666 0.4491   0.158882
 H 0.0166 0.844 0.6991   0.158882
 H 0.4834 0.156 0.1991   0.158882
 H 0.594 0.7334 0.4491   0.158882
 H 0.906 0.2666 0.9491   0.158882
 H 0.5166 0.344 0.1991   0.158882
 H 0.9834 0.656 0.6991   0.158882
 C 0.8973 0.3832 0.1206   0.307178
 C 0.6027 0.6168 0.6206   0.307178
 C 0.3668 0.1473 0.3706   0.307178
 C 0.1332 0.8527 0.8706   0.307178
 C 0.3973 0.8832 0.6206   0.307178
 C 0.1027 0.1168 0.1206   0.307178
 C 0.8668 0.6473 0.8706   0.307178
 C 0.6332 0.3527 0.3706   0.307178
 C 0.1027 0.6168 0.8794   0.307178
 C 0.3973 0.3832 0.3794   0.307178
 C 0.6332 0.8527 0.6294   0.307178
 C 0.8668 0.1473 0.1294   0.307178
 C 0.6027 0.1168 0.3794   0.307178
 C 0.8973 0.8832 0.8794   0.307178
 C 0.1332 0.3527 0.1294   0.307178
 C 0.3668 0.6473 0.6294   0.307178
 C 0.8566 0.4151 0.0349   0.409297
 C 0.6434 0.5849 0.5349   0.409297
 C 0.3349 0.1066 0.2849   0.409297
 C 0.1651 0.8934 0.7849   0.409297
 C 0.3566 0.9151 0.5349   0.409297
 C 0.1434 0.0849 0.0349   0.409297
 C 0.8349 0.6066 0.7849   0.409297
 C 0.6651 0.3934 0.2849   0.409297
 C 0.1434 0.5849 0.9651   0.409297
 C 0.3566 0.4151 0.4651   0.409297
 C 0.6651 0.8934 0.7151   0.409297
 C 0.8349 0.1066 0.2151   0.409297
 C 0.6434 0.0849 0.4651   0.409297
 C 0.8566 0.9151 0.9651   0.409297
 C 0.1651 0.3934 0.2151   0.409297
 C 0.3349 0.6066 0.7151   0.409297
 C 0.7797 0.4231 0.952   0.401744
 C 0.7203 0.5769 0.452   0.401744
 C 0.3269 0.0297 0.202   0.401744
 C 0.1731 0.9703 0.702   0.401744
 C 0.2797 0.9231 0.452   0.401744
 C 0.2203 0.0769 0.952   0.401744
 C 0.8269 0.5297 0.702   0.401744
 C 0.6731 0.4703 0.202   0.401744
 C 0.2203 0.5769 0.048   0.401744
 C 0.2797 0.4231 0.548   0.401744
 C 0.6731 0.9703 0.798   0.401744
 C 0.8269 0.0297 0.298   0.401744
 C 0.7203 0.0769 0.548   0.401744
 C 0.7797 0.9231 0.048   0.401744
 C 0.1731 0.4703 0.298   0.401744
 C 0.3269 0.5297 0.798   0.401744
 C 0.7135 0.3553 0.0317   0.499528
 C 0.7865 0.6447 0.5317   0.499528
 C 0.3947 0.9635 0.2817   0.499528
 C 0.1053 0.0365 0.7817   0.499528
 C 0.2135 0.8553 0.5317   0.499528
 C 0.2865 0.1447 0.0317   0.499528
 C 0.8947 0.4635 0.7817   0.499528
 C 0.6053 0.5365 0.2817   0.499528
 C 0.2865 0.6447 0.9683   0.499528
 C 0.2135 0.3553 0.4683   0.499528
 C 0.6053 0.0365 0.7183   0.499528
 C 0.8947 0.9635 0.2183   0.499528
 C 0.7865 0.1447 0.4683   0.499528
 C 0.7135 0.8553 0.9683   0.499528
 C 0.1053 0.5365 0.2183   0.499528
 C 0.3947 0.4635 0.7183   0.499528
 C 0.7913 0.3727 0.0629   -0.113966
 C 0.7087 0.6273 0.5629   -0.113966
 C 0.3773 0.0413 0.3129   -0.113966
 C 0.1227 0.9587 0.8129   -0.113966
 C 0.2913 0.8727 0.5629   -0.113966
 C 0.2087 0.1273 0.0629   -0.113966
 C 0.8773 0.5413 0.8129   -0.113966
 C 0.6227 0.4587 0.3129   -0.113966
 C 0.2087 0.6273 0.9371   -0.113966
 C 0.2913 0.3727 0.4371   -0.113966
 C 0.6227 0.9587 0.6871   -0.113966
 C 0.8773 0.0413 0.1871   -0.113966
 C 0.7087 0.1273 0.4371   -0.113966
 C 0.7913 0.8727 0.9371   -0.113966
 C 0.1227 0.4587 0.1871   -0.113966
 C 0.3773 0.5413 0.6871   -0.113966
 C 0.9368 0.6354 0.0498   0.755227
 C 0.5632 0.3646 0.5498   0.755227
 C 0.1146 0.1868 0.2998   0.755227
 C 0.3854 0.8132 0.7998   0.755227
 C 0.4368 0.1354 0.5498   0.755227
 C 0.0632 0.8646 0.0498   0.755227
 C 0.6146 0.6868 0.7998   0.755227
 C 0.8854 0.3132 0.2998   0.755227
 C 0.0632 0.3646 0.9502   0.755227
 C 0.4368 0.6354 0.4502   0.755227
 C 0.8854 0.8132 0.7002   0.755227
 C 0.6146 0.1868 0.2002   0.755227
 C 0.5632 0.8646 0.4502   0.755227
 C 0.9368 0.1354 0.9502   0.755227
 C 0.3854 0.3132 0.2002   0.755227
 C 0.1146 0.6868 0.7002   0.755227
 C 0.8907 0.7158 0.0745   -0.521079
 C 0.6093 0.2842 0.5745   -0.521079
 C 0.0342 0.1407 0.3245   -0.521079
 C 0.4658 0.8593 0.8245   -0.521079
 C 0.3907 0.2158 0.5745   -0.521079
 C 0.1093 0.7842 0.0745   -0.521079
 C 0.5342 0.6407 0.8245   -0.521079
 C 0.9658 0.3593 0.3245   -0.521079
 C 0.1093 0.2842 0.9255   -0.521079
 C 0.3907 0.7158 0.4255   -0.521079
 C 0.9658 0.8593 0.6755   -0.521079
 C 0.5342 0.1407 0.1755   -0.521079
 C 0.6093 0.7842 0.4255   -0.521079
 C 0.8907 0.2158 0.9255   -0.521079
 C 0.4658 0.3593 0.1755   -0.521079
 C 0.0342 0.6407 0.6755   -0.521079
 N 0.9266 0.4204 0.0705   -0.517606
 N 0.5734 0.5796 0.5705   -0.517606
 N 0.3296 0.1766 0.3205   -0.517606
 N 0.1704 0.8234 0.8205   -0.517606
 N 0.4266 0.9204 0.5705   -0.517606
 N 0.0734 0.0796 0.0705   -0.517606
 N 0.8296 0.6766 0.8205   -0.517606
 N 0.6704 0.3234 0.3205   -0.517606
 N 0.0734 0.5796 0.9295   -0.517606
 N 0.4266 0.4204 0.4295   -0.517606
 N 0.6704 0.8234 0.6795   -0.517606
 N 0.8296 0.1766 0.1795   -0.517606
 N 0.5734 0.0796 0.4295   -0.517606
 N 0.9266 0.9204 0.9295   -0.517606
 N 0.1704 0.3234 0.1795   -0.517606
 N 0.3296 0.6766 0.6795   -0.517606
 N 0.8528 0.4451 0.9791   -0.508297
 N 0.6472 0.5549 0.4791   -0.508297
 N 0.3049 0.1028 0.2291   -0.508297
 N 0.1951 0.8972 0.7291   -0.508297
 N 0.3528 0.9451 0.4791   -0.508297
 N 0.1472 0.0549 0.9791   -0.508297
 N 0.8049 0.6028 0.7291   -0.508297
 N 0.6951 0.3972 0.2291   -0.508297
 N 0.1472 0.5549 0.0209   -0.508297
 N 0.3528 0.4451 0.5209   -0.508297
 N 0.6951 0.8972 0.7709   -0.508297
 N 0.8049 0.1028 0.2709   -0.508297
 N 0.6472 0.0549 0.5209   -0.508297
 N 0.8528 0.9451 0.0209   -0.508297
 N 0.1951 0.3972 0.2709   -0.508297
 N 0.3049 0.6028 0.7709   -0.508297
 N 0.7126 0.3781 0.9726   -0.591324
 N 0.7874 0.6219 0.4726   -0.591324
 N 0.3719 0.9626 0.2226   -0.591324
 N 0.1281 0.0374 0.7226   -0.591324
 N 0.2126 0.8781 0.4726   -0.591324
 N 0.2874 0.1219 0.9726   -0.591324
 N 0.8719 0.4626 0.7226   -0.591324
 N 0.6281 0.5374 0.2226   -0.591324
 N 0.2874 0.6219 0.0274   -0.591324
 N 0.2126 0.3781 0.5274   -0.591324
 N 0.6281 0.0374 0.7774   -0.591324
 N 0.8719 0.9626 0.2774   -0.591324
 N 0.7874 0.1219 0.5274   -0.591324
 N 0.7126 0.8781 0.0274   -0.591324
 N 0.1281 0.5374 0.2774   -0.591324
 N 0.3719 0.4626 0.7774   -0.591324
 N 0.8173 0.3519 0.1193   -0.385346
 N 0.6827 0.6481 0.6193   -0.385346
 N 0.3981 0.0673 0.3693   -0.385346
 N 0.1019 0.9327 0.8693   -0.385346
 N 0.3173 0.8519 0.6193   -0.385346
 N 0.1827 0.1481 0.1193   -0.385346
 N 0.8981 0.5673 0.8693   -0.385346
 N 0.6019 0.4327 0.3693   -0.385346
 N 0.1827 0.6481 0.8807   -0.385346
 N 0.3173 0.3519 0.3807   -0.385346
 N 0.6019 0.9327 0.6307   -0.385346
 N 0.8981 0.0673 0.1307   -0.385346
 N 0.6827 0.1481 0.3807   -0.385346
 N 0.8173 0.8519 0.8807   -0.385346
 N 0.1019 0.4327 0.1307   -0.385346
 N 0.3981 0.5673 0.6307   -0.385346
 N 0.6478 0.3119 0.054   -0.65055
 N 0.8522 0.6881 0.554   -0.65055
 N 0.4381 0.8978 0.304   -0.65055
 N 0.0619 0.1022 0.804   -0.65055
 N 0.1478 0.8119 0.554   -0.650549
 N 0.3522 0.1881 0.054   -0.650549
 N 0.9381 0.3978 0.804   -0.650549
 N 0.5619 0.6022 0.304   -0.650549
 N 0.3522 0.6881 0.946   -0.65055
 N 0.1478 0.3119 0.446   -0.65055
 N 0.5619 0.1022 0.696   -0.65055
 N 0.9381 0.8978 0.196   -0.65055
 N 0.8522 0.1881 0.446   -0.650549
 N 0.6478 0.8119 0.946   -0.650549
 N 0.0619 0.6022 0.196   -0.650549
 N 0.4381 0.3978 0.696   -0.650549
 O 0.9878 0.5955 0.0817   -0.591882
 O 0.5122 0.4045 0.5817   -0.591882
 O 0.1545 0.2378 0.3317   -0.591882
 O 0.3455 0.7622 0.8317   -0.591882
 O 0.4878 0.0955 0.5817   -0.591881
 O 0.0122 0.9045 0.0817   -0.591881
 O 0.6545 0.7378 0.8317   -0.591882
 O 0.8455 0.2622 0.3317   -0.591882
 O 0.0122 0.4045 0.9183   -0.591881
 O 0.4878 0.5955 0.4183   -0.591881
 O 0.8455 0.7622 0.6683   -0.591881
 O 0.6545 0.2378 0.1683   -0.591881
 O 0.5122 0.9045 0.4183   -0.591881
 O 0.9878 0.0955 0.9183   -0.591881
 O 0.3455 0.2622 0.1683   -0.591881
 O 0.1545 0.7378 0.6683   -0.591881
 O 0.9194 0.6154 0.9977   -0.588353
 O 0.5806 0.3846 0.4977   -0.588353
 O 0.1346 0.1694 0.2477   -0.588353
 O 0.3654 0.8306 0.7477   -0.588353
 O 0.4194 0.1154 0.4977   -0.588353
 O 0.0806 0.8846 0.9977   -0.588353
 O 0.6346 0.6694 0.7477   -0.588353
 O 0.8654 0.3306 0.2477   -0.588353
 O 0.0806 0.3846 0.0023   -0.588353
 O 0.4194 0.6154 0.5023   -0.588353
 O 0.8654 0.8306 0.7523   -0.588353
 O 0.6346 0.1694 0.2523   -0.588353
 O 0.5806 0.8846 0.5023   -0.588353
 O 0.9194 0.1154 0.0023   -0.588353
 O 0.3654 0.3306 0.2523   -0.588353
 O 0.1346 0.6694 0.7523   -0.588353
