{'_ref': 'TBD', '_srcid': 'CAKYAQ_clean', 'submitters': [{'name': 'Dalar Nazarian Jeff Camp and David Sholl', 'email': 'dalar@gatech.edu jcamp6@gatech.edu'}], '_method': 'VASP DFT with PBE;DDEC'}
data_Ga2H21(C3N2)7
_symmetry_space_group_name_H-M   'P 1'
_cell_length_a   10.82099988
_cell_length_b   12.16900030
_cell_length_c   12.19450000
_cell_angle_alpha   119.48200117
_cell_angle_beta   116.33899780
_cell_angle_gamma   90.00000189
_symmetry_Int_Tables_number   1
_chemical_formula_structural   Ga2H21(C3N2)7
_chemical_formula_sum   'Ga4 H42 C42 N28'
_cell_volume   1202.65933787
_cell_formula_units_Z   2
loop_
 _symmetry_equiv_pos_site_id
 _symmetry_equiv_pos_as_xyz
  1  'x, y, z'
loop_
 _atom_site_label
 _atom_site_fract_x
 _atom_site_fract_y
 _atom_site_fract_z
 _atom_site_charge
 Ga 0.0 0.5 0.5   1.062879
 Ga 0.5 0.0 0.5   1.062105
 Ga 0.5 0.5 0.0   1.070788
 Ga 0.5 0.0 0.0   1.069987
 H 0.286 0.581 0.782   0.020364
 H 0.013 0.25 0.538   0.080784
 H 0.191 0.26 0.744   0.062189
 H 0.728 0.256 0.332   0.049977
 H 0.997 0.272 0.206   0.092371
 H 0.791 0.067 0.996   0.102901
 H 0.306 0.446 0.554   0.063725
 H 0.075 0.551 0.296   0.082969
 H 0.306 0.539 0.292   0.095854
 H 0.749 0.636 0.984   0.096583
 H 0.504 0.919 0.218   0.020633
 H 0.475 0.25 0.462   0.080701
 H 0.447 0.24 0.256   0.062526
 H 0.396 0.244 0.668   0.051145
 H 0.791 0.228 0.794   0.092037
 H 0.795 0.433 0.004   0.103404
 H 0.752 0.054 0.446   0.063449
 H 0.779 0.949 0.704   0.083395
 H 0.014 0.961 0.708   0.095643
 H 0.765 0.864 0.016   0.096326
 H 0.714 0.419 0.218   0.020364
 H 0.987 0.75 0.462   0.080783
 H 0.809 0.74 0.256   0.062189
 H 0.272 0.744 0.668   0.049977
 H 0.003 0.728 0.794   0.092372
 H 0.209 0.933 0.004   0.102902
 H 0.694 0.554 0.446   0.063725
 H 0.925 0.449 0.704   0.082969
 H 0.694 0.461 0.708   0.095852
 H 0.251 0.364 0.016   0.096583
 H 0.496 0.081 0.782   0.020633
 H 0.525 0.75 0.538   0.0807
 H 0.553 0.76 0.744   0.062526
 H 0.604 0.756 0.332   0.051145
 H 0.209 0.772 0.206   0.092038
 H 0.205 0.567 0.996   0.103405
 H 0.248 0.946 0.554   0.063448
 H 0.221 0.051 0.296   0.083395
 H 0.986 0.039 0.292   0.095641
 H 0.235 0.136 0.984   0.096327
 H 0.419 0.75 0.0   0.048966
 H 0.581 0.25 0.0   0.048966
 C 0.24526 0.4998 0.74992   0.245865
 C 0.19538 0.315 0.72396   0.019326
 C 0.08561 0.3146 0.61002   0.018334
 C 0.76875 0.2295 0.2699   0.229685
 C 0.80591 0.1316 0.08942   -0.039942
 C 0.9171 0.2426 0.2012   -0.001261
 C 0.28112 0.4764 0.49424   0.218085
 C 0.27678 0.5244 0.34496   -0.021794
 C 0.15304 0.5331 0.34808   -0.014838
 C 0.68621 0.6908 0.99242   -0.00514
 C 0.49534 0.0002 0.25008   0.245591
 C 0.47142 0.185 0.27604   0.018684
 C 0.47559 0.1854 0.38998   0.018163
 C 0.49885 0.2705 0.7301   0.227877
 C 0.71649 0.3684 0.91058   -0.040817
 C 0.7159 0.2574 0.7988   -0.00087
 C 0.78688 0.0236 0.50576   0.21893
 C 0.93182 0.9756 0.65504   -0.021452
 C 0.80496 0.9669 0.65192   -0.015784
 C 0.69379 0.8092 0.00758   -0.004953
 C 0.75474 0.5002 0.25008   0.245865
 C 0.80462 0.685 0.27604   0.019326
 C 0.91439 0.6854 0.38998   0.018334
 C 0.23125 0.7705 0.7301   0.229685
 C 0.19409 0.8684 0.91058   -0.039942
 C 0.0829 0.7574 0.7988   -0.001262
 C 0.71888 0.5236 0.50576   0.218085
 C 0.72322 0.4756 0.65504   -0.021794
 C 0.84696 0.4669 0.65192   -0.014839
 C 0.31379 0.3092 0.00758   -0.005141
 C 0.50466 0.9998 0.74992   0.245591
 C 0.52858 0.815 0.72396   0.018683
 C 0.52441 0.8146 0.61002   0.018163
 C 0.50115 0.7295 0.2699   0.227877
 C 0.28351 0.6316 0.08942   -0.040817
 C 0.2841 0.7426 0.2012   -0.000871
 C 0.21312 0.9764 0.49424   0.21893
 C 0.06818 0.0244 0.34496   -0.021452
 C 0.19504 0.0331 0.34808   -0.015785
 C 0.30621 0.1908 0.99242   -0.004953
 C 0.5023 0.75 0.0   0.241038
 C 0.4977 0.25 0.0   0.241038
 N 0.11678 0.4322 0.62676   -0.390941
 N 0.29927 0.4343 0.81354   -0.397588
 N 0.89276 0.3066 0.31672   -0.384935
 N 0.70965 0.1229 0.1323   -0.393993
 N 0.15532 0.5029 0.44384   -0.390188
 N 0.3579 0.4882 0.4382   -0.264237
 N 0.56429 0.6528 0.98958   -0.385456
 N 0.49002 0.0678 0.37324   -0.390775
 N 0.48573 0.0657 0.18646   -0.397235
 N 0.57604 0.1934 0.68328   -0.384622
 N 0.57735 0.3771 0.8677   -0.393536
 N 0.71148 0.9971 0.55616   -0.390068
 N 0.9197 0.0118 0.5618   -0.264528
 N 0.57471 0.8472 0.01042   -0.385443
 N 0.88322 0.5678 0.37324   -0.390941
 N 0.70073 0.5657 0.18646   -0.397588
 N 0.10724 0.6934 0.68328   -0.384935
 N 0.29035 0.8771 0.8677   -0.393993
 N 0.84468 0.4971 0.55616   -0.390188
 N 0.6421 0.5118 0.5618   -0.264238
 N 0.43571 0.3472 0.01042   -0.385456
 N 0.50998 0.9322 0.62676   -0.390775
 N 0.51427 0.9343 0.81354   -0.397235
 N 0.42396 0.8066 0.31672   -0.384622
 N 0.42265 0.6229 0.1323   -0.393535
 N 0.28852 0.0029 0.44384   -0.390068
 N 0.0803 0.9882 0.4382   -0.26453
 N 0.42529 0.1528 0.98958   -0.385443
