{'_ref': 'TBD', '_srcid': 'CAKYAQ_clean', 'submitters': [{'name': 'Dalar Nazarian Jeff Camp and David Sholl', 'email': 'dalar@gatech.edu jcamp6@gatech.edu'}], '_method': 'VASP DFT with PBE;DDEC'}
data_CeH6C15NO9
_symmetry_space_group_name_H-M   'P 1'
_cell_length_a   14.21660011
_cell_length_b   14.21659954
_cell_length_c   15.83014831
_cell_angle_alpha   97.51681416
_cell_angle_beta   114.94235838
_cell_angle_gamma   112.62899760
_symmetry_Int_Tables_number   1
_chemical_formula_structural   CeH6C15NO9
_chemical_formula_sum   'Ce4 H24 C60 N4 O36'
_cell_volume   2508.17246918
_cell_formula_units_Z   4
loop_
 _symmetry_equiv_pos_site_id
 _symmetry_equiv_pos_as_xyz
  1  'x, y, z'
loop_
 _atom_site_label
 _atom_site_fract_x
 _atom_site_fract_y
 _atom_site_fract_z
 _atom_site_charge
 Ce 0.4806 0.98078 0.1215   2.227107
 Ce 0.35928 0.3591 0.3785   2.226545
 Ce 0.5194 0.01922 0.8785   2.227106
 Ce 0.64072 0.6409 0.6215   2.226544
 H 0.5608 0.2741 0.3957   0.095537
 H 0.8216 0.1909 0.4723   0.150379
 H 0.8772 0.4587 0.6549   0.127464
 H 0.1917 0.6177 0.924   0.122611
 H 0.246 0.6744 0.7012   0.09571
 H 0.1082 0.4949 0.6003   0.144835
 H 0.3784 0.1651 0.1043   0.095693
 H 0.2186 0.3493 0.0277   0.149712
 H 0.3038 0.2223 0.8451   0.127018
 H 0.1937 0.2677 0.576   0.121498
 H 0.4732 0.5448 0.7988   0.094966
 H 0.3946 0.5079 0.8997   0.145209
 H 0.4392 0.7259 0.6043   0.095537
 H 0.1784 0.8091 0.5277   0.150379
 H 0.1228 0.5413 0.3451   0.127464
 H 0.8083 0.3823 0.076   0.122611
 H 0.754 0.3256 0.2988   0.09571
 H 0.8918 0.5051 0.3997   0.144836
 H 0.6216 0.8349 0.8957   0.095693
 H 0.7814 0.6507 0.9723   0.149712
 H 0.6962 0.7777 0.1549   0.127018
 H 0.8063 0.7323 0.424   0.121498
 H 0.5268 0.4552 0.2012   0.094966
 H 0.6054 0.4921 0.1003   0.14521
 C 0.7117 0.3765 0.5302   -0.119225
 C 0.6384 0.2876 0.4412   -0.048638
 C 0.6799 0.2181 0.4194   -0.082604
 C 0.7937 0.2385 0.486   -0.133882
 C 0.8654 0.3284 0.572   0.247489
 C 0.8261 0.3973 0.595   -0.166057
 C 0.0617 0.4498 0.6995   0.260833
 C 0.0883 0.4867 0.7964   -0.12752
 C 0.1731 0.5932 0.8573   0.006456
 C 0.2308 0.6642 0.822   -0.172463
 C 0.2057 0.6263 0.7258   0.041696
 C 0.1232 0.5203 0.6657   -0.224033
 C 0.672 0.4505 0.5605   0.770295
 C 0.6026 0.1233 0.3235   0.670161
 C 0.317 0.7829 0.8863   0.798588
 C 0.3463 0.1815 0.9698   -0.119274
 C 0.3464 0.1972 0.0588   -0.048567
 C 0.2987 0.2605 0.0806   -0.083936
 C 0.2525 0.3077 0.014   -0.133268
 C 0.2564 0.2934 0.928   0.249002
 C 0.3023 0.2311 0.905   -0.16567
 C 0.2503 0.3622 0.8005   0.26068
 C 0.1903 0.2919 0.7036   -0.12716
 C 0.2359 0.3158 0.6427   0.010142
 C 0.3422 0.4088 0.678   -0.175145
 C 0.4005 0.4799 0.7742   0.042084
 C 0.3546 0.4575 0.8343   -0.223714
 C 0.39 0.1115 0.9395   0.772642
 C 0.2998 0.2791 0.1765   0.670218
 C 0.3966 0.4307 0.6137   0.800837
 C 0.2883 0.6235 0.4698   -0.119225
 C 0.3616 0.7124 0.5588   -0.048638
 C 0.3201 0.7819 0.5806   -0.082604
 C 0.2063 0.7615 0.514   -0.133881
 C 0.1346 0.6716 0.428   0.247488
 C 0.1739 0.6027 0.405   -0.166057
 C 0.9383 0.5502 0.3005   0.260833
 C 0.9117 0.5133 0.2036   -0.12752
 C 0.8269 0.4068 0.1427   0.006456
 C 0.7692 0.3358 0.178   -0.172463
 C 0.7943 0.3737 0.2742   0.041696
 C 0.8768 0.4797 0.3343   -0.224033
 C 0.328 0.5495 0.4395   0.770294
 C 0.3974 0.8767 0.6765   0.670161
 C 0.683 0.2171 0.1137   0.798588
 C 0.6537 0.8185 0.0302   -0.119274
 C 0.6536 0.8028 0.9412   -0.048566
 C 0.7013 0.7395 0.9194   -0.083936
 C 0.7475 0.6923 0.986   -0.133267
 C 0.7436 0.7066 0.072   0.249002
 C 0.6977 0.7689 0.095   -0.16567
 C 0.7497 0.6378 0.1995   0.26068
 C 0.8097 0.7081 0.2964   -0.12716
 C 0.7641 0.6842 0.3573   0.010142
 C 0.6578 0.5912 0.322   -0.175145
 C 0.5995 0.5201 0.2258   0.042085
 C 0.6454 0.5425 0.1657   -0.223714
 C 0.61 0.8885 0.0605   0.772642
 C 0.7002 0.7209 0.8235   0.670219
 C 0.6034 0.5693 0.3863   0.800837
 N 0.0286 0.4171 0.8385   0.621959
 N 0.0786 0.1901 0.6615   0.623642
 N 0.9714 0.5829 0.1615   0.621959
 N 0.9214 0.8099 0.3385   0.623642
 O 0.7475 0.5345 0.6366   -0.650496
 O 0.56503 0.42857 0.5106   -0.849576
 O 0.5018 0.109 0.2614   -0.715533
 O 0.64095 0.06155 0.3071   -0.658912
 O 0.9363 0.3326 0.7827   -0.356488
 O 0.0752 0.4473 0.9289   -0.367279
 O 0.3441 0.8097 0.9748   -0.762921
 O 0.3533 0.8444 0.8443   -0.7003
 O 0.9782 0.3438 0.6344   -0.244649
 O 0.3979 0.1109 0.8634   -0.651889
 O 0.41797 0.05443 0.9894   -0.850624
 O 0.3476 0.2404 0.2386   -0.714323
 O 0.25445 0.33385 0.1929   -0.659592
 O 0.0499 0.1536 0.7173   -0.357266
 O 0.0184 0.1463 0.5711   -0.368849
 O 0.3349 0.3693 0.5252   -0.763927
 O 0.5001 0.509 0.6557   -0.70104
 O 0.2094 0.3438 0.8656   -0.246186
 O 0.2525 0.4655 0.3634   -0.650496
 O 0.43497 0.57143 0.4894   -0.849576
 O 0.4982 0.891 0.7386   -0.715533
 O 0.35905 0.93845 0.6929   -0.658913
 O 0.0637 0.6674 0.2173   -0.356488
 O 0.9248 0.5527 0.0711   -0.36728
 O 0.6559 0.1903 0.0252   -0.762921
 O 0.6467 0.1556 0.1557   -0.7003
 O 0.0218 0.6562 0.3656   -0.244649
 O 0.6021 0.8891 0.1366   -0.651889
 O 0.58203 0.94557 0.0106   -0.850624
 O 0.6524 0.7596 0.7614   -0.714323
 O 0.74555 0.66615 0.8071   -0.659592
 O 0.9501 0.8464 0.2827   -0.357266
 O 0.9816 0.8537 0.4289   -0.36885
 O 0.6651 0.6307 0.4748   -0.763927
 O 0.4999 0.491 0.3443   -0.70104
 O 0.7906 0.6562 0.1344   -0.246186
