{'_ref': 'TBD', '_srcid': 'CAKYAQ_clean', 'submitters': [{'name': 'Dalar Nazarian Jeff Camp and David Sholl', 'email': 'dalar@gatech.edu jcamp6@gatech.edu'}], '_method': 'VASP DFT with PBE;DDEC'}
data_CuH4(C2O)4
_symmetry_space_group_name_H-M   'P 1'
_cell_length_a   6.60500018
_cell_length_b   10.44779990
_cell_length_c   11.08810000
_cell_angle_alpha   62.06399764
_cell_angle_beta   73.40999949
_cell_angle_gamma   78.40400088
_symmetry_Int_Tables_number   1
_chemical_formula_structural   CuH4(C2O)4
_chemical_formula_sum   'Cu2 H8 C16 O8'
_cell_volume   645.814093105
_cell_formula_units_Z   2
loop_
 _symmetry_equiv_pos_site_id
 _symmetry_equiv_pos_as_xyz
  1  'x, y, z'
loop_
 _atom_site_label
 _atom_site_fract_x
 _atom_site_fract_y
 _atom_site_fract_z
 _atom_site_charge
 Cu 0.0 0.0 0.5   0.960955
 Cu 0.5 0.0 0.5   0.707551
 H 0.5867 0.731 0.4429   0.093512
 H 0.1462 0.4453 0.5776   0.111058
 H 0.3478 0.0465 0.8728   0.112348
 H 0.7638 0.9503 0.9083   0.115888
 H 0.4133 0.269 0.5571   0.093512
 H 0.8538 0.5547 0.4224   0.111057
 H 0.6522 0.9535 0.1272   0.112346
 H 0.2362 0.0497 0.0917   0.115887
 C 0.1363 0.9961 0.7289   0.699958
 C 0.1647 0.7177 0.526   0.671121
 C 0.5514 0.6371 0.4663   -0.049629
 C 0.0655 0.9987 0.8697   -0.103742
 C 0.3402 0.6054 0.5132   -0.118986
 C 0.2901 0.4674 0.5463   -0.040197
 C 0.2063 0.0277 0.9244   -0.057394
 C 0.86 0.9707 0.9453   -0.059008
 C 0.8637 0.0039 0.2711   0.699958
 C 0.8353 0.2823 0.474   0.671123
 C 0.4486 0.3629 0.5337   -0.04964
 C 0.9345 0.0013 0.1303   -0.103738
 C 0.6598 0.3946 0.4868   -0.118984
 C 0.7099 0.5326 0.4537   -0.040207
 C 0.7937 0.9723 0.0756   -0.057403
 C 0.14 0.0293 0.0547   -0.059018
 O 0.3292 0.0125 0.6698   -0.568913
 O 0.213 0.8324 0.5207   -0.586312
 O 0.9977 0.978 0.6841   -0.537099
 O 0.9811 0.6919 0.5405   -0.516841
 O 0.6708 0.9875 0.3302   -0.568912
 O 0.787 0.1676 0.4793   -0.586312
 O 0.0023 0.022 0.3159   -0.537098
 O 0.0189 0.3081 0.4595   -0.516841
