{'_ref': 'TBD', '_srcid': 'CAKYAQ_clean', 'submitters': [{'name': 'Dalar Nazarian Jeff Camp and David Sholl', 'email': 'dalar@gatech.edu jcamp6@gatech.edu'}], '_method': 'VASP DFT with PBE;DDEC'}
data_CeSiH17(C7O2)4
_symmetry_space_group_name_H-M   'P 1'
_cell_length_a   14.53449975
_cell_length_b   14.53450015
_cell_length_c   21.93560000
_cell_angle_alpha   82.26360137
_cell_angle_beta   82.26360116
_cell_angle_gamma   66.64770188
_symmetry_Int_Tables_number   1
_chemical_formula_structural   CeSiH17(C7O2)4
_chemical_formula_sum   'Ce4 Si4 H68 C112 O32'
_cell_volume   4198.77058719
_cell_formula_units_Z   4
loop_
 _symmetry_equiv_pos_site_id
 _symmetry_equiv_pos_as_xyz
  1  'x, y, z'
loop_
 _atom_site_label
 _atom_site_fract_x
 _atom_site_fract_y
 _atom_site_fract_z
 _atom_site_charge
 Ce 0.53207 0.95185 0.59573   2.198306
 Ce 0.04815 0.46793 0.90427   2.198306
 Ce 0.46793 0.04815 0.40427   2.198306
 Ce 0.95185 0.53207 0.09573   2.198306
 Si 0.8893 0.34932 0.50609   0.881932
 Si 0.65068 0.1107 0.99391   0.881933
 Si 0.1107 0.65068 0.49391   0.881932
 Si 0.34932 0.8893 0.00609   0.881933
 H 0.743 0.7062 0.5385   0.072259
 H 0.8193 0.5689 0.4817   0.075686
 H 0.8257 0.3869 0.635   0.092366
 H 0.754 0.5224 0.6914   0.084177
 H 0.6803 0.3767 0.5049   0.080362
 H 0.5844 0.2822 0.5321   0.106296
 H 0.8267 0.0475 0.5877   0.113467
 H 0.9238 0.1422 0.5578   0.078213
 H 0.0154 0.4918 0.3175   0.092325
 H 0.0032 0.4426 0.4213   0.067488
 H 0.7916 0.343 0.3962   0.077941
 H 0.8081 0.3881 0.2916   0.110169
 H 0.0274 0.34 0.5984   0.072871
 H 0.1906 0.24 0.6181   0.112822
 H 0.2188 0.0888 0.4719   0.094635
 H 0.0547 0.1845 0.4553   0.088543
 H 0.7046 0.6448 0.7255   0.44018
 H 0.2938 0.257 0.9615   0.072259
 H 0.4311 0.1807 0.0183   0.075686
 H 0.6131 0.1743 0.865   0.092366
 H 0.4776 0.246 0.8086   0.084177
 H 0.6233 0.3197 0.9951   0.080362
 H 0.7178 0.4156 0.9679   0.106296
 H 0.9525 0.1733 0.9123   0.113467
 H 0.8578 0.0762 0.9422   0.078213
 H 0.5082 0.9846 0.1825   0.092325
 H 0.5574 0.9968 0.0787   0.067488
 H 0.657 0.2084 0.1038   0.077936
 H 0.6119 0.1919 0.2084   0.110169
 H 0.66 0.9726 0.9016   0.072871
 H 0.76 0.8094 0.8819   0.112823
 H 0.9112 0.7812 0.0281   0.094635
 H 0.8155 0.9453 0.0447   0.088543
 H 0.3552 0.2954 0.7745   0.440181
 H 0.257 0.2938 0.4615   0.072259
 H 0.1807 0.4311 0.5183   0.075686
 H 0.1743 0.6131 0.365   0.092366
 H 0.246 0.4776 0.3086   0.084177
 H 0.3197 0.6233 0.4951   0.080363
 H 0.4156 0.7178 0.4679   0.106297
 H 0.1733 0.9525 0.4123   0.113467
 H 0.0762 0.8578 0.4422   0.078213
 H 0.9846 0.5082 0.6825   0.092325
 H 0.9968 0.5574 0.5787   0.067488
 H 0.2084 0.657 0.6038   0.077941
 H 0.1919 0.6119 0.7084   0.110169
 H 0.9726 0.66 0.4016   0.072871
 H 0.8094 0.76 0.3819   0.112823
 H 0.7812 0.9112 0.5281   0.094635
 H 0.9453 0.8155 0.5447   0.088543
 H 0.2954 0.3552 0.2745   0.44018
 H 0.7062 0.743 0.0385   0.072259
 H 0.5689 0.8193 0.9817   0.075686
 H 0.3869 0.8257 0.135   0.092366
 H 0.5224 0.754 0.1914   0.084176
 H 0.3767 0.6803 0.0049   0.080363
 H 0.2822 0.5844 0.0321   0.106297
 H 0.0475 0.8267 0.0877   0.113467
 H 0.1422 0.9238 0.0578   0.078213
 H 0.4918 0.0154 0.8175   0.092325
 H 0.4426 0.0032 0.9213   0.067487
 H 0.343 0.7916 0.8962   0.077936
 H 0.3881 0.8081 0.7916   0.110168
 H 0.34 0.0274 0.0984   0.072871
 H 0.24 0.1906 0.1181   0.112823
 H 0.0888 0.2188 0.9719   0.094635
 H 0.1845 0.0547 0.9553   0.088543
 H 0.6448 0.7046 0.2255   0.440181
 C 0.69323 0.71763 0.65864   0.71434
 C 0.73879 0.62859 0.62103   -0.219865
 C 0.75958 0.64158 0.55823   0.007458
 C 0.80515 0.55875 0.52406   0.005193
 C 0.83011 0.46191 0.55118   -0.32416
 C 0.8094 0.4512 0.61488   0.016084
 C 0.7657 0.5325 0.64877   -0.066425
 C 0.81391 0.26931 0.52754   -0.367695
 C 0.71055 0.31015 0.52092   -0.00961
 C 0.65272 0.25392 0.53762   -0.082739
 C 0.69582 0.15502 0.56274   -0.091826
 C 0.63404 0.09244 0.58029   0.6559
 C 0.79717 0.11357 0.57057   -0.073631
 C 0.85531 0.17091 0.5527   0.000797
 C 0.32875 0.09135 0.55913   0.730972
 C 0.92739 0.47079 0.22556   0.678063
 C 0.91428 0.44288 0.29327   -0.089517
 C 0.9712 0.4606 0.33315   -0.072808
 C 0.96276 0.43236 0.3956   -0.006749
 C 0.89448 0.38868 0.421   -0.36289
 C 0.83723 0.37243 0.38068   -0.003208
 C 0.84724 0.39944 0.31762   -0.07116
 C 0.02224 0.27364 0.52429   -0.359998
 C 0.06538 0.28898 0.57316   -0.008689
 C 0.16367 0.22967 0.58472   -0.055319
 C 0.22239 0.15459 0.54664   -0.1253
 C 0.18034 0.13874 0.49773   -0.054845
 C 0.08209 0.19689 0.48766   0.007376
 C 0.28237 0.30677 0.84136   0.71434
 C 0.37141 0.26121 0.87897   -0.219865
 C 0.35842 0.24042 0.94177   0.007458
 C 0.44125 0.19485 0.97594   0.005193
 C 0.53809 0.16989 0.94882   -0.324161
 C 0.5488 0.1906 0.88512   0.016084
 C 0.4675 0.2343 0.85123   -0.066425
 C 0.73069 0.18609 0.97246   -0.367695
 C 0.68985 0.28945 0.97908   -0.00961
 C 0.74608 0.34728 0.96238   -0.082739
 C 0.84498 0.30418 0.93726   -0.091826
 C 0.90756 0.36596 0.91971   0.6559
 C 0.88643 0.20283 0.92943   -0.073631
 C 0.82909 0.14469 0.9473   0.000797
 C 0.90865 0.67125 0.94087   0.730972
 C 0.52921 0.07261 0.27444   0.678063
 C 0.55712 0.08572 0.20673   -0.089516
 C 0.5394 0.0288 0.16685   -0.072809
 C 0.56764 0.03724 0.1044   -0.006748
 C 0.61132 0.10552 0.079   -0.362894
 C 0.62757 0.16277 0.11932   -0.003197
 C 0.60056 0.15276 0.18238   -0.071164
 C 0.72636 0.97776 0.97571   -0.359998
 C 0.71102 0.93462 0.92684   -0.008689
 C 0.77033 0.83633 0.91528   -0.055319
 C 0.84541 0.77761 0.95336   -0.1253
 C 0.86126 0.81966 0.00227   -0.054845
 C 0.80311 0.91791 0.01234   0.007376
 C 0.30677 0.28237 0.34136   0.714339
 C 0.26121 0.37141 0.37897   -0.219865
 C 0.24042 0.35842 0.44177   0.007458
 C 0.19485 0.44125 0.47594   0.005192
 C 0.16989 0.53809 0.44882   -0.32416
 C 0.1906 0.5488 0.38512   0.016084
 C 0.2343 0.4675 0.35123   -0.066425
 C 0.18609 0.73069 0.47246   -0.367695
 C 0.28945 0.68985 0.47908   -0.00961
 C 0.34728 0.74608 0.46238   -0.082739
 C 0.30418 0.84498 0.43726   -0.091826
 C 0.36596 0.90756 0.41971   0.6559
 C 0.20283 0.88643 0.42943   -0.073631
 C 0.14469 0.82909 0.4473   0.000797
 C 0.67125 0.90865 0.44087   0.730972
 C 0.07261 0.52921 0.77444   0.678063
 C 0.08572 0.55712 0.70673   -0.089517
 C 0.0288 0.5394 0.66685   -0.072808
 C 0.03724 0.56764 0.6044   -0.006749
 C 0.10552 0.61132 0.579   -0.36289
 C 0.16277 0.62757 0.61932   -0.003208
 C 0.15276 0.60056 0.68238   -0.07116
 C 0.97776 0.72636 0.47571   -0.359998
 C 0.93462 0.71102 0.42684   -0.008689
 C 0.83633 0.77033 0.41528   -0.055319
 C 0.77761 0.84541 0.45336   -0.1253
 C 0.81966 0.86126 0.50227   -0.054845
 C 0.91791 0.80311 0.51234   0.007376
 C 0.71763 0.69323 0.15864   0.714339
 C 0.62859 0.73879 0.12103   -0.219866
 C 0.64158 0.75958 0.05823   0.007458
 C 0.55875 0.80515 0.02406   0.005192
 C 0.46191 0.83011 0.05118   -0.324161
 C 0.4512 0.8094 0.11488   0.016084
 C 0.5325 0.7657 0.14877   -0.066425
 C 0.26931 0.81391 0.02754   -0.367695
 C 0.31015 0.71055 0.02092   -0.00961
 C 0.25392 0.65272 0.03762   -0.082739
 C 0.15502 0.69582 0.06274   -0.091826
 C 0.09244 0.63404 0.08029   0.6559
 C 0.11357 0.79717 0.07057   -0.073631
 C 0.17091 0.85531 0.0527   0.000797
 C 0.09135 0.32875 0.05913   0.730972
 C 0.47079 0.92739 0.72556   0.678063
 C 0.44288 0.91428 0.79327   -0.089516
 C 0.4606 0.9712 0.83315   -0.072809
 C 0.43236 0.96276 0.8956   -0.006748
 C 0.38868 0.89448 0.921   -0.362894
 C 0.37243 0.83723 0.88068   -0.003197
 C 0.39944 0.84724 0.81762   -0.071164
 C 0.27364 0.02224 0.02429   -0.359998
 C 0.28898 0.06538 0.07316   -0.008689
 C 0.22967 0.16367 0.08472   -0.055319
 C 0.15459 0.22239 0.04664   -0.1253
 C 0.13874 0.18034 0.99773   -0.054845
 C 0.19689 0.08209 0.98766   0.007376
 O 0.6833 0.7051 0.71458   -0.427473
 O 0.67026 0.80434 0.62962   -0.662642
 O 0.67377 0.00629 0.608   -0.643802
 O 0.54417 0.12557 0.5658   -0.69109
 O 0.35354 0.07926 0.61277   -0.628658
 O 0.87991 0.44903 0.18915   -0.725631
 O 0.9862 0.51498 0.20542   -0.671401
 O 0.39265 0.04857 0.51493   -0.859087
 O 0.2949 0.3167 0.78542   -0.427474
 O 0.19566 0.32974 0.87038   -0.662642
 O 0.99371 0.32623 0.892   -0.643802
 O 0.87443 0.45583 0.9342   -0.69109
 O 0.92074 0.64646 0.88723   -0.628658
 O 0.55097 0.12009 0.31085   -0.725631
 O 0.48502 0.0138 0.29458   -0.671401
 O 0.95143 0.60735 0.98507   -0.859087
 O 0.3167 0.2949 0.28542   -0.427473
 O 0.32974 0.19566 0.37038   -0.662642
 O 0.32623 0.99371 0.392   -0.643802
 O 0.45583 0.87443 0.4342   -0.69109
 O 0.64646 0.92074 0.38723   -0.628658
 O 0.12009 0.55097 0.81085   -0.725631
 O 0.0138 0.48502 0.79458   -0.671401
 O 0.60735 0.95143 0.48507   -0.859087
 O 0.7051 0.6833 0.21458   -0.427474
 O 0.80434 0.67026 0.12962   -0.662642
 O 0.00629 0.67377 0.108   -0.643802
 O 0.12557 0.54417 0.0658   -0.69109
 O 0.07926 0.35354 0.11277   -0.628658
 O 0.44903 0.87991 0.68915   -0.725631
 O 0.51498 0.9862 0.70542   -0.671401
 O 0.04857 0.39265 0.01493   -0.859087
