{'_ref': 'TBD', '_srcid': 'CAKYAQ_clean', 'submitters': [{'name': 'Dalar Nazarian Jeff Camp and David Sholl', 'email': 'dalar@gatech.edu jcamp6@gatech.edu'}], '_method': 'VASP DFT with PBE;DDEC'}
data_Zn3H21C27N3O10
_symmetry_space_group_name_H-M   'P 1'
_cell_length_a   9.42720000
_cell_length_b   18.66200000
_cell_length_c   20.46100000
_cell_angle_alpha   90.00000000
_cell_angle_beta   90.00000000
_cell_angle_gamma   90.00000000
_symmetry_Int_Tables_number   1
_chemical_formula_structural   Zn3H21C27N3O10
_chemical_formula_sum   'Zn12 H84 C108 N12 O40'
_cell_volume   3599.71204535
_cell_formula_units_Z   4
loop_
 _symmetry_equiv_pos_site_id
 _symmetry_equiv_pos_as_xyz
  1  'x, y, z'
loop_
 _atom_site_label
 _atom_site_fract_x
 _atom_site_fract_y
 _atom_site_fract_z
 _atom_site_charge
 Zn 0.74652 0.36553 0.33262   1.003259
 Zn 0.44865 0.27238 0.38352   1.130296
 Zn 0.64399 0.67736 0.07596   0.984708
 Zn 0.74652 0.63447 0.66738   1.003259
 Zn 0.44865 0.72762 0.61648   1.130296
 Zn 0.64399 0.32264 0.92404   0.984708
 Zn 0.24652 0.86553 0.16738   1.003259
 Zn 0.94865 0.77238 0.11648   1.130297
 Zn 0.14399 0.17736 0.42404   0.984709
 Zn 0.24652 0.13447 0.83262   1.003259
 Zn 0.94865 0.22762 0.88352   1.130297
 Zn 0.14399 0.82264 0.57596   0.984709
 H 0.69 0.2425 0.363   0.442799
 H 0.18 0.286 0.379   0.452102
 H 0.1885 0.2326 0.0713   0.313522
 H 0.53 0.5277 0.2305   0.090915
 H 0.1531 0.602 0.1725   0.091034
 H 0.0441 0.5141 0.2341   0.100288
 H 0.1749 0.4329 0.293   0.090956
 H 0.2385 0.4286 0.4264   0.094345
 H 0.7165 0.0965 0.4561   0.091597
 H 0.995 0.2862 0.2663   0.090193
 H 0.0402 0.3658 0.088   0.076654
 H 0.853 0.4416 0.1072   0.120268
 H 0.7349 0.4356 0.2061   0.084976
 H 0.1227 0.2191 0.1755   0.097463
 H 0.2288 0.2796 0.195   0.09172
 H 0.3852 0.2572 0.9996   0.102057
 H 0.3271 0.3754 0.1589   0.094962
 H 0.5143 0.4449 0.1279   0.118307
 H 0.6367 0.4177 0.0337   0.074628
 H 0.69 0.7575 0.637   0.442799
 H 0.18 0.714 0.621   0.452102
 H 0.1885 0.7674 0.9287   0.313522
 H 0.53 0.4723 0.7695   0.090915
 H 0.1531 0.398 0.8275   0.091034
 H 0.0441 0.4859 0.7659   0.100288
 H 0.1749 0.5671 0.707   0.090956
 H 0.2385 0.5714 0.5736   0.094345
 H 0.7165 0.9035 0.5439   0.091597
 H 0.995 0.7138 0.7337   0.090193
 H 0.0402 0.6342 0.912   0.076654
 H 0.853 0.5584 0.8928   0.120268
 H 0.7349 0.5644 0.7939   0.084976
 H 0.1227 0.7809 0.8245   0.097463
 H 0.2288 0.7204 0.805   0.09172
 H 0.3852 0.7428 0.000399999999999   0.102057
 H 0.3271 0.6246 0.8411   0.094962
 H 0.5143 0.5551 0.8721   0.118307
 H 0.6367 0.5823 0.9663   0.074628
 H 0.19 0.7425 0.137   0.442799
 H 0.68 0.786 0.121   0.452102
 H 0.6885 0.7326 0.4287   0.313522
 H 0.03 0.0277 0.2695   0.090915
 H 0.6531 0.102 0.3275   0.091034
 H 0.5441 0.0141 0.2659   0.100289
 H 0.6749 0.9329 0.207   0.090956
 H 0.7385 0.9286 0.0736   0.094345
 H 0.2165 0.5965 0.0439   0.091597
 H 0.495 0.7862 0.2337   0.090193
 H 0.5402 0.8658 0.412   0.076654
 H 0.353 0.9416 0.3928   0.120268
 H 0.2349 0.9356 0.2939   0.084976
 H 0.6227 0.7191 0.3245   0.097463
 H 0.7288 0.7796 0.305   0.09172
 H 0.8852 0.7572 0.5004   0.102057
 H 0.8271 0.8754 0.3411   0.094962
 H 0.0143 0.9449 0.3721   0.118307
 H 0.1367 0.9177 0.4663   0.074628
 H 0.19 0.2575 0.863   0.442799
 H 0.68 0.214 0.879   0.452102
 H 0.6885 0.2674 0.5713   0.313522
 H 0.03 0.9723 0.7305   0.090915
 H 0.6531 0.898 0.6725   0.091034
 H 0.5441 0.9859 0.7341   0.100289
 H 0.6749 0.0671 0.793   0.090956
 H 0.7385 0.0714 0.9264   0.094345
 H 0.2165 0.4035 0.9561   0.091597
 H 0.495 0.2138 0.7663   0.090193
 H 0.5402 0.1342 0.588   0.076654
 H 0.353 0.0584 0.6072   0.120268
 H 0.2349 0.0644 0.7061   0.084976
 H 0.6227 0.2809 0.6755   0.097463
 H 0.7288 0.2204 0.695   0.09172
 H 0.8852 0.2428 0.4996   0.102057
 H 0.8271 0.1246 0.6589   0.094962
 H 0.0143 0.0551 0.6279   0.118307
 H 0.1367 0.0823 0.5337   0.074628
 H 0.8667 0.5 0.5   0.107808
 H 0.3577 0.5 0.5   0.104027
 H 0.3667 0.0 0.0   0.107808
 H 0.8577 0.0 0.0   0.104027
 H 0.3492 0.0 0.5   0.084648
 H 0.8399 0.0 0.5   0.093925
 H 0.8492 0.5 0.0   0.084648
 H 0.3399 0.5 0.0   0.093925
 C 0.4574 0.4196 0.3054   0.711206
 C 0.3684 0.4726 0.2687   -0.174347
 C 0.4315 0.5249 0.2313   0.001202
 C 0.3531 0.5736 0.1948   -0.157742
 C 0.2075 0.5696 0.1962   -0.025711
 C 0.1426 0.5168 0.2333   -0.119319
 C 0.2204 0.4683 0.2689   -0.020425
 C 0.4283 0.6267 0.1517   0.659836
 C 0.9606 0.413 0.4066   0.66541
 C 0.0403 0.4572 0.4554   -0.150328
 C 0.1883 0.4571 0.4556   -0.035333
 C 0.4358 0.1205 0.4473   0.706429
 C 0.5206 0.0579 0.4735   -0.178656
 C 0.6672 0.0579 0.4736   -0.009982
 C 0.9644 0.317 0.2334   0.142854
 C 0.0348 0.3168 0.1739   -0.054461
 C 0.9927 0.364 0.1279   -0.018377
 C 0.8816 0.4091 0.139   -0.149746
 C 0.8121 0.4057 0.1984   0.152427
 C 0.1552 0.2668 0.164   0.038498
 C 0.4127 0.2947 0.0268   0.067361
 C 0.3346 0.3065 0.0839   0.14902
 C 0.3762 0.3644 0.1208   -0.124394
 C 0.4874 0.4058 0.1026   -0.119874
 C 0.5603 0.3893 0.0461   0.105184
 C 0.4574 0.5804 0.6946   0.711206
 C 0.3684 0.5274 0.7313   -0.174347
 C 0.4315 0.4751 0.7687   0.001202
 C 0.3531 0.4264 0.8052   -0.157742
 C 0.2075 0.4304 0.8038   -0.025711
 C 0.1426 0.4832 0.7667   -0.119319
 C 0.2204 0.5317 0.7311   -0.020425
 C 0.4283 0.3733 0.8483   0.659836
 C 0.9606 0.587 0.5934   0.66541
 C 0.0403 0.5428 0.5446   -0.150328
 C 0.1883 0.5429 0.5444   -0.035333
 C 0.4358 0.8795 0.5527   0.706429
 C 0.5206 0.9421 0.5265   -0.178656
 C 0.6672 0.9421 0.5264   -0.009982
 C 0.9644 0.683 0.7666   0.142854
 C 0.0348 0.6832 0.8261   -0.054461
 C 0.9927 0.636 0.8721   -0.018377
 C 0.8816 0.5909 0.861   -0.149746
 C 0.8121 0.5943 0.8016   0.152427
 C 0.1552 0.7332 0.836   0.038498
 C 0.4127 0.7053 0.9732   0.067361
 C 0.3346 0.6935 0.9161   0.14902
 C 0.3762 0.6356 0.8792   -0.124394
 C 0.4874 0.5942 0.8974   -0.119874
 C 0.5603 0.6107 0.9539   0.105184
 C 0.9574 0.9196 0.1946   0.711206
 C 0.8684 0.9726 0.2313   -0.174347
 C 0.9315 0.0249 0.2687   0.001202
 C 0.8531 0.0736 0.3052   -0.157742
 C 0.7075 0.0696 0.3038   -0.025711
 C 0.6426 0.0168 0.2667   -0.119319
 C 0.7204 0.9683 0.2311   -0.020425
 C 0.9283 0.1267 0.3483   0.659836
 C 0.4606 0.913 0.0934   0.665411
 C 0.5403 0.9572 0.0446   -0.150328
 C 0.6883 0.9571 0.0444   -0.035333
 C 0.9358 0.6205 0.0527   0.706429
 C 0.0206 0.5579 0.0265   -0.178656
 C 0.1672 0.5579 0.0264   -0.009983
 C 0.4644 0.817 0.2666   0.142853
 C 0.5348 0.8168 0.3261   -0.054461
 C 0.4927 0.864 0.3721   -0.018377
 C 0.3816 0.9091 0.361   -0.149746
 C 0.3121 0.9057 0.3016   0.152427
 C 0.6552 0.7668 0.336   0.038498
 C 0.9127 0.7947 0.4732   0.067361
 C 0.8346 0.8065 0.4161   0.14902
 C 0.8762 0.8644 0.3792   -0.124394
 C 0.9874 0.9058 0.3974   -0.119874
 C 0.0603 0.8893 0.4539   0.105184
 C 0.9574 0.0804 0.8054   0.711206
 C 0.8684 0.0274 0.7687   -0.174347
 C 0.9315 0.9751 0.7313   0.001202
 C 0.8531 0.9264 0.6948   -0.157742
 C 0.7075 0.9304 0.6962   -0.025711
 C 0.6426 0.9832 0.7333   -0.119319
 C 0.7204 0.0317 0.7689   -0.020425
 C 0.9283 0.8733 0.6517   0.659836
 C 0.4606 0.087 0.9066   0.665411
 C 0.5403 0.0428 0.9554   -0.150328
 C 0.6883 0.0429 0.9556   -0.035333
 C 0.9358 0.3795 0.9473   0.706429
 C 0.0206 0.4421 0.9735   -0.178656
 C 0.1672 0.4421 0.9736   -0.009983
 C 0.4644 0.183 0.7334   0.142853
 C 0.5348 0.1832 0.6739   -0.054461
 C 0.4927 0.136 0.6279   -0.018377
 C 0.3816 0.0909 0.639   -0.149746
 C 0.3121 0.0943 0.6984   0.152427
 C 0.6552 0.2332 0.664   0.038498
 C 0.9127 0.2053 0.5268   0.067361
 C 0.8346 0.1935 0.5839   0.14902
 C 0.8762 0.1356 0.6208   -0.124394
 C 0.9874 0.0942 0.6026   -0.119874
 C 0.0603 0.1107 0.5461   0.105184
 C 0.9654 0.5 0.5   -0.019186
 C 0.2591 0.5 0.5   -0.131897
 C 0.4654 0.0 0.0   -0.019186
 C 0.7591 0.0 0.0   -0.131897
 C 0.4478 0.0 0.5   0.001207
 C 0.7413 0.0 0.5   -0.116113
 C 0.9478 0.5 0.0   0.001207
 C 0.2413 0.5 0.0   -0.116113
 N 0.8542 0.36 0.245   -0.351594
 N 0.2205 0.2625 0.0997   -0.402419
 N 0.5245 0.334 0.009   -0.327971
 N 0.8542 0.64 0.755   -0.351594
 N 0.2205 0.7375 0.9003   -0.402419
 N 0.5245 0.666 0.991   -0.327971
 N 0.3542 0.86 0.255   -0.351594
 N 0.7205 0.7625 0.4003   -0.402419
 N 0.0245 0.834 0.491   -0.327971
 N 0.3542 0.14 0.745   -0.351594
 N 0.7205 0.2375 0.5997   -0.402419
 N 0.0245 0.166 0.509   -0.327971
 O 0.5893 0.43 0.304   -0.605033
 O 0.3978 0.3698 0.3348   -0.629808
 O 0.5587 0.6119 0.1394   -0.637276
 O 0.3679 0.6789 0.1294   -0.583101
 O 0.8333 0.4332 0.3945   -0.626761
 O 0.016 0.3605 0.381   -0.605987
 O 0.5019 0.1725 0.4262   -0.614444
 O 0.3026 0.1138 0.4501   -0.603368
 O 0.6525 0.28394 0.3637   -0.986552
 O 0.2415 0.2596 0.3971   -0.985681
 O 0.5893 0.57 0.696   -0.605033
 O 0.3978 0.6302 0.6652   -0.629808
 O 0.5587 0.3881 0.8606   -0.637276
 O 0.3679 0.3211 0.8706   -0.583101
 O 0.8333 0.5668 0.6055   -0.626761
 O 0.016 0.6395 0.619   -0.605987
 O 0.5019 0.8275 0.5738   -0.614444
 O 0.3026 0.8862 0.5499   -0.603368
 O 0.6525 0.71606 0.6363   -0.986552
 O 0.2415 0.7404 0.6029   -0.985681
 O 0.0893 0.93 0.196   -0.605033
 O 0.8978 0.8698 0.1652   -0.629808
 O 0.0587 0.1119 0.3606   -0.637276
 O 0.8679 0.1789 0.3706   -0.583101
 O 0.3333 0.9332 0.1055   -0.626761
 O 0.516 0.8605 0.119   -0.605987
 O 0.0019 0.6725 0.0738   -0.614444
 O 0.8026 0.6138 0.0499   -0.603368
 O 0.1525 0.78394 0.1363   -0.986552
 O 0.7415 0.7596 0.1029   -0.985681
 O 0.0893 0.07 0.804   -0.605033
 O 0.8978 0.1302 0.8348   -0.629808
 O 0.0587 0.8881 0.6394   -0.637276
 O 0.8679 0.8211 0.6294   -0.583101
 O 0.3333 0.0668 0.8945   -0.626761
 O 0.516 0.1395 0.881   -0.605987
 O 0.0019 0.3275 0.9262   -0.614444
 O 0.8026 0.3862 0.9501   -0.603368
 O 0.1525 0.21606 0.8637   -0.986552
 O 0.7415 0.2404 0.8971   -0.985681
