{'_ref': 'TBD', '_srcid': 'CAKYAQ_clean', 'submitters': [{'name': 'Dalar Nazarian Jeff Camp and David Sholl', 'email': 'dalar@gatech.edu jcamp6@gatech.edu'}], '_method': 'VASP DFT with PBE;DDEC'}
data_SrH2C3SO5
_symmetry_space_group_name_H-M   'P 1'
_cell_length_a   8.19840000
_cell_length_b   19.13400000
_cell_length_c   19.51900000
_cell_angle_alpha   90.00000000
_cell_angle_beta   90.00000000
_cell_angle_gamma   90.00000000
_symmetry_Int_Tables_number   1
_chemical_formula_structural   SrH2C3SO5
_chemical_formula_sum   'Sr16 H32 C48 S16 O80'
_cell_volume   3061.91011473
_cell_formula_units_Z   16
loop_
 _symmetry_equiv_pos_site_id
 _symmetry_equiv_pos_as_xyz
  1  'x, y, z'
loop_
 _atom_site_label
 _atom_site_fract_x
 _atom_site_fract_y
 _atom_site_fract_z
 _atom_site_charge
 Sr 0.25992 0.997 0.49741   1.626786
 Sr 0.23951 0.7714 0.90144   1.63625
 Sr 0.74008 0.503 0.99741   1.626786
 Sr 0.76049 0.7286 0.40144   1.63625
 Sr 0.75992 0.003 0.00259   1.626786
 Sr 0.73951 0.2286 0.59856   1.63625
 Sr 0.24008 0.497 0.50259   1.626786
 Sr 0.26049 0.2714 0.09856   1.63625
 Sr 0.74008 0.003 0.50259   1.626788
 Sr 0.76049 0.2286 0.09856   1.636246
 Sr 0.25992 0.497 0.00259   1.626788
 Sr 0.23951 0.2714 0.59856   1.636246
 Sr 0.24008 0.997 0.99741   1.626788
 Sr 0.26049 0.7714 0.40144   1.636246
 Sr 0.75992 0.503 0.49741   1.626788
 Sr 0.73951 0.7286 0.90144   1.636246
 H 0.0071 0.9315 0.5839   0.468877
 H 0.0017 0.8938 0.5267   0.473157
 H 0.5169 0.8464 0.7298   0.109043
 H 0.4791 0.0851 0.6935   0.160373
 H 0.9929 0.5685 0.0839   0.468877
 H 0.9983 0.6062 0.0267   0.473157
 H 0.4831 0.6536 0.2298   0.109043
 H 0.5209 0.4149 0.1935   0.160373
 H 0.5071 0.0685 0.9161   0.468877
 H 0.5017 0.1062 0.9733   0.473157
 H 0.0169 0.1536 0.7702   0.109043
 H 0.9791 0.9149 0.8065   0.160373
 H 0.4929 0.4315 0.4161   0.468877
 H 0.4983 0.3938 0.4733   0.473157
 H 0.9831 0.3464 0.2702   0.109043
 H 0.0209 0.5851 0.3065   0.160373
 H 0.9929 0.0685 0.4161   0.468877
 H 0.9983 0.1062 0.4733   0.473157
 H 0.4831 0.1536 0.2702   0.109044
 H 0.5209 0.9149 0.3065   0.160373
 H 0.0071 0.4315 0.9161   0.468877
 H 0.0017 0.3938 0.9733   0.473157
 H 0.5169 0.3464 0.7702   0.109044
 H 0.4791 0.5851 0.8065   0.160373
 H 0.4929 0.9315 0.0839   0.468877
 H 0.4983 0.8938 0.0267   0.473157
 H 0.9831 0.8464 0.2298   0.109043
 H 0.0209 0.0851 0.1935   0.160373
 H 0.5071 0.5685 0.5839   0.468877
 H 0.5017 0.6062 0.5267   0.473157
 H 0.0169 0.6536 0.7298   0.109043
 H 0.9791 0.4149 0.6935   0.160373
 C 0.4978 0.9207 0.6578   -0.306107
 C 0.5037 0.8942 0.7231   0.087424
 C 0.4901 0.9384 0.7793   -0.349667
 C 0.4848 0.0125 0.7683   0.449773
 C 0.4845 0.0371 0.7006   -0.340461
 C 0.4918 0.9947 0.6446   0.463726
 C 0.5022 0.5793 0.1578   -0.306107
 C 0.4963 0.6058 0.2231   0.087424
 C 0.5099 0.5616 0.2793   -0.349667
 C 0.5152 0.4875 0.2683   0.449773
 C 0.5155 0.4629 0.2006   -0.340461
 C 0.5082 0.5053 0.1446   0.463726
 C 0.9978 0.0793 0.8422   -0.306107
 C 0.0037 0.1058 0.7769   0.087424
 C 0.9901 0.0616 0.7207   -0.349667
 C 0.9848 0.9875 0.7317   0.449773
 C 0.9845 0.9629 0.7994   -0.340462
 C 0.9918 0.0053 0.8554   0.463726
 C 0.0022 0.4207 0.3422   -0.306107
 C 0.9963 0.3942 0.2769   0.087424
 C 0.0099 0.4384 0.2207   -0.349667
 C 0.0152 0.5125 0.2317   0.449773
 C 0.0155 0.5371 0.2994   -0.340462
 C 0.0082 0.4947 0.3554   0.463726
 C 0.5022 0.0793 0.3422   -0.306107
 C 0.4963 0.1058 0.2769   0.087424
 C 0.5099 0.0616 0.2207   -0.349667
 C 0.5152 0.9875 0.2317   0.449773
 C 0.5155 0.9629 0.2994   -0.340461
 C 0.5082 0.0053 0.3554   0.463726
 C 0.4978 0.4207 0.8422   -0.306107
 C 0.5037 0.3942 0.7769   0.087424
 C 0.4901 0.4384 0.7207   -0.349667
 C 0.4848 0.5125 0.7317   0.449773
 C 0.4845 0.5371 0.7994   -0.340461
 C 0.4918 0.4947 0.8554   0.463726
 C 0.0022 0.9207 0.1578   -0.306107
 C 0.9963 0.8942 0.2231   0.087424
 C 0.0099 0.9384 0.2793   -0.349667
 C 0.0152 0.0125 0.2683   0.449773
 C 0.0155 0.0371 0.2006   -0.340462
 C 0.0082 0.9947 0.1446   0.463726
 C 0.9978 0.5793 0.6578   -0.306107
 C 0.0037 0.6058 0.7231   0.087424
 C 0.9901 0.5616 0.7793   -0.349667
 C 0.9848 0.4875 0.7683   0.449773
 C 0.9845 0.4629 0.7006   -0.340462
 C 0.9918 0.5053 0.6446   0.463726
 S 0.50408 0.86524 0.5868   1.4036
 S 0.50019 0.90449 0.86331   1.445897
 S 0.49592 0.63476 0.0868   1.4036
 S 0.49981 0.59551 0.36331   1.445897
 S 0.00408 0.13476 0.9132   1.4036
 S 0.000190000000004 0.09551 0.63669   1.445897
 S 0.99592 0.36524 0.4132   1.4036
 S 0.99981 0.40449 0.13669   1.445897
 S 0.49592 0.13476 0.4132   1.4036
 S 0.49981 0.09551 0.13669   1.445897
 S 0.50408 0.36524 0.9132   1.4036
 S 0.50019 0.40449 0.63669   1.445897
 S 0.99592 0.86524 0.0868   1.4036
 S 0.99981 0.90449 0.36331   1.445897
 S 0.00408 0.63476 0.5868   1.4036
 S 0.000190000000004 0.59551 0.86331   1.445897
 O 0.3556 0.8784 0.5482   -0.765934
 O 0.0043 0.9337 0.54194   -0.955211
 O 0.6499 0.8829 0.5464   -0.732603
 O 0.9567 0.8315 0.9015   -0.77628
 O 0.5129 0.79316 0.6115   -0.651277
 O 0.5193 0.8292 0.856   -0.835992
 O 0.3439 0.9222 0.8968   -0.775828
 O 0.6395 0.9358 0.8983   -0.666449
 O 0.4919 0.01961 0.58214   -0.689777
 O 0.4688 0.0542 0.8219   -0.479317
 O 0.6444 0.6216 0.0482   -0.765934
 O 0.9957 0.5663 0.04194   -0.955211
 O 0.3501 0.6171 0.0464   -0.732603
 O 0.0433 0.6685 0.4015   -0.77628
 O 0.4871 0.70684 0.1115   -0.651277
 O 0.4807 0.6708 0.356   -0.835992
 O 0.6561 0.5778 0.3968   -0.775828
 O 0.3605 0.5642 0.3983   -0.666449
 O 0.5081 0.48039 0.08214   -0.689777
 O 0.5312 0.4458 0.3219   -0.479317
 O 0.8556 0.1216 0.9518   -0.765934
 O 0.5043 0.0663 0.95806   -0.955211
 O 0.1499 0.1171 0.9536   -0.732603
 O 0.4567 0.1685 0.5985   -0.776279
 O 0.0129 0.20684 0.8885   -0.651277
 O 0.0193 0.1708 0.644   -0.835992
 O 0.8439 0.0778 0.6032   -0.775828
 O 0.1395 0.0642 0.6017   -0.666449
 O 0.9919 0.98039 0.91786   -0.689776
 O 0.9688 0.9458 0.6781   -0.479317
 O 0.1444 0.3784 0.4518   -0.765934
 O 0.4957 0.4337 0.45806   -0.955211
 O 0.8501 0.3829 0.4536   -0.732603
 O 0.5433 0.3315 0.0985   -0.776279
 O 0.9871 0.29316 0.3885   -0.651277
 O 0.9807 0.3292 0.144   -0.835992
 O 0.1561 0.4222 0.1032   -0.775828
 O 0.8605 0.4358 0.1017   -0.666449
 O 0.0081 0.51961 0.41786   -0.689776
 O 0.0312 0.5542 0.1781   -0.479317
 O 0.6444 0.1216 0.4518   -0.765935
 O 0.9957 0.0663 0.45806   -0.955211
 O 0.3501 0.1171 0.4536   -0.732603
 O 0.0433 0.1685 0.0985   -0.77628
 O 0.4871 0.20684 0.3885   -0.651281
 O 0.4807 0.1708 0.144   -0.835992
 O 0.6561 0.0778 0.1032   -0.775828
 O 0.3605 0.0642 0.1017   -0.66645
 O 0.5081 0.98039 0.41786   -0.689777
 O 0.5312 0.9458 0.1781   -0.479318
 O 0.3556 0.3784 0.9518   -0.765935
 O 0.0043 0.4337 0.95806   -0.955211
 O 0.6499 0.3829 0.9536   -0.732603
 O 0.9567 0.3315 0.5985   -0.77628
 O 0.5129 0.29316 0.8885   -0.651281
 O 0.5193 0.3292 0.644   -0.835992
 O 0.3439 0.4222 0.6032   -0.775828
 O 0.6395 0.4358 0.6017   -0.66645
 O 0.4919 0.51961 0.91786   -0.689777
 O 0.4688 0.5542 0.6781   -0.479318
 O 0.1444 0.8784 0.0482   -0.765935
 O 0.4957 0.9337 0.04194   -0.955211
 O 0.8501 0.8829 0.0464   -0.732603
 O 0.5433 0.8315 0.4015   -0.776279
 O 0.9871 0.79316 0.1115   -0.651281
 O 0.9807 0.8292 0.356   -0.835992
 O 0.1561 0.9222 0.3968   -0.775828
 O 0.8605 0.9358 0.3983   -0.666449
 O 0.0081 0.01961 0.08214   -0.689776
 O 0.0312 0.0542 0.3219   -0.479318
 O 0.8556 0.6216 0.5482   -0.765935
 O 0.5043 0.5663 0.54194   -0.955211
 O 0.1499 0.6171 0.5464   -0.732603
 O 0.4567 0.6685 0.9015   -0.776279
 O 0.0129 0.70684 0.6115   -0.651281
 O 0.0193 0.6708 0.856   -0.835992
 O 0.8439 0.5778 0.8968   -0.775828
 O 0.1395 0.5642 0.8983   -0.666449
 O 0.9919 0.48039 0.58214   -0.689776
 O 0.9688 0.4458 0.8219   -0.479318
