{'_ref': 'TBD', '_srcid': 'CAKYAQ_clean', 'submitters': [{'name': 'Dalar Nazarian Jeff Camp and David Sholl', 'email': 'dalar@gatech.edu jcamp6@gatech.edu'}], '_method': 'VASP DFT with PBE;DDEC'}
data_Zn2H24C27(NO2)4
_symmetry_space_group_name_H-M   'P 1'
_cell_length_a   10.84710000
_cell_length_b   18.23199964
_cell_length_c   18.89400000
_cell_angle_alpha   108.71099889
_cell_angle_beta   90.00000000
_cell_angle_gamma   90.00000000
_symmetry_Int_Tables_number   1
_chemical_formula_structural   Zn2H24C27(NO2)4
_chemical_formula_sum   'Zn8 H96 C108 N16 O32'
_cell_volume   3539.0771668
_cell_formula_units_Z   4
loop_
 _symmetry_equiv_pos_site_id
 _symmetry_equiv_pos_as_xyz
  1  'x, y, z'
loop_
 _atom_site_label
 _atom_site_fract_x
 _atom_site_fract_y
 _atom_site_fract_z
 _atom_site_charge
 Zn 0.80482 0.68363 0.97198   0.962848
 Zn 0.80603 0.78874 0.87493   0.952591
 Zn 0.69518 0.18363 0.47198   0.962848
 Zn 0.69397 0.28874 0.37493   0.952591
 Zn 0.30482 0.81637 0.52802   0.962848
 Zn 0.30603 0.71126 0.62507   0.952591
 Zn 0.19518 0.31637 0.02802   0.962848
 Zn 0.19397 0.21126 0.12507   0.952591
 H 0.4924 0.3854 0.3176   0.112439
 H 0.5386 0.4589 0.2314   0.135404
 H 0.9144 0.3325 0.3103   0.168414
 H 0.9271 0.3348 0.2267   0.143018
 H 0.95 0.4117 0.2959   0.128296
 H 0.8309 0.4076 0.1484   0.072178
 H 0.7241 0.4691 0.1524   0.086456
 H 0.8308 0.5671 0.2347   0.089517
 H 0.9226 0.5086 0.256   0.108466
 H 0.014 0.4757 0.136   0.10047
 H 0.0266 0.5666 0.1789   0.082458
 H 0.8526 0.4326 0.0222   0.134353
 H 0.7644 0.5044 0.943   0.113346
 H 0.9133 0.7278 0.1224   0.171913
 H 0.9004 0.6913 0.1886   0.137064
 H 0.0262 0.6813 0.1422   0.139448
 H 0.7123 0.995 0.0531   0.11428
 H 0.6835 0.1039 0.1575   0.096647
 H 0.7577 0.9764 0.2922   0.093025
 H 0.7915 0.8687 0.1877   0.095233
 H 0.201 0.783 0.8422   0.107951
 H 0.4148 0.7721 0.8375   0.100695
 H 0.4105 0.6931 0.0135   0.102451
 H 0.1966 0.7019 0.0183   0.096233
 H 0.0076 0.8854 0.8176   0.112439
 H 0.9614 0.9589 0.7314   0.135404
 H 0.5856 0.8325 0.8103   0.168414
 H 0.5729 0.8348 0.7267   0.143018
 H 0.55 0.9117 0.7959   0.128297
 H 0.6691 0.9076 0.6484   0.072178
 H 0.7759 0.9691 0.6524   0.086456
 H 0.6692 0.0671 0.7347   0.089517
 H 0.5774 0.0086 0.756   0.108466
 H 0.486 0.9757 0.636   0.10047
 H 0.4734 0.0666 0.6789   0.082458
 H 0.6474 0.9326 0.5222   0.134353
 H 0.7356 0.0044 0.443   0.113347
 H 0.5867 0.2278 0.6224   0.171913
 H 0.5996 0.1913 0.6886   0.137064
 H 0.4738 0.1813 0.6422   0.139448
 H 0.7877 0.495 0.5531   0.11428
 H 0.8165 0.6039 0.6575   0.096647
 H 0.7423 0.4764 0.7922   0.093025
 H 0.7085 0.3687 0.6877   0.095233
 H 0.299 0.283 0.3422   0.107951
 H 0.0852 0.2721 0.3375   0.100695
 H 0.0895 0.1931 0.5135   0.102451
 H 0.3034 0.2019 0.5183   0.096233
 H 0.9924 0.1146 0.1824   0.112439
 H 0.0386 0.0411 0.2686   0.135404
 H 0.4144 0.1675 0.1897   0.168414
 H 0.4271 0.1652 0.2733   0.143018
 H 0.45 0.0883 0.2041   0.128296
 H 0.3309 0.0924 0.3516   0.072178
 H 0.2241 0.0309 0.3476   0.086456
 H 0.3308 0.9329 0.2653   0.089516
 H 0.4226 0.9914 0.244   0.108466
 H 0.514 0.0243 0.364   0.10047
 H 0.5266 0.9334 0.3211   0.082458
 H 0.3526 0.0674 0.4778   0.134353
 H 0.2644 0.9956 0.557   0.113348
 H 0.4133 0.7722 0.3776   0.171913
 H 0.4004 0.8087 0.3114   0.137062
 H 0.5262 0.8187 0.3578   0.139446
 H 0.2123 0.505 0.4469   0.114281
 H 0.1835 0.3961 0.3425   0.096647
 H 0.2577 0.5236 0.2078   0.093025
 H 0.2915 0.6313 0.3123   0.095233
 H 0.701 0.717 0.6578   0.107951
 H 0.9148 0.7279 0.6625   0.100695
 H 0.9105 0.8069 0.4865   0.102451
 H 0.6966 0.7981 0.4817   0.096233
 H 0.5076 0.6146 0.6824   0.112439
 H 0.4614 0.5411 0.7686   0.135404
 H 0.0856 0.6675 0.6897   0.168414
 H 0.0729 0.6652 0.7733   0.143018
 H 0.05 0.5883 0.7041   0.128296
 H 0.1691 0.5924 0.8516   0.072178
 H 0.2759 0.5309 0.8476   0.086456
 H 0.1692 0.4329 0.7653   0.089516
 H 0.0774 0.4914 0.744   0.108466
 H 0.986 0.5243 0.864   0.10047
 H 0.9734 0.4334 0.8211   0.082458
 H 0.1474 0.5674 0.9778   0.134353
 H 0.2356 0.4956 0.057   0.113348
 H 0.0867 0.2722 0.8776   0.171913
 H 0.0996 0.3087 0.8114   0.137062
 H 0.9738 0.3187 0.8578   0.139446
 H 0.2877 0.005 0.9469   0.114281
 H 0.3165 0.8961 0.8425   0.096647
 H 0.2423 0.0236 0.7078   0.093026
 H 0.2085 0.1313 0.8123   0.095233
 H 0.799 0.217 0.1578   0.107951
 H 0.5852 0.2279 0.1625   0.100695
 H 0.5895 0.3069 0.9865   0.102451
 H 0.8034 0.2981 0.9817   0.096233
 C 0.5714 0.392 0.2989   0.046636
 C 0.5965 0.432 0.2517   -0.179228
 C 0.7687 0.384 0.2777   0.340152
 C 0.9013 0.364 0.2776   -0.432824
 C 0.786 0.4523 0.1825   -0.010892
 C 0.8766 0.5178 0.2144   -0.201942
 C 0.9671 0.5247 0.1554   -0.028222
 C 0.8543 0.4871 0.0322   -0.170788
 C 0.8064 0.5266 0.9891   0.022854
 C 0.8886 0.6107 0.0849   0.332656
 C 0.9363 0.6841 0.1392   -0.429587
 C 0.7806 0.8527 0.0422   0.694355
 C 0.7574 0.9213 0.11   -0.111569
 C 0.7233 0.9913 0.1017   -0.056398
 C 0.705 0.0558 0.1638   -0.065221
 C 0.7178 0.0508 0.2347   -0.124162
 C 0.6981 0.1217 0.302   0.671296
 C 0.7496 0.9805 0.2435   -0.083915
 C 0.7693 0.9166 0.1814   -0.078635
 C 0.0404 0.7436 0.9294   0.676546
 C 0.1779 0.7428 0.9302   -0.126694
 C 0.2433 0.7642 0.8769   -0.068642
 C 0.3701 0.7581 0.8744   -0.052812
 C 0.4326 0.7318 0.9252   -0.118144
 C 0.5708 0.7273 0.9233   0.683898
 C 0.3676 0.7111 0.9785   -0.069672
 C 0.2408 0.7163 0.9814   -0.086588
 C 0.9286 0.892 0.7989   0.046636
 C 0.9035 0.932 0.7517   -0.179228
 C 0.7313 0.884 0.7777   0.340152
 C 0.5987 0.864 0.7776   -0.432823
 C 0.714 0.9523 0.6825   -0.010892
 C 0.6234 0.0178 0.7144   -0.201942
 C 0.5329 0.0247 0.6554   -0.028222
 C 0.6457 0.9871 0.5322   -0.170788
 C 0.6936 0.0266 0.4891   0.022853
 C 0.6114 0.1107 0.5849   0.332656
 C 0.5637 0.1841 0.6392   -0.429587
 C 0.7194 0.3527 0.5422   0.694355
 C 0.7426 0.4213 0.61   -0.111569
 C 0.7767 0.4913 0.6017   -0.056398
 C 0.795 0.5558 0.6638   -0.065221
 C 0.7822 0.5508 0.7347   -0.124162
 C 0.8019 0.6217 0.802   0.671296
 C 0.7504 0.4805 0.7435   -0.083916
 C 0.7307 0.4166 0.6814   -0.078634
 C 0.4596 0.2436 0.4294   0.676546
 C 0.3221 0.2428 0.4302   -0.126694
 C 0.2567 0.2642 0.3769   -0.068642
 C 0.1299 0.2581 0.3744   -0.052812
 C 0.0674 0.2318 0.4252   -0.118144
 C 0.9292 0.2273 0.4233   0.683898
 C 0.1324 0.2111 0.4785   -0.069672
 C 0.2592 0.2163 0.4814   -0.086588
 C 0.0714 0.108 0.2011   0.046636
 C 0.0965 0.068 0.2483   -0.179228
 C 0.2687 0.116 0.2223   0.340152
 C 0.4013 0.136 0.2224   -0.432824
 C 0.286 0.0477 0.3175   -0.010892
 C 0.3766 0.9822 0.2856   -0.201941
 C 0.4671 0.9753 0.3446   -0.028222
 C 0.3543 0.0129 0.4678   -0.170788
 C 0.3064 0.9734 0.5109   0.022854
 C 0.3886 0.8893 0.4151   0.332656
 C 0.4363 0.8159 0.3608   -0.429586
 C 0.2806 0.6473 0.4578   0.694355
 C 0.2574 0.5787 0.39   -0.111569
 C 0.2233 0.5087 0.3983   -0.056398
 C 0.205 0.4442 0.3362   -0.065221
 C 0.2178 0.4492 0.2653   -0.124162
 C 0.1981 0.3783 0.198   0.671296
 C 0.2496 0.5195 0.2565   -0.083916
 C 0.2693 0.5834 0.3186   -0.078634
 C 0.5404 0.7564 0.5706   0.676546
 C 0.6779 0.7572 0.5698   -0.126694
 C 0.7433 0.7358 0.6231   -0.068642
 C 0.8701 0.7419 0.6256   -0.052812
 C 0.9326 0.7682 0.5748   -0.118144
 C 0.0708 0.7727 0.5767   0.683898
 C 0.8676 0.7889 0.5215   -0.069672
 C 0.7408 0.7837 0.5186   -0.086588
 C 0.4286 0.608 0.7011   0.046637
 C 0.4035 0.568 0.7483   -0.179228
 C 0.2313 0.616 0.7223   0.340152
 C 0.0987 0.636 0.7224   -0.432823
 C 0.214 0.5477 0.8175   -0.010892
 C 0.1234 0.4822 0.7856   -0.201941
 C 0.0329 0.4753 0.8446   -0.028222
 C 0.1457 0.5129 0.9678   -0.170788
 C 0.1936 0.4734 0.0109   0.022853
 C 0.1114 0.3893 0.9151   0.332656
 C 0.0637 0.3159 0.8608   -0.429586
 C 0.2194 0.1473 0.9578   0.694355
 C 0.2426 0.0787 0.89   -0.111569
 C 0.2767 0.0087 0.8983   -0.056398
 C 0.295 0.9442 0.8362   -0.065221
 C 0.2822 0.9492 0.7653   -0.124162
 C 0.3019 0.8783 0.698   0.671296
 C 0.2504 0.0195 0.7565   -0.083916
 C 0.2307 0.0834 0.8186   -0.078634
 C 0.9596 0.2564 0.0706   0.676546
 C 0.8221 0.2572 0.0698   -0.126694
 C 0.7567 0.2358 0.1231   -0.068642
 C 0.6299 0.2419 0.1256   -0.052812
 C 0.5674 0.2682 0.0748   -0.118144
 C 0.4292 0.2727 0.0767   0.683898
 C 0.6324 0.2889 0.0215   -0.069672
 C 0.7592 0.2837 0.0186   -0.086588
 N 0.6817 0.36215 0.31529   -0.410186
 N 0.7213 0.4267 0.2385   -0.005022
 N 0.906 0.5411 0.0931   -0.004641
 N 0.8284 0.6041 0.02288   -0.401526
 N 0.8183 0.86215 0.81529   -0.410186
 N 0.7787 0.9267 0.7385   -0.005022
 N 0.594 0.0411 0.5931   -0.004641
 N 0.6716 0.1041 0.52288   -0.401526
 N 0.1817 0.13785 0.18471   -0.410186
 N 0.2213 0.0733 0.2615   -0.005021
 N 0.406 0.9589 0.4069   -0.004641
 N 0.3284 0.8959 0.47712   -0.401526
 N 0.3183 0.63785 0.68471   -0.410186
 N 0.2787 0.5733 0.7615   -0.005021
 N 0.094 0.4589 0.9069   -0.004641
 N 0.1716 0.3959 0.97712   -0.401526
 O 0.7951 0.78922 0.0521   -0.613695
 O 0.7845 0.86471 0.9814   -0.595343
 O 0.6855 0.18493 0.29077   -0.575159
 O 0.6966 0.1113 0.36389   -0.615582
 O 0.9886 0.78242 0.89467   -0.576172
 O 0.9876 0.7029 0.9625   -0.618515
 O 0.6265 0.75969 0.88413   -0.595863
 O 0.6212 0.6924 0.9628   -0.605949
 O 0.7049 0.28922 0.5521   -0.613695
 O 0.7155 0.36471 0.4814   -0.595343
 O 0.8145 0.68493 0.79077   -0.575159
 O 0.8034 0.6113 0.86389   -0.615582
 O 0.5114 0.28242 0.39467   -0.576172
 O 0.5124 0.2029 0.4625   -0.618515
 O 0.8735 0.25969 0.38413   -0.595863
 O 0.8788 0.1924 0.4628   -0.605949
 O 0.2951 0.71078 0.4479   -0.613695
 O 0.2845 0.63529 0.5186   -0.595343
 O 0.1855 0.31507 0.20923   -0.575159
 O 0.1966 0.3887 0.13611   -0.615582
 O 0.4886 0.71758 0.60533   -0.576172
 O 0.4876 0.7971 0.5375   -0.618515
 O 0.1265 0.74031 0.61587   -0.595863
 O 0.1212 0.8076 0.5372   -0.605949
 O 0.2049 0.21078 0.9479   -0.613695
 O 0.2155 0.13529 0.0186   -0.595343
 O 0.3145 0.81507 0.70923   -0.575159
 O 0.3034 0.8887 0.63611   -0.615582
 O 0.0114 0.21758 0.10533   -0.576172
 O 0.0124 0.2971 0.0375   -0.618515
 O 0.3735 0.24031 0.11587   -0.595863
 O 0.3788 0.3076 0.0372   -0.605949
