{'_ref': 'TBD', '_srcid': 'CAKYAQ_clean', 'submitters': [{'name': 'Dalar Nazarian Jeff Camp and David Sholl', 'email': 'dalar@gatech.edu jcamp6@gatech.edu'}], '_method': 'VASP DFT with PBE;DDEC'}
data_Sm2Co3H16C40(NO3)8
_symmetry_space_group_name_H-M   'P 1'
_cell_length_a   7.59390000
_cell_length_b   10.44599953
_cell_length_c   30.51300000
_cell_angle_alpha   98.99999806
_cell_angle_beta   90.00000000
_cell_angle_gamma   90.00000000
_symmetry_Int_Tables_number   1
_chemical_formula_structural   Sm2Co3H16C40(NO3)8
_chemical_formula_sum   'Sm4 Co6 H32 C80 N16 O48'
_cell_volume   2390.67045498
_cell_formula_units_Z   2
loop_
 _symmetry_equiv_pos_site_id
 _symmetry_equiv_pos_as_xyz
  1  'x, y, z'
loop_
 _atom_site_label
 _atom_site_fract_x
 _atom_site_fract_y
 _atom_site_fract_z
 _atom_site_charge
 Sm 0.36944 0.55075 0.76805   2.383869
 Sm 0.86944 0.44925 0.73195   2.383868
 Sm 0.63056 0.44925 0.23195   2.383869
 Sm 0.13056 0.55075 0.26805   2.383868
 Co 0.55068 0.28611 0.8699   0.956597
 Co 0.05068 0.71389 0.6301   0.956597
 Co 0.44932 0.71389 0.1301   0.956597
 Co 0.94932 0.28611 0.3699   0.956597
 Co 0.5 0.0 0.0   0.952065
 Co 0.0 0.0 0.5   0.952065
 H 0.5508 0.7554 0.9177   0.151904
 H 0.1507 0.798 0.8772   0.13539
 H 0.8788 0.1248 0.9857   0.110071
 H 0.1816 0.9218 0.7824   0.147933
 H 0.5703 0.9732 0.8142   0.133823
 H 0.9687 0.3102 0.8755   0.113725
 H 0.1082 0.0311 0.9378   0.298543
 H 0.1852 0.1661 0.8392   0.307874
 H 0.0508 0.2446 0.5823   0.151904
 H 0.6507 0.202 0.6228   0.13539
 H 0.3788 0.8752 0.5143   0.110071
 H 0.6816 0.0782 0.7176   0.147932
 H 0.0703 0.0268 0.6858   0.133823
 H 0.4687 0.6898 0.6245   0.113725
 H 0.6082 0.9689 0.5622   0.298543
 H 0.6852 0.8339 0.6608   0.307874
 H 0.4492 0.2446 0.0823   0.151904
 H 0.8493 0.202 0.1228   0.13539
 H 0.1212 0.8752 0.0143   0.110069
 H 0.8184 0.0782 0.2176   0.147933
 H 0.4297 0.0268 0.1858   0.133823
 H 0.0313 0.6898 0.1245   0.113723
 H 0.8918 0.9689 0.0622   0.298543
 H 0.8148 0.8339 0.1608   0.307874
 H 0.9492 0.7554 0.4177   0.151904
 H 0.3493 0.798 0.3772   0.13539
 H 0.6212 0.1248 0.4857   0.110069
 H 0.3184 0.9218 0.2824   0.147932
 H 0.9297 0.9732 0.3142   0.133823
 H 0.5313 0.3102 0.3755   0.113723
 H 0.3918 0.0311 0.4378   0.298543
 H 0.3148 0.1661 0.3392   0.307874
 C 0.4306 0.1053 0.92301   0.5008
 C 0.5291 0.2103 0.95506   0.485578
 C 0.6465 0.5543 0.86005   0.777939
 C 0.7517 0.6728 0.87801   -0.054299
 C 0.6706 0.7635 0.9096   -0.150816
 C 0.7743 0.8672 0.92894   0.181982
 C 0.9479 0.8809 0.91582   0.090959
 C 0.0309 0.789 0.88517   -0.108459
 C 0.9315 0.6838 0.86664   -0.142125
 C 0.0105 0.5852 0.83186   0.775551
 C 0.8718 0.0452 0.96584   0.239546
 C 0.9997 0.7364 0.73277   0.766326
 C 0.9376 0.841 0.76953   -0.043636
 C 0.059 0.9325 0.78811   -0.168473
 C 0.9928 0.0409 0.81553   0.136892
 C 0.8119 0.0595 0.82441   0.147765
 C 0.6921 0.964 0.80739   -0.087425
 C 0.7555 0.8547 0.78003   -0.162231
 C 0.6269 0.7496 0.76507   0.748756
 C 0.9457 0.2282 0.85816   0.273631
 C 0.9306 0.8947 0.57699   0.5008
 C 0.0291 0.7897 0.54494   0.485578
 C 0.1465 0.4457 0.63995   0.777939
 C 0.2517 0.3272 0.62199   -0.054299
 C 0.1706 0.2365 0.5904   -0.150816
 C 0.2743 0.1328 0.57106   0.181982
 C 0.4479 0.1191 0.58418   0.090959
 C 0.5309 0.211 0.61483   -0.108459
 C 0.4315 0.3162 0.63336   -0.142125
 C 0.5105 0.4148 0.66814   0.775551
 C 0.3718 0.9548 0.53416   0.239546
 C 0.4997 0.2636 0.76723   0.766326
 C 0.4376 0.159 0.73047   -0.043637
 C 0.559 0.0675 0.71189   -0.168473
 C 0.4928 0.9591 0.68447   0.136893
 C 0.3119 0.9405 0.67559   0.147766
 C 0.1921 0.036 0.69261   -0.087424
 C 0.2555 0.1453 0.71997   -0.162231
 C 0.1269 0.2504 0.73493   0.748756
 C 0.4457 0.7718 0.64184   0.273631
 C 0.5694 0.8947 0.07699   0.500801
 C 0.4709 0.7897 0.04494   0.485573
 C 0.3535 0.4457 0.13995   0.777939
 C 0.2483 0.3272 0.12199   -0.054298
 C 0.3294 0.2365 0.0904   -0.150821
 C 0.2257 0.1328 0.07106   0.181982
 C 0.0521 0.1191 0.08418   0.090959
 C 0.9691 0.211 0.11483   -0.108459
 C 0.0685 0.3162 0.13336   -0.142126
 C 0.9895 0.4148 0.16814   0.775551
 C 0.1282 0.9548 0.03416   0.239547
 C 0.000300000000003 0.2636 0.26723   0.766326
 C 0.0624 0.159 0.23047   -0.043636
 C 0.941 0.0675 0.21189   -0.168473
 C 0.0072 0.9591 0.18447   0.136892
 C 0.1881 0.9405 0.17559   0.147765
 C 0.3079 0.036 0.19261   -0.087425
 C 0.2445 0.1453 0.21997   -0.162231
 C 0.3731 0.2504 0.23493   0.748756
 C 0.0543 0.7718 0.14184   0.273632
 C 0.0694 0.1053 0.42301   0.500801
 C 0.9709 0.2103 0.45506   0.485573
 C 0.8535 0.5543 0.36005   0.777939
 C 0.7483 0.6728 0.37801   -0.054298
 C 0.8294 0.7635 0.4096   -0.150821
 C 0.7257 0.8672 0.42894   0.181982
 C 0.5521 0.8809 0.41582   0.090959
 C 0.4691 0.789 0.38517   -0.108459
 C 0.5685 0.6838 0.36664   -0.142126
 C 0.4895 0.5852 0.33186   0.775551
 C 0.6282 0.0452 0.46584   0.239547
 C 0.5003 0.7364 0.23277   0.766326
 C 0.5624 0.841 0.26953   -0.043637
 C 0.441 0.9325 0.28811   -0.168473
 C 0.5072 0.0409 0.31553   0.136893
 C 0.6881 0.0595 0.32441   0.147766
 C 0.8079 0.964 0.30739   -0.087424
 C 0.7445 0.8547 0.28003   -0.162231
 C 0.8731 0.7496 0.26507   0.748756
 C 0.5543 0.2282 0.35816   0.273632
 N 0.7316 0.9713 0.96121   -0.463696
 N 0.0037 0.9959 0.93953   -0.267746
 N 0.7876 0.179 0.85115   -0.443699
 N 0.0713 0.1501 0.83812   -0.281342
 N 0.2316 0.0287 0.53879   -0.463696
 N 0.5037 0.0041 0.56047   -0.267746
 N 0.2876 0.821 0.64885   -0.443699
 N 0.5713 0.8499 0.66188   -0.281342
 N 0.2684 0.0287 0.03879   -0.463696
 N 0.9963 0.0041 0.06047   -0.267747
 N 0.2124 0.821 0.14885   -0.443699
 N 0.9287 0.8499 0.16188   -0.281342
 N 0.7684 0.9713 0.46121   -0.463696
 N 0.4963 0.9959 0.43953   -0.267747
 N 0.7124 0.179 0.35115   -0.443699
 N 0.4287 0.1501 0.33812   -0.281342
 O 0.37 0.0094 0.93908   -0.53714
 O 0.5361 0.1965 0.9954   -0.526928
 O 0.4165 0.1218 0.88378   -0.53466
 O 0.5932 0.3004 0.93867   -0.498955
 O 0.6827 0.4546 0.8764   -0.578165
 O 0.524 0.5654 0.8337   -0.776005
 O 0.1757 0.5821 0.82868   -0.736275
 O 0.9089 0.5089 0.80781   -0.759701
 O 0.9581 0.7529 0.69489   -0.595177
 O 0.0876 0.6406 0.74198   -0.863633
 O 0.6833 0.6356 0.75036   -0.871694
 O 0.4642 0.7702 0.76936   -0.6892
 O 0.87 0.9906 0.56092   -0.53714
 O 0.0361 0.8035 0.5046   -0.526928
 O 0.9165 0.8782 0.61622   -0.53466
 O 0.0932 0.6996 0.56133   -0.498955
 O 0.1827 0.5454 0.6236   -0.578165
 O 0.024 0.4346 0.6663   -0.776005
 O 0.6757 0.4179 0.67132   -0.736275
 O 0.4089 0.4911 0.69219   -0.759701
 O 0.4581 0.2471 0.80511   -0.595177
 O 0.5876 0.3594 0.75802   -0.863633
 O 0.1833 0.3644 0.74964   -0.871694
 O 0.9642 0.2298 0.73064   -0.6892
 O 0.63 0.9906 0.06092   -0.537141
 O 0.4639 0.8035 0.0046   -0.526927
 O 0.5835 0.8782 0.11622   -0.53466
 O 0.4068 0.6996 0.06133   -0.498955
 O 0.3173 0.5454 0.1236   -0.578165
 O 0.476 0.4346 0.1663   -0.776005
 O 0.8243 0.4179 0.17132   -0.736275
 O 0.0911 0.4911 0.19219   -0.759701
 O 0.0419 0.2471 0.30511   -0.595177
 O 0.9124 0.3594 0.25802   -0.863633
 O 0.3167 0.3644 0.24964   -0.871694
 O 0.5358 0.2298 0.23064   -0.6892
 O 0.13 0.0094 0.43908   -0.537141
 O 0.9639 0.1965 0.4954   -0.526927
 O 0.0835 0.1218 0.38378   -0.53466
 O 0.9068 0.3004 0.43867   -0.498955
 O 0.8173 0.4546 0.3764   -0.578165
 O 0.976 0.5654 0.3337   -0.776005
 O 0.3243 0.5821 0.32868   -0.736275
 O 0.5911 0.5089 0.30781   -0.759701
 O 0.5419 0.7529 0.19489   -0.595177
 O 0.4124 0.6406 0.24198   -0.863633
 O 0.8167 0.6356 0.25036   -0.871694
 O 0.0358 0.7702 0.26936   -0.6892
