{'_ref': 'TBD', '_srcid': 'CAKYAQ_clean', 'submitters': [{'name': 'Dalar Nazarian Jeff Camp and David Sholl', 'email': 'dalar@gatech.edu jcamp6@gatech.edu'}], '_method': 'VASP DFT with PBE;DDEC'}
data_Mn2P2H2C4SO6
_symmetry_space_group_name_H-M   'P 1'
_cell_length_a   4.96800000
_cell_length_b   11.62099972
_cell_length_c   19.66900000
_cell_angle_alpha   107.15999914
_cell_angle_beta   90.00000000
_cell_angle_gamma   90.00000000
_symmetry_Int_Tables_number   1
_chemical_formula_structural   Mn2P2H2C4SO6
_chemical_formula_sum   'Mn8 P8 H8 C16 S4 O24'
_cell_volume   1085.00325087
_cell_formula_units_Z   4
loop_
 _symmetry_equiv_pos_site_id
 _symmetry_equiv_pos_as_xyz
  1  'x, y, z'
loop_
 _atom_site_label
 _atom_site_fract_x
 _atom_site_fract_y
 _atom_site_fract_z
 _atom_site_charge
 Mn 0.72526 0.6173 0.73122   1.281124
 Mn 0.72065 0.87847 0.25697   1.237863
 Mn 0.22395 0.87868 0.75777   1.263642
 Mn 0.2259 0.6186 0.234   1.245585
 Mn 0.72526 0.3827 0.26878   1.281125
 Mn 0.72065 0.12153 0.74303   1.237866
 Mn 0.22395 0.12132 0.24223   1.263645
 Mn 0.2259 0.3814 0.766   1.245587
 P 0.2882 0.6732 0.83625   1.522293
 P 0.2833 0.8322 0.15535   1.445497
 P 0.7845 0.3267 0.6626   1.450429
 P 0.7869 0.1675 0.3425   1.524741
 P 0.2882 0.3268 0.16375   1.522293
 P 0.2833 0.1678 0.84465   1.445497
 P 0.7845 0.6733 0.3374   1.450428
 P 0.7869 0.8325 0.6575   1.524741
 H 0.75726 0.76122 0.93202   0.094245
 H 0.76093 0.80588 0.06421   0.093838
 H 0.84766 0.07616 0.5649   0.080598
 H 0.96171 0.02587 0.43491   0.116647
 H 0.75726 0.23878 0.06798   0.094246
 H 0.76093 0.19412 0.93579   0.093838
 H 0.84766 0.92384 0.4351   0.080598
 H 0.96171 0.97413 0.56509   0.116647
 C 0.347 0.7329 0.9303   -0.413031
 C 0.3607 0.7938 0.0633   -0.37952
 C 0.5982 0.7611 0.9597   -0.004186
 C 0.5995 0.7904 0.0362   0.013508
 C 0.833 0.1878 0.4357   -0.377442
 C 0.847 0.2663 0.5685   -0.355389
 C 0.8607 0.1329 0.5381   -0.052555
 C 0.8961 0.1029 0.463   0.012654
 C 0.347 0.2671 0.0697   -0.41303
 C 0.3607 0.2062 0.9367   -0.37952
 C 0.5982 0.2389 0.0403   -0.00419
 C 0.5995 0.2096 0.9638   0.013507
 C 0.833 0.8122 0.5643   -0.377441
 C 0.847 0.7337 0.4315   -0.355389
 C 0.8607 0.8671 0.4619   -0.052555
 C 0.8961 0.8971 0.537   0.012654
 S 0.1143 0.7443 0.99681   0.238525
 S 0.8067 0.3277 0.5028   0.225746
 S 0.1143 0.2557 0.00319   0.238516
 S 0.8067 0.6723 0.4972   0.225735
 O 0.432 0.7494 0.799   -0.874957
 O 0.435 0.5485 0.807   -0.877207
 O 0.9922 0.6656 0.8218   -0.855932
 O 0.429 0.7333 0.1847   -0.852153
 O 0.43 0.9541 0.1903   -0.852857
 O 0.9805 0.8358 0.1672   -0.811722
 O 0.928 0.2399 0.6992   -0.854287
 O 0.932 0.4506 0.6863   -0.851585
 O 0.484 0.3339 0.6746   -0.8236
 O 0.923 0.2583 0.3146   -0.873419
 O 0.92 0.0452 0.3033   -0.885841
 O 0.487 0.1667 0.3314   -0.851243
 O 0.432 0.2506 0.201   -0.874957
 O 0.435 0.4515 0.193   -0.877207
 O 0.9922 0.3344 0.1782   -0.855932
 O 0.429 0.2667 0.8153   -0.852153
 O 0.43 0.0459 0.8097   -0.852857
 O 0.9805 0.1642 0.8328   -0.811722
 O 0.928 0.7601 0.3008   -0.854287
 O 0.932 0.5494 0.3137   -0.851585
 O 0.484 0.6661 0.3254   -0.8236
 O 0.923 0.7417 0.6854   -0.873419
 O 0.92 0.9548 0.6967   -0.885841
 O 0.487 0.8333 0.6686   -0.851243
