{'_ref': 'TBD', '_srcid': 'CAKYAQ_clean', 'submitters': [{'name': 'Dalar Nazarian Jeff Camp and David Sholl', 'email': 'dalar@gatech.edu jcamp6@gatech.edu'}], '_method': 'VASP DFT with PBE;DDEC'}
data_KH16C23N9O
_symmetry_space_group_name_H-M   'P 1'
_cell_length_a   9.63480000
_cell_length_b   20.82200000
_cell_length_c   20.82200000
_cell_angle_alpha   90.00000000
_cell_angle_beta   90.00000000
_cell_angle_gamma   90.00000000
_symmetry_Int_Tables_number   1
_chemical_formula_structural   KH16C23N9O
_chemical_formula_sum   'K8 H128 C184 N72 O8'
_cell_volume   4177.2223042
_cell_formula_units_Z   8
loop_
 _symmetry_equiv_pos_site_id
 _symmetry_equiv_pos_as_xyz
  1  'x, y, z'
loop_
 _atom_site_label
 _atom_site_fract_x
 _atom_site_fract_y
 _atom_site_fract_z
 _atom_site_charge
 K 0.8613 0.163369 0.984366   0.86609
 K 0.8613 0.336631 0.515634   0.86609
 K 0.3613 0.015634 0.663369   0.86609
 K 0.3613 0.484366 0.836631   0.86609
 K 0.1387 0.836631 0.015634   0.86609
 K 0.1387 0.663369 0.484366   0.86609
 K 0.6387 0.984366 0.336631   0.86609
 K 0.6387 0.515634 0.163369   0.86609
 H 0.221 0.1299 0.1757   0.064284
 H 0.221 0.3701 0.3243   0.064284
 H 0.721 0.8243 0.6299   0.064284
 H 0.721 0.6757 0.8701   0.064284
 H 0.779 0.8701 0.8243   0.064284
 H 0.779 0.6299 0.6757   0.064284
 H 0.279 0.1757 0.3701   0.064284
 H 0.279 0.3243 0.1299   0.064284
 H 0.38 0.0466 0.1553   0.124173
 H 0.38 0.4534 0.3447   0.124173
 H 0.88 0.8447 0.5466   0.124173
 H 0.88 0.6553 0.9534   0.124173
 H 0.62 0.9534 0.8447   0.124173
 H 0.62 0.5466 0.6553   0.124173
 H 0.12 0.1553 0.4534   0.124173
 H 0.12 0.3447 0.0466   0.124173
 H 0.374 0.2399 0.0445   0.0701
 H 0.374 0.2601 0.4555   0.0701
 H 0.874 0.9555 0.7399   0.0701
 H 0.874 0.5445 0.7601   0.0701
 H 0.626 0.7601 0.9555   0.0701
 H 0.626 0.7399 0.5445   0.0701
 H 0.126 0.0445 0.2601   0.0701
 H 0.126 0.4555 0.2399   0.0701
 H 0.538 0.1616 0.0171   0.108619
 H 0.538 0.3384 0.4829   0.108619
 H 0.038 0.9829 0.6616   0.108619
 H 0.038 0.5171 0.8384   0.108619
 H 0.462 0.8384 0.9829   0.108619
 H 0.462 0.6616 0.5171   0.108619
 H 0.962 0.0171 0.3384   0.108619
 H 0.962 0.4829 0.1616   0.108619
 H 0.881 0.6333 0.1089   0.067533
 H 0.881 0.8667 0.3911   0.067533
 H 0.381 0.8911 0.1333   0.067533
 H 0.381 0.6089 0.3667   0.067533
 H 0.119 0.3667 0.8911   0.067533
 H 0.119 0.1333 0.6089   0.067533
 H 0.619 0.1089 0.8667   0.067533
 H 0.619 0.3911 0.6333   0.067533
 H 0.903 0.7347 0.0624   0.122209
 H 0.903 0.7653 0.4376   0.122209
 H 0.403 0.9376 0.2347   0.122209
 H 0.403 0.5624 0.2653   0.122209
 H 0.097 0.2653 0.9376   0.122209
 H 0.097 0.2347 0.5624   0.122209
 H 0.597 0.0624 0.7653   0.122209
 H 0.597 0.4376 0.7347   0.122209
 H 0.568 0.6871 0.2145   0.063954
 H 0.568 0.8129 0.2855   0.063954
 H 0.068 0.7855 0.1871   0.063954
 H 0.068 0.7145 0.3129   0.063954
 H 0.432 0.3129 0.7855   0.063954
 H 0.432 0.1871 0.7145   0.063954
 H 0.932 0.2145 0.8129   0.063954
 H 0.932 0.2855 0.6871   0.063954
 H 0.572 0.7946 0.1712   0.116869
 H 0.572 0.7054 0.3288   0.116868
 H 0.072 0.8288 0.2946   0.116868
 H 0.072 0.6712 0.2054   0.116868
 H 0.428 0.2054 0.8288   0.116869
 H 0.428 0.2946 0.6712   0.116868
 H 0.928 0.1712 0.7054   0.116868
 H 0.928 0.3288 0.7946   0.116868
 H 0.116 0.0898 0.7655   0.060531
 H 0.116 0.4102 0.7345   0.060531
 H 0.616 0.2345 0.5898   0.060531
 H 0.616 0.2655 0.9102   0.060531
 H 0.884 0.9102 0.2345   0.060531
 H 0.884 0.5898 0.2655   0.060531
 H 0.384 0.7655 0.4102   0.060531
 H 0.384 0.7345 0.0898   0.060531
 H 0.968 0.0759 0.8561   0.091335
 H 0.968 0.4241 0.6439   0.091335
 H 0.468 0.1439 0.5759   0.091335
 H 0.468 0.3561 0.9241   0.091335
 H 0.032 0.9241 0.1439   0.091335
 H 0.032 0.5759 0.3561   0.091335
 H 0.532 0.8561 0.4241   0.091335
 H 0.532 0.6439 0.0759   0.091335
 H 0.254 0.9188 0.7874   0.060902
 H 0.254 0.5812 0.7126   0.060902
 H 0.754 0.2126 0.4188   0.060902
 H 0.754 0.2874 0.0812   0.060902
 H 0.746 0.0812 0.2126   0.060902
 H 0.746 0.4188 0.2874   0.060902
 H 0.246 0.7874 0.5812   0.060902
 H 0.246 0.7126 0.9188   0.060902
 H 0.104 0.8913 0.8711   0.112497
 H 0.104 0.6087 0.6289   0.112497
 H 0.604 0.1289 0.3913   0.112497
 H 0.604 0.3711 0.1087   0.112497
 H 0.896 0.1087 0.1289   0.112497
 H 0.896 0.3913 0.3711   0.112497
 H 0.396 0.8711 0.6087   0.112497
 H 0.396 0.6289 0.8913   0.112497
 H 0.0383 0.2541 0.1872   0.039818
 H 0.0383 0.2459 0.3128   0.039817
 H 0.5383 0.8128 0.7541   0.039818
 H 0.5383 0.6872 0.7459   0.039817
 H 0.9617 0.7459 0.8128   0.039818
 H 0.9617 0.7541 0.6872   0.039817
 H 0.4617 0.1872 0.2459   0.039818
 H 0.4617 0.3128 0.2541   0.039817
 H 0.9292 0.1965 0.1937   0.035896
 H 0.9292 0.3035 0.3063   0.035896
 H 0.4292 0.8063 0.6965   0.035896
 H 0.4292 0.6937 0.8035   0.035896
 H 0.0708 0.8035 0.8063   0.035896
 H 0.0708 0.6965 0.6937   0.035896
 H 0.5708 0.1937 0.3035   0.035896
 H 0.5708 0.3063 0.1965   0.035896
 H 0.8776 0.2664 0.1721   0.054439
 H 0.8776 0.2336 0.3279   0.054439
 H 0.3776 0.8279 0.7664   0.054439
 H 0.3776 0.6721 0.7336   0.054439
 H 0.1224 0.7336 0.8279   0.054437
 H 0.1224 0.7664 0.6721   0.054437
 H 0.6224 0.1721 0.2336   0.054437
 H 0.6224 0.3279 0.2664   0.054437
 H 0.096 0.202 0.09   0.306862
 H 0.096 0.298 0.41   0.306862
 H 0.596 0.91 0.702   0.306862
 H 0.596 0.59 0.798   0.306862
 H 0.904 0.798 0.91   0.306862
 H 0.904 0.702 0.59   0.306862
 H 0.404 0.09 0.298   0.306862
 H 0.404 0.41 0.202   0.306862
 C 0.47851 0.09561 0.08343   0.027797
 C 0.47851 0.40439 0.41657   0.027797
 C 0.97851 0.91657 0.59561   0.027797
 C 0.97851 0.58343 0.90439   0.027797
 C 0.52149 0.90439 0.91657   0.027797
 C 0.52149 0.59561 0.58343   0.027797
 C 0.02149 0.08343 0.40439   0.027797
 C 0.02149 0.41657 0.09561   0.027797
 C 0.28682 0.13321 0.14604   0.185658
 C 0.28682 0.36679 0.35396   0.185658
 C 0.78682 0.85396 0.63321   0.185659
 C 0.78682 0.64604 0.86679   0.185658
 C 0.71318 0.86679 0.85396   0.185658
 C 0.71318 0.63321 0.64604   0.185658
 C 0.21318 0.14604 0.36679   0.185659
 C 0.21318 0.35396 0.13321   0.185658
 C 0.38317 0.08561 0.13269   -0.14879
 C 0.38317 0.41439 0.36731   -0.14879
 C 0.88317 0.86731 0.58561   -0.14879
 C 0.88317 0.63269 0.91439   -0.14879
 C 0.61683 0.91439 0.86731   -0.14879
 C 0.61683 0.58561 0.63269   -0.14879
 C 0.11683 0.13269 0.41439   -0.14879
 C 0.11683 0.36731 0.08561   -0.14879
 C 0.37304 0.19863 0.06791   0.153505
 C 0.37304 0.30137 0.43209   0.153505
 C 0.87304 0.93209 0.69863   0.153505
 C 0.87304 0.56791 0.80137   0.153505
 C 0.62696 0.80137 0.93209   0.153505
 C 0.62696 0.69863 0.56791   0.153505
 C 0.12696 0.06791 0.30137   0.153505
 C 0.12696 0.43209 0.19863   0.153505
 C 0.47378 0.1541 0.05096   -0.167674
 C 0.47378 0.3459 0.44904   -0.167674
 C 0.97378 0.94904 0.6541   -0.167674
 C 0.97378 0.55096 0.8459   -0.167674
 C 0.52622 0.8459 0.94904   -0.167674
 C 0.52622 0.6541 0.55096   -0.167674
 C 0.02622 0.05096 0.3459   -0.167674
 C 0.02622 0.44904 0.1541   -0.167674
 C 0.57811 0.04444 0.06389   0.461882
 C 0.57811 0.45556 0.43611   0.461882
 C 0.07811 0.93611 0.54444   0.461882
 C 0.07811 0.56389 0.95556   0.461882
 C 0.42189 0.95556 0.93611   0.461882
 C 0.42189 0.54444 0.56389   0.461882
 C 0.92189 0.06389 0.45556   0.461882
 C 0.92189 0.43611 0.04444   0.461882
 C 0.74157 0.77559 0.11305   0.029265
 C 0.74157 0.72441 0.38695   0.029265
 C 0.24157 0.88695 0.27559   0.029265
 C 0.24157 0.61305 0.22441   0.029265
 C 0.25843 0.22441 0.88695   0.029265
 C 0.25843 0.27559 0.61305   0.029265
 C 0.75843 0.11305 0.72441   0.029265
 C 0.75843 0.38695 0.77559   0.029265
 C 0.81926 0.66634 0.12232   0.197431
 C 0.81926 0.83366 0.37768   0.197431
 C 0.31926 0.87768 0.16634   0.197431
 C 0.31926 0.62232 0.33366   0.197431
 C 0.18074 0.33366 0.87768   0.197431
 C 0.18074 0.16634 0.62232   0.197431
 C 0.68074 0.12232 0.83366   0.197431
 C 0.68074 0.37768 0.66634   0.197431
 C 0.83248 0.72688 0.09463   -0.177412
 C 0.83248 0.77312 0.40537   -0.177412
 C 0.33248 0.90537 0.22688   -0.177412
 C 0.33248 0.59463 0.27312   -0.177412
 C 0.16752 0.27312 0.90537   -0.177412
 C 0.16752 0.22688 0.59463   -0.177412
 C 0.66752 0.09463 0.77312   -0.177412
 C 0.66752 0.40537 0.72688   -0.177412
 C 0.6364 0.69884 0.18342   0.185487
 C 0.6364 0.80116 0.31658   0.185487
 C 0.1364 0.81658 0.19884   0.185487
 C 0.1364 0.68342 0.30116   0.185487
 C 0.3636 0.30116 0.81658   0.185487
 C 0.3636 0.19884 0.68342   0.185487
 C 0.8636 0.18342 0.80116   0.185487
 C 0.8636 0.31658 0.69884   0.185487
 C 0.64142 0.76068 0.15859   -0.18887
 C 0.64142 0.73932 0.34141   -0.18887
 C 0.14142 0.84141 0.26068   -0.18887
 C 0.14142 0.65859 0.23932   -0.18887
 C 0.35858 0.23932 0.84141   -0.18887
 C 0.35858 0.26068 0.65859   -0.18887
 C 0.85858 0.15859 0.73932   -0.18887
 C 0.85858 0.34141 0.76068   -0.18887
 C 0.74714 0.84097 0.08332   0.465932
 C 0.74714 0.65903 0.41668   0.465932
 C 0.24714 0.91668 0.34097   0.465932
 C 0.24714 0.58332 0.15903   0.465932
 C 0.25286 0.15903 0.91668   0.465932
 C 0.25286 0.34097 0.58332   0.465932
 C 0.75286 0.08332 0.65903   0.465932
 C 0.75286 0.41668 0.84097   0.465932
 C 0.01765 0.98528 0.87569   0.022853
 C 0.01765 0.51472 0.62431   0.022853
 C 0.51765 0.12431 0.48528   0.022853
 C 0.51765 0.37569 0.01472   0.022853
 C 0.98235 0.01472 0.12431   0.022853
 C 0.98235 0.48528 0.37569   0.022853
 C 0.48235 0.87569 0.51472   0.022853
 C 0.48235 0.62431 0.98528   0.022853
 C 0.11541 0.05098 0.79289   0.173797
 C 0.11541 0.44902 0.70711   0.173797
 C 0.61541 0.20711 0.55098   0.173797
 C 0.61541 0.29289 0.94902   0.173797
 C 0.88459 0.94902 0.20711   0.173797
 C 0.88459 0.55098 0.29289   0.173797
 C 0.38459 0.79289 0.44902   0.173797
 C 0.38459 0.70711 0.05098   0.173797
 C 0.02344 0.04372 0.8437   -0.148046
 C 0.02344 0.45628 0.6563   -0.148046
 C 0.52344 0.1563 0.54372   -0.148046
 C 0.52344 0.3437 0.95628   -0.148046
 C 0.97656 0.95628 0.1563   -0.148046
 C 0.97656 0.54372 0.3437   -0.148046
 C 0.47656 0.8437 0.45628   -0.148046
 C 0.47656 0.6563 0.04372   -0.148046
 C 0.19252 0.94827 0.80319   0.186068
 C 0.19252 0.55173 0.69681   0.186068
 C 0.69252 0.19681 0.44827   0.186068
 C 0.69252 0.30319 0.05173   0.186068
 C 0.80748 0.05173 0.19681   0.186068
 C 0.80748 0.44827 0.30319   0.186068
 C 0.30748 0.80319 0.55173   0.186068
 C 0.30748 0.69681 0.94827   0.186068
 C 0.10442 0.9362 0.85428   -0.177841
 C 0.10442 0.5638 0.64572   -0.177841
 C 0.60442 0.14572 0.4362   -0.177841
 C 0.60442 0.35428 0.0638   -0.177841
 C 0.89558 0.0638 0.14572   -0.177841
 C 0.89558 0.4362 0.35428   -0.177841
 C 0.39558 0.85428 0.5638   -0.177841
 C 0.39558 0.64572 0.9362   -0.177841
 C 0.92264 0.97523 0.93116   0.476829
 C 0.92264 0.52477 0.56884   0.476829
 C 0.42264 0.06884 0.47523   0.476829
 C 0.42264 0.43116 0.02477   0.476829
 C 0.07736 0.02477 0.06884   0.476829
 C 0.07736 0.47523 0.43116   0.476829
 C 0.57736 0.93116 0.52477   0.476829
 C 0.57736 0.56884 0.97523   0.476829
 C 0.75103 0.01365 0.9957   0.558174
 C 0.75103 0.48635 0.5043   0.558174
 C 0.25103 0.0043 0.51365   0.558174
 C 0.25103 0.4957 0.98635   0.558174
 C 0.24897 0.98635 0.0043   0.558174
 C 0.24897 0.51365 0.4957   0.558174
 C 0.74897 0.9957 0.48635   0.558174
 C 0.74897 0.5043 0.01365   0.558174
 C 0.7479 0.9535 0.02592   -0.428428
 C 0.7479 0.5465 0.47408   -0.428428
 C 0.2479 0.97408 0.4535   -0.428428
 C 0.2479 0.52592 0.0465   -0.428428
 C 0.2521 0.0465 0.97408   -0.428428
 C 0.2521 0.4535 0.52592   -0.428428
 C 0.7521 0.02592 0.5465   -0.428428
 C 0.7521 0.47408 0.9535   -0.428428
 C 0.65441 0.94155 0.07599   0.552538
 C 0.65441 0.55845 0.42401   0.552538
 C 0.15441 0.92401 0.44155   0.552538
 C 0.15441 0.57599 0.05845   0.552538
 C 0.34559 0.05845 0.92401   0.552538
 C 0.34559 0.44155 0.57599   0.552538
 C 0.84559 0.07599 0.55845   0.552538
 C 0.84559 0.42401 0.94155   0.552538
 C 0.84255 0.90604 0.00743   0.558464
 C 0.84255 0.59396 0.49257   0.558464
 C 0.34255 0.99257 0.40604   0.558464
 C 0.34255 0.50743 0.09396   0.558464
 C 0.15745 0.09396 0.99257   0.558464
 C 0.15745 0.40604 0.50743   0.558464
 C 0.65745 0.00743 0.59396   0.558464
 C 0.65745 0.49257 0.90604   0.558464
 C 0.9536 0.23521 0.16932   0.074158
 C 0.9536 0.26479 0.33068   0.074158
 C 0.4536 0.83068 0.73521   0.074158
 C 0.4536 0.66932 0.76479   0.074158
 C 0.0464 0.76479 0.83068   0.074158
 C 0.0464 0.73521 0.66932   0.074158
 C 0.5464 0.16932 0.26479   0.074158
 C 0.5464 0.33068 0.23521   0.074158
 N 0.27863 0.18898 0.11399   -0.369558
 N 0.27863 0.31102 0.38601   -0.369558
 N 0.77863 0.88601 0.68898   -0.369558
 N 0.77863 0.61399 0.81102   -0.369558
 N 0.72137 0.81102 0.88601   -0.369558
 N 0.72137 0.68898 0.61399   -0.369558
 N 0.22137 0.11399 0.31102   -0.369558
 N 0.22137 0.38601 0.18898   -0.369558
 N 0.66587 0.06089 0.01615   -0.584818
 N 0.66587 0.43911 0.48385   -0.584818
 N 0.16587 0.98385 0.56089   -0.584818
 N 0.16587 0.51615 0.93911   -0.584818
 N 0.33413 0.93911 0.98385   -0.584818
 N 0.33413 0.56089 0.51615   -0.584818
 N 0.83413 0.01615 0.43911   -0.584818
 N 0.83413 0.48385 0.06089   -0.584818
 N 0.56588 0.98843 0.09501   -0.504313
 N 0.56588 0.51157 0.40499   -0.504313
 N 0.06588 0.90499 0.48843   -0.504313
 N 0.06588 0.59501 0.01157   -0.504313
 N 0.43412 0.01157 0.90499   -0.504313
 N 0.43412 0.48843 0.59501   -0.504313
 N 0.93412 0.09501 0.51157   -0.504313
 N 0.93412 0.40499 0.98843   -0.504313
 N 0.7233 0.65163 0.16645   -0.447953
 N 0.7233 0.84837 0.33355   -0.447953
 N 0.2233 0.83355 0.15163   -0.447953
 N 0.2233 0.66645 0.34837   -0.447953
 N 0.2767 0.34837 0.83355   -0.447953
 N 0.2767 0.15163 0.66645   -0.447953
 N 0.7767 0.16645 0.84837   -0.447953
 N 0.7767 0.33355 0.65163   -0.447953
 N 0.65187 0.88303 0.10445   -0.519817
 N 0.65187 0.61697 0.39555   -0.519817
 N 0.15187 0.89555 0.38303   -0.519817
 N 0.15187 0.60445 0.11697   -0.519817
 N 0.34813 0.11697 0.89555   -0.519817
 N 0.34813 0.38303 0.60445   -0.519817
 N 0.84813 0.10445 0.61697   -0.519817
 N 0.84813 0.39555 0.88303   -0.519817
 N 0.84525 0.84881 0.03822   -0.609378
 N 0.84525 0.65119 0.46178   -0.609378
 N 0.34525 0.96178 0.34881   -0.609378
 N 0.34525 0.53822 0.15119   -0.609378
 N 0.15475 0.15119 0.96178   -0.609378
 N 0.15475 0.34881 0.53822   -0.609378
 N 0.65475 0.03822 0.65119   -0.609378
 N 0.65475 0.46178 0.84881   -0.609378
 N 0.19936 0.00449 0.77214   -0.449765
 N 0.19936 0.49551 0.72786   -0.449765
 N 0.69936 0.22786 0.50449   -0.449765
 N 0.69936 0.27214 0.99551   -0.449765
 N 0.80064 0.99551 0.22786   -0.449765
 N 0.80064 0.50449 0.27214   -0.449765
 N 0.30064 0.77214 0.49551   -0.449765
 N 0.30064 0.72786 0.00449   -0.449765
 N 0.93214 0.91716 0.95905   -0.592287
 N 0.93214 0.58284 0.54095   -0.592287
 N 0.43214 0.04095 0.41716   -0.592287
 N 0.43214 0.45905 0.08284   -0.592287
 N 0.06786 0.08284 0.04095   -0.592287
 N 0.06786 0.41716 0.45905   -0.592287
 N 0.56786 0.95905 0.58284   -0.592287
 N 0.56786 0.54095 0.91716   -0.592287
 N 0.8401 0.02463 0.94655   -0.563317
 N 0.8401 0.47537 0.55345   -0.563317
 N 0.3401 0.05345 0.52463   -0.563317
 N 0.3401 0.44655 0.97537   -0.563317
 N 0.1599 0.97537 0.05345   -0.563317
 N 0.1599 0.52463 0.44655   -0.563317
 N 0.6599 0.94655 0.47537   -0.563317
 N 0.6599 0.55345 0.02463   -0.563317
 O 0.97682 0.21836 0.10275   -0.59768
 O 0.97682 0.28164 0.39725   -0.59768
 O 0.47682 0.89725 0.71836   -0.59768
 O 0.47682 0.60275 0.78164   -0.59768
 O 0.02318 0.78164 0.89725   -0.59768
 O 0.02318 0.71836 0.60275   -0.59768
 O 0.52318 0.10275 0.28164   -0.59768
 O 0.52318 0.39725 0.21836   -0.59768
