{'_ref': 'TBD', '_srcid': 'CAKYAQ_clean', 'submitters': [{'name': 'Dalar Nazarian Jeff Camp and David Sholl', 'email': 'dalar@gatech.edu jcamp6@gatech.edu'}], '_method': 'VASP DFT with PBE;DDEC'}
data_Li2H3C8NO4
_symmetry_space_group_name_H-M   'P 1'
_cell_length_a   9.66599984
_cell_length_b   11.69199972
_cell_length_c   12.36600000
_cell_angle_alpha   72.75000006
_cell_angle_beta   67.91199926
_cell_angle_gamma   76.86900058
_symmetry_Int_Tables_number   1
_chemical_formula_structural   Li2H3C8NO4
_chemical_formula_sum   'Li8 H12 C32 N4 O16'
_cell_volume   1226.1142667
_cell_formula_units_Z   4
loop_
 _symmetry_equiv_pos_site_id
 _symmetry_equiv_pos_as_xyz
  1  'x, y, z'
loop_
 _atom_site_label
 _atom_site_fract_x
 _atom_site_fract_y
 _atom_site_fract_z
 _atom_site_charge
 Li 0.5469 0.3833 0.0533   0.941975
 Li 0.5349 0.0726 0.3875   0.917811
 Li 0.234 0.1085 0.5165   0.940703
 Li 0.5549 0.3074 0.3052   0.894413
 Li 0.4531 0.6167 0.9467   0.941977
 Li 0.4651 0.9274 0.6125   0.91781
 Li 0.766 0.8915 0.4835   0.940704
 Li 0.4451 0.6926 0.6948   0.894415
 H 0.0972 0.1019 0.3381   0.094771
 H 0.8495 0.3306 0.1463   0.077186
 H 0.2516 0.4035 0.1119   0.087999
 H 0.5818 0.6107 0.3486   0.112208
 H 0.5443 0.7739 0.0255   0.070911
 H 0.5382 0.97 0.244   0.088443
 H 0.9028 0.8981 0.6619   0.094771
 H 0.1505 0.6694 0.8537   0.077187
 H 0.7484 0.5965 0.8881   0.087997
 H 0.4182 0.3893 0.6514   0.112209
 H 0.4557 0.2261 0.9745   0.070912
 H 0.4618 0.03 0.756   0.088441
 C 0.33713 0.21815 0.26309   0.828813
 C 0.82672 0.12736 0.31992   0.837532
 C 0.19788 0.24737 0.22866   -0.199358
 C 0.08465 0.1736 0.28242   0.024597
 C 0.95246 0.20569 0.25392   -0.168735
 C 0.93632 0.30952 0.16739   -0.032458
 C 0.05073 0.38182 0.11236   0.132186
 C 0.17816 0.35186 0.14598   -0.038842
 C 0.55552 0.79923 0.4361   0.794718
 C 0.57182 0.55145 0.16284   0.813533
 C 0.55816 0.79175 0.31572   -0.168064
 C 0.56993 0.68129 0.29151   0.031046
 C 0.56434 0.67393 0.18314   -0.163117
 C 0.5477 0.77797 0.09842   -0.065965
 C 0.5358 0.88894 0.12208   0.136887
 C 0.5433 0.89516 0.22972   -0.046627
 C 0.66287 0.78185 0.73691   0.828813
 C 0.17328 0.87264 0.68008   0.837532
 C 0.80212 0.75263 0.77134   -0.199357
 C 0.91535 0.8264 0.71758   0.024597
 C 0.04754 0.79431 0.74608   -0.168737
 C 0.06368 0.69048 0.83261   -0.032454
 C 0.94927 0.61818 0.88764   0.132175
 C 0.82184 0.64814 0.85402   -0.038842
 C 0.44448 0.20077 0.5639   0.794718
 C 0.42818 0.44855 0.83716   0.813534
 C 0.44184 0.20825 0.68428   -0.168063
 C 0.43007 0.31871 0.70849   0.031046
 C 0.43566 0.32607 0.81686   -0.163118
 C 0.4523 0.22203 0.90158   -0.065961
 C 0.4642 0.11106 0.87792   0.136874
 C 0.4567 0.10484 0.77028   -0.046628
 N 0.04882 0.49168 0.02276   -0.142296
 N 0.51215 0.00262 0.04429   -0.146573
 N 0.95118 0.50832 0.97724   -0.142196
 N 0.48785 0.99738 0.95571   -0.146467
 O 0.34833 0.12695 0.34518   -0.856115
 O 0.43627 0.28701 0.20927   -0.852623
 O 0.70339 0.16465 0.30184   -0.860158
 O 0.85278 0.03127 0.38932   -0.78824
 O 0.57219 0.90086 0.44458   -0.989722
 O 0.54196 0.54604 0.07408   -0.912211
 O 0.60464 0.46319 0.23713   -0.71505
 O 0.53674 0.70917 0.5197   -0.679673
 O 0.65167 0.87305 0.65482   -0.856115
 O 0.56373 0.71299 0.79073   -0.852623
 O 0.29661 0.83535 0.69816   -0.860158
 O 0.14722 0.96873 0.61068   -0.78824
 O 0.42781 0.09914 0.55542   -0.989721
 O 0.45804 0.45396 0.92592   -0.912211
 O 0.39536 0.53681 0.76287   -0.715051
 O 0.46326 0.29083 0.4803   -0.679673
