{'_ref': 'TBD', '_srcid': 'CAKYAQ_clean', 'submitters': [{'name': 'Dalar Nazarian Jeff Camp and David Sholl', 'email': 'dalar@gatech.edu jcamp6@gatech.edu'}], '_method': 'VASP DFT with PBE;DDEC'}
data_ZnSiH16C20(N2F3)2
_symmetry_space_group_name_H-M   'P 1'
_cell_length_a   7.67750000
_cell_length_b   11.39590000
_cell_length_c   11.39590000
_cell_angle_alpha   90.00000000
_cell_angle_beta   90.00000000
_cell_angle_gamma   90.00000000
_symmetry_Int_Tables_number   1
_chemical_formula_structural   ZnSiH16C20(N2F3)2
_chemical_formula_sum   'Zn1 Si1 H16 C20 N4 F6'
_cell_volume   997.050336359
_cell_formula_units_Z   1
loop_
 _symmetry_equiv_pos_site_id
 _symmetry_equiv_pos_as_xyz
  1  'x, y, z'
loop_
 _atom_site_label
 _atom_site_fract_x
 _atom_site_fract_y
 _atom_site_fract_z
 _atom_site_charge
 Zn 0.0 0.0 0.0   0.7703
 Si 0.5 0.0 0.0   1.729888
 H 0.742 0.0 0.795   0.078583
 H 0.737 0.0 0.585   0.115698
 H 0.742 0.0 0.205   0.078583
 H 0.737 0.0 0.415   0.115697
 H 0.742 0.205 0.0   0.078583
 H 0.737 0.415 0.0   0.115698
 H 0.742 0.795 0.0   0.078583
 H 0.737 0.585 0.0   0.115697
 H 0.258 0.0 0.795   0.078583
 H 0.263 0.0 0.585   0.115697
 H 0.258 0.0 0.205   0.078583
 H 0.263 0.0 0.415   0.115696
 H 0.258 0.795 0.0   0.078583
 H 0.263 0.585 0.0   0.115697
 H 0.258 0.205 0.0   0.078583
 H 0.263 0.415 0.0   0.115696
 C 0.0 0.0 0.5668   0.114638
 C 0.0 0.0 0.4332   0.114643
 C 0.0 0.4332 0.0   0.114638
 C 0.0 0.5668 0.0   0.114643
 C 0.8588 0.0 0.7501   0.163956
 C 0.8555 0.0 0.6285   -0.198853
 C 0.8588 0.0 0.2499   0.163956
 C 0.8555 0.0 0.3715   -0.198853
 C 0.8588 0.2499 0.0   0.163956
 C 0.8555 0.3715 0.0   -0.198852
 C 0.8588 0.7501 0.0   0.163956
 C 0.8555 0.6285 0.0   -0.198853
 C 0.1412 0.0 0.7501   0.163957
 C 0.1445 0.0 0.6285   -0.198852
 C 0.1412 0.0 0.2499   0.163957
 C 0.1445 0.0 0.3715   -0.198853
 C 0.1412 0.7501 0.0   0.163957
 C 0.1445 0.6285 0.0   -0.198853
 C 0.1412 0.2499 0.0   0.163956
 C 0.1445 0.3715 0.0   -0.198852
 N 0.0 0.0 0.8107   -0.278706
 N 0.0 0.0 0.1893   -0.278706
 N 0.0 0.1893 0.0   -0.278707
 N 0.0 0.8107 0.0   -0.278707
 F 0.7288 0.0 0.0   -0.479467
 F 0.2712 0.0 0.0   -0.479467
 F 0.5 0.897 0.897   -0.540016
 F 0.5 0.103 0.103   -0.540016
 F 0.5 0.103 0.897   -0.540016
 F 0.5 0.897 0.103   -0.540016
