{'_ref': 'TBD', '_srcid': 'CAKYAQ_clean', 'submitters': [{'name': 'Dalar Nazarian Jeff Camp and David Sholl', 'email': 'dalar@gatech.edu jcamp6@gatech.edu'}], '_method': 'VASP DFT with PBE;DDEC'}
data_Dy2H15C12(NO4)3
_symmetry_space_group_name_H-M   'P 1'
_cell_length_a   11.96789988
_cell_length_b   19.20169985
_cell_length_c   19.20170000
_cell_angle_alpha   84.42679895
_cell_angle_beta   71.84210074
_cell_angle_gamma   71.84209969
_symmetry_Int_Tables_number   1
_chemical_formula_structural   Dy2H15C12(NO4)3
_chemical_formula_sum   'Dy16 H120 C96 N24 O96'
_cell_volume   3984.08449167
_cell_formula_units_Z   8
loop_
 _symmetry_equiv_pos_site_id
 _symmetry_equiv_pos_as_xyz
  1  'x, y, z'
loop_
 _atom_site_label
 _atom_site_fract_x
 _atom_site_fract_y
 _atom_site_fract_z
 _atom_site_charge
 Dy 0.48038 0.2011 0.63728   2.290828
 Dy 0.4298 0.02168 0.60526   2.221705
 Dy 0.81876 0.2989 0.86272   2.291076
 Dy 0.55674 0.47832 0.89474   2.221564
 Dy 0.11766 0.36272 0.7011   2.290654
 Dy 0.03506 0.39474 0.52168   2.221704
 Dy 0.68148 0.13728 0.7989   2.290416
 Dy 0.45148 0.10526 0.97832   2.221554
 Dy 0.51962 0.7989 0.36272   2.290828
 Dy 0.5702 0.97832 0.39474   2.221705
 Dy 0.18124 0.7011 0.13728   2.291076
 Dy 0.44326 0.52168 0.10526   2.221564
 Dy 0.88234 0.63728 0.2989   2.290654
 Dy 0.96494 0.60526 0.47832   2.221704
 Dy 0.31852 0.86272 0.2011   2.290416
 Dy 0.54852 0.89474 0.02168   2.221554
 H 0.6495 0.2095 0.4385   0.153658
 H 0.7662 0.143 0.4384   0.130636
 H 0.7993 0.0938 0.5498   0.144596
 H 0.8596 0.1578 0.5346   0.117345
 H 0.5456 0.9401 0.7743   0.121133
 H 0.6785 0.9131 0.7197   0.123257
 H 0.4614 0.8406 0.6808   0.120583
 H 0.4879 0.8494 0.754   0.083794
 H 0.0543 0.1488 0.67   0.12275
 H 0.1173 0.099 0.7254   0.127314
 H 0.0997 0.0723 0.5523   0.112972
 H 0.1467 0.1405 0.5491   0.133442
 H 0.689 0.2378 0.5308   0.317296
 H 0.6109 0.8861 0.6411   0.289966
 H 0.1707 0.0254 0.6378   0.311524
 H 0.7975 0.2905 0.0615   0.153798
 H 0.8476 0.357 0.0616   0.130721
 H 0.9429 0.4062 0.9502   0.144191
 H 0.052 0.3422 0.9654   0.117057
 H 0.76 0.5599 0.7257   0.121351
 H 0.8113 0.5869 0.7803   0.123072
 H 0.4828 0.6594 0.8192   0.120124
 H 0.5913 0.6506 0.746   0.083851
 H 0.3731 0.3512 0.83   0.124714
 H 0.4417 0.401 0.7746   0.128826
 H 0.2243 0.4277 0.9477   0.112856
 H 0.3363 0.3595 0.9509   0.133228
 H 0.9576 0.2622 0.9692   0.31792
 H 0.6381 0.6139 0.8589   0.290195
 H 0.3339 0.4746 0.8622   0.311985
 H 0.088 0.5615 0.7095   0.153948
 H 0.2046 0.5616 0.643   0.131187
 H 0.3491 0.4502 0.5938   0.144235
 H 0.3942 0.4654 0.6578   0.117171
 H 0.3199 0.2257 0.4401   0.12138
 H 0.3982 0.2803 0.4131   0.123853
 H 0.1422 0.3192 0.3406   0.120105
 H 0.2419 0.246 0.3494   0.083748
 H 0.7243 0.33 0.6488   0.12388
 H 0.8427 0.2746 0.599   0.128615
 H 0.652 0.4477 0.5723   0.111922
 H 0.6958 0.4509 0.6405   0.132469
 H 0.2198 0.4692 0.7378   0.317698
 H 0.252 0.3589 0.3861   0.290161
 H 0.8085 0.3622 0.5254   0.312155
 H 0.859 0.9385 0.7905   0.153251
 H 0.9092 0.9384 0.857   0.129882
 H 0.8931 0.0498 0.9062   0.144108
 H 0.0174 0.0346 0.8422   0.117133
 H 0.4857 0.2743 0.0599   0.121127
 H 0.5916 0.2197 0.0869   0.124461
 H 0.302 0.1808 0.1594   0.119727
 H 0.3373 0.254 0.1506   0.083394
 H 0.2031 0.17 0.8512   0.123417
 H 0.2163 0.2254 0.901   0.127731
 H 0.172 0.0523 0.9277   0.112265
 H 0.2872 0.0491 0.8595   0.133549
 H 0.9268 0.0308 0.7622   0.318817
 H 0.497 0.1411 0.1139   0.290115
 H 0.1961 0.1378 0.9746   0.311754
 H 0.3505 0.7905 0.5615   0.153658
 H 0.2338 0.857 0.5616   0.130636
 H 0.2007 0.9062 0.4502   0.144596
 H 0.1404 0.8422 0.4654   0.117345
 H 0.4544 0.0599 0.2257   0.121133
 H 0.3215 0.0869 0.2803   0.123257
 H 0.5386 0.1594 0.3192   0.120583
 H 0.5121 0.1506 0.246   0.083794
 H 0.9457 0.8512 0.33   0.12275
 H 0.8827 0.901 0.2746   0.127314
 H 0.9003 0.9277 0.4477   0.112973
 H 0.8533 0.8595 0.4509   0.133442
 H 0.311 0.7622 0.4692   0.317296
 H 0.3891 0.1139 0.3589   0.289966
 H 0.8293 0.9746 0.3622   0.311524
 H 0.2025 0.7095 0.9385   0.153797
 H 0.1524 0.643 0.9384   0.130722
 H 0.0571 0.5938 0.0498   0.144192
 H 0.948 0.6578 0.0346   0.117057
 H 0.24 0.4401 0.2743   0.12135
 H 0.1887 0.4131 0.2197   0.123072
 H 0.5172 0.3406 0.1808   0.120124
 H 0.4087 0.3494 0.254   0.083851
 H 0.6269 0.6488 0.17   0.124714
 H 0.5583 0.599 0.2254   0.128826
 H 0.7757 0.5723 0.0523   0.112857
 H 0.6637 0.6405 0.0491   0.133228
 H 0.0424 0.7378 0.0308   0.31792
 H 0.3619 0.3861 0.1411   0.290195
 H 0.6661 0.5254 0.1378   0.311985
 H 0.912 0.4385 0.2905   0.153948
 H 0.7954 0.4384 0.357   0.131187
 H 0.6509 0.5498 0.4062   0.144236
 H 0.6058 0.5346 0.3422   0.117171
 H 0.6801 0.7743 0.5599   0.121379
 H 0.6018 0.7197 0.5869   0.123853
 H 0.8578 0.6808 0.6594   0.120105
 H 0.7581 0.754 0.6506   0.083748
 H 0.2757 0.67 0.3512   0.12388
 H 0.1573 0.7254 0.401   0.128615
 H 0.348 0.5523 0.4277   0.111923
 H 0.3042 0.5491 0.3595   0.132469
 H 0.7802 0.5308 0.2622   0.317698
 H 0.748 0.6411 0.6139   0.290161
 H 0.1915 0.6378 0.4746   0.312155
 H 0.141 0.0615 0.2095   0.153251
 H 0.0908 0.0616 0.143   0.129882
 H 0.1069 0.9502 0.0938   0.144108
 H 0.9826 0.9654 0.1578   0.117133
 H 0.5143 0.7257 0.9401   0.121126
 H 0.4084 0.7803 0.9131   0.124461
 H 0.698 0.8192 0.8406   0.119727
 H 0.6627 0.746 0.8494   0.083394
 H 0.7969 0.83 0.1488   0.123417
 H 0.7837 0.7746 0.099   0.127731
 H 0.828 0.9477 0.0723   0.112266
 H 0.7128 0.9509 0.1405   0.13355
 H 0.0732 0.9692 0.2378   0.318817
 H 0.503 0.8589 0.8861   0.290114
 H 0.8039 0.8622 0.0254   0.311755
 C 0.606 0.1154 0.478   0.782437
 C 0.682 0.1673 0.4663   -0.162791
 C 0.7857 0.1445 0.5611   -0.144532
 C 0.7608 0.1525 0.6423   0.722398
 C 0.598 0.0232 0.7114   0.817335
 C 0.5953 0.9443 0.7243   -0.150735
 C 0.4611 0.876 0.7136   -0.154211
 C 0.3321 0.9267 0.7429   0.698059
 C 0.2065 0.1734 0.6738   0.814005
 C 0.1329 0.1217 0.6773   -0.16549
 C 0.1699 0.0874 0.5522   -0.145474
 C 0.2745 0.056 0.4866   0.703083
 C 0.6994 0.3846 0.022   0.785533
 C 0.8156 0.3327 0.0337   -0.163467
 C 0.9913 0.3555 0.9389   -0.143957
 C 0.0556 0.3475 0.8577   0.722844
 C 0.8326 0.4768 0.7886   0.818892
 C 0.7639 0.5557 0.7757   -0.149693
 C 0.5507 0.624 0.7864   -0.152278
 C 0.5017 0.5733 0.7571   0.696686
 C 0.5537 0.3266 0.8262   0.812534
 C 0.4319 0.3783 0.8227   -0.168922
 C 0.3095 0.4126 0.9478   -0.144713
 C 0.3171 0.444 0.0134   0.701232
 C 0.084 0.522 0.6154   0.785516
 C 0.1483 0.5337 0.6673   -0.163504
 C 0.3468 0.4389 0.6445   -0.144082
 C 0.4031 0.3577 0.6525   0.722958
 C 0.3094 0.2886 0.5232   0.816806
 C 0.3196 0.2757 0.4443   -0.150835
 C 0.1747 0.2864 0.376   -0.151301
 C 0.075 0.2571 0.4267   0.696688
 C 0.8803 0.3262 0.6734   0.81424
 C 0.8102 0.3227 0.6217   -0.168467
 C 0.7221 0.4478 0.5874   -0.142026
 C 0.7611 0.5134 0.556   0.701284
 C 0.7214 0.978 0.8846   0.78251
 C 0.8493 0.9663 0.8327   -0.160772
 C 0.9302 0.0611 0.8555   -0.144965
 C 0.9133 0.1423 0.8475   0.725391
 C 0.6212 0.2114 0.9768   0.816767
 C 0.5396 0.2243 0.0557   -0.152476
 C 0.3371 0.2136 0.124   -0.151354
 C 0.2588 0.2429 0.0733   0.69704
 C 0.3799 0.1738 0.8266   0.810985
 C 0.2546 0.1773 0.8783   -0.16543
 C 0.2573 0.0522 0.9126   -0.144769
 C 0.3305 0.9866 0.944   0.702406
 C 0.394 0.8846 0.522   0.782437
 C 0.318 0.8327 0.5337   -0.162791
 C 0.2143 0.8555 0.4389   -0.144532
 C 0.2392 0.8475 0.3577   0.722398
 C 0.402 0.9768 0.2886   0.817335
 C 0.4047 0.0557 0.2757   -0.150735
 C 0.5389 0.124 0.2864   -0.154211
 C 0.6679 0.0733 0.2571   0.698059
 C 0.7935 0.8266 0.3262   0.814005
 C 0.8671 0.8783 0.3227   -0.16549
 C 0.8301 0.9126 0.4478   -0.145475
 C 0.7255 0.944 0.5134   0.703083
 C 0.3006 0.6154 0.978   0.785534
 C 0.1844 0.6673 0.9663   -0.163467
 C 0.0087 0.6445 0.0611   -0.143957
 C 0.9444 0.6525 0.1423   0.722844
 C 0.1674 0.5232 0.2114   0.818892
 C 0.2361 0.4443 0.2243   -0.149693
 C 0.4493 0.376 0.2136   -0.152278
 C 0.4983 0.4267 0.2429   0.696686
 C 0.4463 0.6734 0.1738   0.812534
 C 0.5681 0.6217 0.1773   -0.168922
 C 0.6905 0.5874 0.0522   -0.144714
 C 0.6829 0.556 0.9866   0.701232
 C 0.916 0.478 0.3846   0.785516
 C 0.8517 0.4663 0.3327   -0.163504
 C 0.6532 0.5611 0.3555   -0.144082
 C 0.5969 0.6423 0.3475   0.722958
 C 0.6906 0.7114 0.4768   0.816806
 C 0.6804 0.7243 0.5557   -0.150835
 C 0.8253 0.7136 0.624   -0.151301
 C 0.925 0.7429 0.5733   0.696688
 C 0.1197 0.6738 0.3266   0.81424
 C 0.1898 0.6773 0.3783   -0.168467
 C 0.2779 0.5522 0.4126   -0.142026
 C 0.2389 0.4866 0.444   0.701284
 C 0.2786 0.022 0.1154   0.78251
 C 0.1507 0.0337 0.1673   -0.160772
 C 0.0698 0.9389 0.1445   -0.144966
 C 0.0867 0.8577 0.1525   0.725392
 C 0.3788 0.7886 0.0232   0.816767
 C 0.4604 0.7757 0.9443   -0.152476
 C 0.6629 0.7864 0.876   -0.151354
 C 0.7412 0.7571 0.9267   0.69704
 C 0.6201 0.8262 0.1734   0.810985
 C 0.7454 0.8227 0.1217   -0.16543
 C 0.7427 0.9478 0.0874   -0.14477
 C 0.6695 0.0134 0.056   0.702406
 N 0.6801 0.1921 0.5377   -0.539892
 N 0.5467 0.9165 0.6745   -0.533962
 N 0.1989 0.0646 0.6212   -0.514712
 N 0.9099 0.3079 0.9623   -0.540781
 N 0.6377 0.5835 0.8255   -0.536496
 N 0.3847 0.4354 0.8788   -0.514989
 N 0.2178 0.4623 0.6921   -0.541133
 N 0.2212 0.3255 0.4165   -0.536642
 N 0.8201 0.3788 0.5646   -0.51597
 N 0.8722 0.0377 0.8079   -0.542173
 N 0.4632 0.1745 0.0835   -0.534544
 N 0.2635 0.1212 0.9354   -0.515271
 N 0.3199 0.8079 0.4623   -0.539892
 N 0.4533 0.0835 0.3255   -0.533962
 N 0.8011 0.9354 0.3788   -0.514712
 N 0.0901 0.6921 0.0377   -0.540781
 N 0.3623 0.4165 0.1745   -0.536496
 N 0.6153 0.5646 0.1212   -0.514989
 N 0.7822 0.5377 0.3079   -0.541133
 N 0.7788 0.6745 0.5835   -0.536641
 N 0.1799 0.6212 0.4354   -0.51597
 N 0.1278 0.9623 0.1921   -0.542173
 N 0.5368 0.8255 0.9165   -0.534544
 N 0.7365 0.8788 0.0646   -0.515271
 O 0.5376 0.1094 0.5414   -0.799889
 O 0.6119 0.0835 0.4225   -0.698442
 O 0.6476 0.1802 0.6812   -0.878709
 O 0.8411 0.1262 0.6732   -0.631803
 O 0.5302 0.0643 0.6755   -0.823547
 O 0.6647 0.041 0.7408   -0.721225
 O 0.3157 0.9915 0.7221   -0.758279
 O 0.2508 0.8958 0.7762   -0.646297
 O 0.3239 0.1476 0.6442   -0.838534
 O 0.1539 0.2368 0.6972   -0.695912
 O 0.3859 0.0437 0.4901   -0.881924
 O 0.2549 0.0423 0.4307   -0.573385
 O 0.6884 0.3906 0.9586   -0.80106
 O 0.6179 0.4165 0.0775   -0.699965
 O 0.009 0.3198 0.8188   -0.877957
 O 0.1405 0.3738 0.8268   -0.632826
 O 0.77 0.4357 0.8245   -0.824847
 O 0.9465 0.459 0.7592   -0.722106
 O 0.5293 0.5085 0.7779   -0.75815
 O 0.4228 0.6042 0.7238   -0.644882
 O 0.6157 0.3524 0.8558   -0.837228
 O 0.5879 0.2632 0.8028   -0.695454
 O 0.4197 0.4563 0.0099   -0.881541
 O 0.2279 0.4577 0.0693   -0.57234
 O 0.079 0.4586 0.6094   -0.800829
 O 0.0344 0.5775 0.5835   -0.700275
 O 0.3288 0.3188 0.6802   -0.87891
 O 0.5143 0.3268 0.6262   -0.632215
 O 0.2057 0.3245 0.5643   -0.82299
 O 0.4055 0.2592 0.541   -0.721603
 O 0.0378 0.2779 0.4915   -0.757997
 O 0.027 0.2238 0.3958   -0.645471
 O 0.9681 0.3558 0.6476   -0.837419
 O 0.8511 0.3028 0.7368   -0.696715
 O 0.876 0.5099 0.5437   -0.881606
 O 0.6856 0.5693 0.5423   -0.572763
 O 0.647 0.0414 0.8906   -0.799747
 O 0.6954 0.9225 0.9165   -0.69871
 O 0.8278 0.1812 0.8198   -0.879754
 O 0.9673 0.1732 0.8738   -0.633521
 O 0.5945 0.1755 0.9357   -0.823722
 O 0.7057 0.2408 0.959   -0.720881
 O 0.3072 0.2221 0.0085   -0.75872
 O 0.1466 0.2762 0.1042   -0.645107
 O 0.4715 0.1442 0.8524   -0.83637
 O 0.3907 0.1972 0.7632   -0.695448
 O 0.4296 0.9901 0.9563   -0.881639
 O 0.2972 0.9307 0.9577   -0.573022
 O 0.4624 0.8906 0.4586   -0.799889
 O 0.3881 0.9165 0.5775   -0.698442
 O 0.3524 0.8198 0.3188   -0.878709
 O 0.1589 0.8738 0.3268   -0.631803
 O 0.4698 0.9357 0.3245   -0.823547
 O 0.3353 0.959 0.2592   -0.721225
 O 0.6843 0.0085 0.2779   -0.758279
 O 0.7492 0.1042 0.2238   -0.646297
 O 0.6761 0.8524 0.3558   -0.838534
 O 0.8461 0.7632 0.3028   -0.695912
 O 0.6141 0.9563 0.5099   -0.881924
 O 0.7451 0.9577 0.5693   -0.573385
 O 0.3116 0.6094 0.0414   -0.80106
 O 0.3821 0.5835 0.9225   -0.699965
 O 0.991 0.6802 0.1812   -0.877957
 O 0.8595 0.6262 0.1732   -0.632826
 O 0.23 0.5643 0.1755   -0.824847
 O 0.0535 0.541 0.2408   -0.722106
 O 0.4707 0.4915 0.2221   -0.75815
 O 0.5772 0.3958 0.2762   -0.644882
 O 0.3843 0.6476 0.1442   -0.837228
 O 0.4121 0.7368 0.1972   -0.695454
 O 0.5803 0.5437 0.9901   -0.881541
 O 0.7721 0.5423 0.9307   -0.572339
 O 0.921 0.5414 0.3906   -0.800829
 O 0.9656 0.4225 0.4165   -0.700275
 O 0.6712 0.6812 0.3198   -0.87891
 O 0.4857 0.6732 0.3738   -0.632215
 O 0.7943 0.6755 0.4357   -0.82299
 O 0.5945 0.7408 0.459   -0.721603
 O 0.9622 0.7221 0.5085   -0.757997
 O 0.973 0.7762 0.6042   -0.645471
 O 0.0319 0.6442 0.3524   -0.837419
 O 0.1489 0.6972 0.2632   -0.696715
 O 0.124 0.4901 0.4563   -0.881606
 O 0.3144 0.4307 0.4577   -0.572763
 O 0.353 0.9586 0.1094   -0.799747
 O 0.3046 0.0775 0.0835   -0.69871
 O 0.1722 0.8188 0.1802   -0.879754
 O 0.0327 0.8268 0.1262   -0.633521
 O 0.4055 0.8245 0.0643   -0.823722
 O 0.2943 0.7592 0.041   -0.720881
 O 0.6928 0.7779 0.9915   -0.75872
 O 0.8534 0.7238 0.8958   -0.645107
 O 0.5285 0.8558 0.1476   -0.83637
 O 0.6093 0.8028 0.2368   -0.695448
 O 0.5704 0.0099 0.0437   -0.881639
 O 0.7028 0.0693 0.0423   -0.573022
