{'_ref': 'TBD', '_srcid': 'CAKYAQ_clean', 'submitters': [{'name': 'Dalar Nazarian Jeff Camp and David Sholl', 'email': 'dalar@gatech.edu jcamp6@gatech.edu'}], '_method': 'VASP DFT with PBE;DDEC'}
data_Nd2H15C12(NO4)3
_symmetry_space_group_name_H-M   'P 1'
_cell_length_a   12.07330005
_cell_length_b   19.50770000
_cell_length_c   19.50767295
_cell_angle_alpha   84.50505033
_cell_angle_beta   71.97404692
_cell_angle_gamma   71.97390045
_symmetry_Int_Tables_number   1
_chemical_formula_structural   Nd2H15C12(NO4)3
_chemical_formula_sum   'Nd16 H120 C96 N24 O96'
_cell_volume   4154.52983624
_cell_formula_units_Z   8
loop_
 _symmetry_equiv_pos_site_id
 _symmetry_equiv_pos_as_xyz
  1  'x, y, z'
loop_
 _atom_site_label
 _atom_site_fract_x
 _atom_site_fract_y
 _atom_site_fract_z
 _atom_site_charge
 Nd 0.18934 0.637 0.79796   2.292734
 Nd 0.95173 0.60584 0.97946   2.219474
 Nd 0.6243 0.863 0.70204   2.292623
 Nd 0.53703 0.89416 0.52054   2.21881
 Nd 0.9873 0.70204 0.637   2.292574
 Nd 0.93119 0.52054 0.60583   2.219481
 Nd 0.32634 0.79796 0.863   2.291845
 Nd 0.05757 0.97946 0.89416   2.219492
 Nd 0.81066 0.363 0.20204   2.292735
 Nd 0.04827 0.39416 0.02054   2.219473
 Nd 0.3757 0.137 0.29796   2.292624
 Nd 0.46297 0.10584 0.47946   2.21881
 Nd 0.0127 0.29796 0.363   2.292574
 Nd 0.06881 0.47946 0.39417   2.21948
 Nd 0.67366 0.20204 0.137   2.291847
 Nd 0.94243 0.02054 0.10583   2.219483
 H 0.3659 0.4397 0.7931   0.153066
 H 0.4122 0.4377 0.8603   0.132233
 H 0.3949 0.5499 0.9097   0.139011
 H 0.5203 0.5342 0.849   0.118937
 H 0.9837 0.7778 0.055   0.124172
 H 0.086 0.7279 0.0861   0.122737
 H 0.8068 0.6843 0.1601   0.11901
 H 0.837 0.7581 0.1483   0.088922
 H 0.7078 0.6694 0.848   0.122868
 H 0.7206 0.7223 0.8989   0.134109
 H 0.6721 0.5512 0.927   0.109883
 H 0.7836 0.5484 0.8586   0.129072
 H 0.438 0.5286 0.7684   0.313995
 H 0.9985 0.6478 0.1124   0.286177
 H 0.6951 0.6359 0.9697   0.305868
 H 0.5987 0.0603 0.7069   0.154143
 H 0.7102 0.0623 0.6397   0.133462
 H 0.8545 0.9501 0.5903   0.138879
 H 0.9035 0.9658 0.651   0.117682
 H 0.8165 0.7222 0.445   0.124452
 H 0.9 0.7721 0.4139   0.122466
 H 0.6512 0.8157 0.3399   0.119394
 H 0.7434 0.7419 0.3517   0.089
 H 0.2252 0.8306 0.652   0.123263
 H 0.3418 0.7777 0.6011   0.133711
 H 0.1503 0.9488 0.573   0.107308
 H 0.1906 0.9516 0.6414   0.127699
 H 0.735 0.9714 0.7316   0.313748
 H 0.7587 0.8522 0.3876   0.284231
 H 0.3007 0.8641 0.5303   0.307094
 H 0.159 0.7069 0.4397   0.154311
 H 0.2725 0.6397 0.4377   0.133116
 H 0.3046 0.5903 0.5499   0.138837
 H 0.3693 0.651 0.5342   0.118863
 H 0.0387 0.445 0.7778   0.123883
 H 0.1721 0.4139 0.7279   0.121499
 H 0.9669 0.3399 0.6843   0.119736
 H 0.9853 0.3517 0.7581   0.090367
 H 0.5558 0.652 0.6694   0.123746
 H 0.6195 0.6011 0.7223   0.13357
 H 0.5991 0.573 0.5512   0.109271
 H 0.6422 0.6414 0.5484   0.129317
 H 0.2064 0.7316 0.5286   0.314011
 H 0.1109 0.3876 0.6478   0.285364
 H 0.6648 0.5303 0.6359   0.304931
 H 0.3056 0.7931 0.0603   0.153781
 H 0.3499 0.8603 0.0623   0.133491
 H 0.4448 0.9097 0.9501   0.13895
 H 0.5545 0.849 0.9658   0.118563
 H 0.2615 0.055 0.7222   0.123275
 H 0.3139 0.0861 0.7721   0.121551
 H 0.9911 0.1601 0.8157   0.118981
 H 0.0951 0.1483 0.7419   0.089211
 H 0.8772 0.848 0.8306   0.124396
 H 0.9429 0.8989 0.7777   0.13501
 H 0.7233 0.927 0.9488   0.108559
 H 0.832 0.8586 0.9516   0.128536
 H 0.4666 0.7684 0.9714   0.312911
 H 0.1463 0.1124 0.8522   0.285715
 H 0.831 0.9697 0.8641   0.306463
 H 0.6341 0.5603 0.2069   0.153066
 H 0.5878 0.5623 0.1397   0.132234
 H 0.6051 0.4501 0.0903   0.139011
 H 0.4797 0.4658 0.151   0.118937
 H 0.0163 0.2222 0.945   0.124171
 H 0.914 0.2721 0.9139   0.122734
 H 0.1932 0.3157 0.8399   0.119009
 H 0.163 0.2419 0.8517   0.088919
 H 0.2922 0.3306 0.152   0.122869
 H 0.2794 0.2777 0.1011   0.13411
 H 0.3279 0.4488 0.073   0.109884
 H 0.2164 0.4516 0.1414   0.129072
 H 0.562 0.4714 0.2316   0.313996
 H 0.0015 0.3522 0.8876   0.286177
 H 0.3049 0.3641 0.0303   0.305867
 H 0.4013 0.9397 0.2931   0.154144
 H 0.2898 0.9377 0.3603   0.133462
 H 0.1455 0.0499 0.4097   0.138878
 H 0.0965 0.0342 0.349   0.117685
 H 0.1835 0.2778 0.555   0.124452
 H 0.1 0.2279 0.5861   0.122464
 H 0.3488 0.1843 0.6601   0.119392
 H 0.2566 0.2581 0.6483   0.088999
 H 0.7748 0.1694 0.348   0.123265
 H 0.6582 0.2223 0.3989   0.13371
 H 0.8497 0.0512 0.427   0.107309
 H 0.8094 0.0484 0.3586   0.127703
 H 0.265 0.0286 0.2684   0.31375
 H 0.2413 0.1478 0.6124   0.284228
 H 0.6993 0.1359 0.4697   0.307092
 H 0.841 0.2931 0.5603   0.154309
 H 0.7275 0.3603 0.5623   0.133116
 H 0.6954 0.4097 0.4501   0.138837
 H 0.6307 0.349 0.4658   0.118863
 H 0.9613 0.555 0.2222   0.123883
 H 0.8279 0.5861 0.2721   0.121499
 H 0.0331 0.6601 0.3157   0.119736
 H 0.0147 0.6483 0.2419   0.090369
 H 0.4442 0.348 0.3306   0.123746
 H 0.3805 0.3989 0.2777   0.13357
 H 0.4009 0.427 0.4488   0.109273
 H 0.3578 0.3586 0.4516   0.129317
 H 0.7936 0.2684 0.4714   0.314011
 H 0.8891 0.6124 0.3522   0.285363
 H 0.3352 0.4697 0.3641   0.304931
 H 0.6944 0.2069 0.9397   0.153783
 H 0.6501 0.1397 0.9377   0.133493
 H 0.5552 0.0903 0.0499   0.138949
 H 0.4455 0.151 0.0342   0.118563
 H 0.7385 0.945 0.2778   0.123274
 H 0.6861 0.9139 0.2279   0.121546
 H 0.0089 0.8399 0.1843   0.118972
 H 0.9049 0.8517 0.2581   0.089203
 H 0.1228 0.152 0.1694   0.124388
 H 0.0571 0.1011 0.2223   0.135008
 H 0.2767 0.073 0.0512   0.108559
 H 0.168 0.1414 0.0484   0.128535
 H 0.5334 0.2316 0.0286   0.312912
 H 0.8537 0.8876 0.1478   0.285701
 H 0.169 0.0303 0.1359   0.306464
 C 0.22644 0.47821 0.88451   0.776085
 C 0.355 0.4664 0.8354   -0.161551
 C 0.4343 0.5604 0.8602   -0.145349
 C 0.41952 0.64057 0.85239   0.721739
 C 0.12384 0.71297 0.97795   0.808953
 C 0.038 0.7291 0.0541   -0.147756
 C 0.838 0.7168 0.1238   -0.149504
 C 0.7571 0.7416 0.0756   0.689972
 C 0.88317 0.67179 0.82647   0.812076
 C 0.7581 0.6752 0.876   -0.169996
 C 0.7565 0.5514 0.9108   -0.141293
 C 0.8322 0.4857 0.9405   0.705096
 C 0.58916 0.02179 0.61549   0.77574
 C 0.6568 0.0336 0.6646   -0.165007
 C 0.8549 0.9396 0.6398   -0.143771
 C 0.91248 0.85943 0.64761   0.722249
 C 0.81476 0.78703 0.52205   0.809286
 C 0.8212 0.7709 0.4459   -0.147327
 C 0.6786 0.7832 0.3762   -0.150987
 C 0.5743 0.7584 0.4244   0.68917
 C 0.38143 0.82821 0.67353   0.813652
 C 0.3093 0.8248 0.624   -0.170174
 C 0.2187 0.9486 0.5892   -0.135069
 C 0.2584 0.0143 0.5595   0.702494
 C 0.11095 0.61549 0.47821   0.77639
 C 0.1904 0.6646 0.4664   -0.165353
 C 0.2945 0.6398 0.5604   -0.145329
 C 0.27191 0.64761 0.64057   0.721507
 C 0.10179 0.52205 0.71297   0.808406
 C 0.0921 0.4459 0.7291   -0.145062
 C 0.9618 0.3762 0.7168   -0.153759
 C 0.8327 0.4244 0.7416   0.689324
 C 0.70964 0.67353 0.67179   0.812655
 C 0.6341 0.624 0.6752   -0.171183
 C 0.6673 0.5892 0.5514   -0.140552
 C 0.7727 0.5595 0.4857   0.704874
 C 0.20465 0.88451 0.02179   0.776953
 C 0.3214 0.8354 0.0336   -0.164799
 C 0.4947 0.8602 0.9396   -0.144013
 C 0.56009 0.85239 0.85943   0.719047
 C 0.33681 0.97795 0.78703   0.809402
 C 0.2671 0.0541 0.7709   -0.144884
 C 0.0548 0.1238 0.7832   -0.150276
 C 0.9987 0.0756 0.7584   0.68869
 C 0.05496 0.82647 0.82821   0.815268
 C 0.9333 0.876 0.8248   -0.174698
 C 0.8079 0.9108 0.9486   -0.138595
 C 0.8179 0.9405 0.0143   0.702208
 C 0.77356 0.52179 0.11549   0.776085
 C 0.645 0.5336 0.1646   -0.161551
 C 0.5657 0.4396 0.1398   -0.145349
 C 0.58048 0.35943 0.14761   0.721739
 C 0.87616 0.28703 0.02205   0.808954
 C 0.962 0.2709 0.9459   -0.147756
 C 0.162 0.2832 0.8762   -0.149503
 C 0.2429 0.2584 0.9244   0.689972
 C 0.11683 0.32821 0.17353   0.812076
 C 0.2419 0.3248 0.124   -0.169996
 C 0.2435 0.4486 0.0892   -0.141294
 C 0.1678 0.5143 0.0595   0.705096
 C 0.41084 0.97821 0.38451   0.775741
 C 0.3432 0.9664 0.3354   -0.165007
 C 0.1451 0.0604 0.3602   -0.143772
 C 0.08752 0.14057 0.35239   0.72225
 C 0.18524 0.21297 0.47795   0.809284
 C 0.1788 0.2291 0.5541   -0.147326
 C 0.3214 0.2168 0.6238   -0.150987
 C 0.4257 0.2416 0.5756   0.68917
 C 0.61857 0.17179 0.32647   0.813654
 C 0.6907 0.1752 0.376   -0.170174
 C 0.7813 0.0514 0.4108   -0.13507
 C 0.7416 0.9857 0.4405   0.702495
 C 0.88905 0.38451 0.52179   0.77639
 C 0.8096 0.3354 0.5336   -0.165353
 C 0.7055 0.3602 0.4396   -0.145329
 C 0.72809 0.35239 0.35943   0.721506
 C 0.89821 0.47795 0.28703   0.808406
 C 0.9079 0.5541 0.2709   -0.145062
 C 0.0382 0.6238 0.2832   -0.153758
 C 0.1673 0.5756 0.2584   0.689323
 C 0.29036 0.32647 0.32821   0.812655
 C 0.3659 0.376 0.3248   -0.171182
 C 0.3327 0.4108 0.4486   -0.140553
 C 0.2273 0.4405 0.5143   0.704875
 C 0.79535 0.11549 0.97821   0.776973
 C 0.6786 0.1646 0.9664   -0.164803
 C 0.5053 0.1398 0.0604   -0.144012
 C 0.43991 0.14761 0.14057   0.719046
 C 0.66319 0.02205 0.21297   0.809406
 C 0.7329 0.9459 0.2291   -0.144878
 C 0.9452 0.8762 0.2168   -0.150266
 C 0.0013 0.9244 0.2416   0.688679
 C 0.94504 0.17353 0.17179   0.815272
 C 0.0667 0.124 0.1752   -0.17468
 C 0.1921 0.0892 0.0514   -0.138603
 C 0.1821 0.0595 0.9857   0.702226
 N 0.38155 0.5359 0.8126   -0.530831
 N 0.96344 0.67983 0.08249   -0.532562
 N 0.76295 0.61904 0.93186   -0.504988
 N 0.73005 0.9641 0.6874   -0.529614
 N 0.72576 0.82017 0.41751   -0.529946
 N 0.31385 0.88096 0.56814   -0.507468
 N 0.19415 0.6874 0.5359   -0.529635
 N 0.04593 0.41751 0.67983   -0.530497
 N 0.69481 0.56814 0.61904   -0.503915
 N 0.41745 0.8126 0.9641   -0.529464
 N 0.14327 0.08249 0.82017   -0.532301
 N 0.88199 0.93186 0.88096   -0.505437
 N 0.61845 0.4641 0.1874   -0.530832
 N 0.03656 0.32017 0.91751   -0.532561
 N 0.23705 0.38096 0.06814   -0.504989
 N 0.26995 0.0359 0.3126   -0.529613
 N 0.27424 0.17983 0.58249   -0.529946
 N 0.68615 0.11904 0.43186   -0.507468
 N 0.80585 0.3126 0.4641   -0.529635
 N 0.95407 0.58249 0.32017   -0.530498
 N 0.30519 0.43186 0.38096   -0.503916
 N 0.58255 0.1874 0.0359   -0.529463
 N 0.85673 0.91751 0.17983   -0.532288
 N 0.11801 0.06814 0.11904   -0.505439
 O 0.1538 0.54129 0.89131   -0.801481
 O 0.1993 0.42372 0.91528   -0.698044
 O 0.34364 0.67763 0.81929   -0.868361
 O 0.47436 0.66951 0.87857   -0.629495
 O 0.09921 0.67742 0.93636   -0.823777
 O 0.20963 0.73978 0.96116   -0.721541
 O 0.80226 0.72385 0.01063   -0.759034
 O 0.6449 0.773 0.106   -0.644833
 O 0.97236 0.64383 0.85245   -0.827501
 O 0.89506 0.69766 0.76502   -0.714622
 O 0.92813 0.49054 0.9536   -0.876372
 O 0.80239 0.43002 0.95   -0.576785
 O 0.5864 0.95871 0.60869   -0.800621
 O 0.5383 0.07628 0.58472   -0.697217
 O 0.84056 0.82237 0.68071   -0.86973
 O 0.02244 0.83049 0.62143   -0.629574
 O 0.71299 0.82258 0.56364   -0.823948
 O 0.91057 0.76022 0.53884   -0.721795
 O 0.53674 0.77615 0.48937   -0.758166
 O 0.5239 0.727 0.394   -0.644493
 O 0.46864 0.85617 0.64755   -0.828432
 O 0.35774 0.80234 0.73498   -0.714996
 O 0.37227 0.00946 0.5464   -0.876139
 O 0.18241 0.06998 0.55   -0.575798
 O 0.04511 0.60869 0.54129   -0.801376
 O 0.11458 0.58472 0.42372   -0.697287
 O 0.16293 0.68071 0.67763   -0.869358
 O 0.35293 0.62143 0.66951   -0.628865
 O 0.03557 0.56364 0.67742   -0.823654
 O 0.17079 0.53884 0.73978   -0.722251
 O 0.81289 0.48937 0.72385   -0.757892
 O 0.7509 0.394 0.773   -0.644599
 O 0.82481 0.64755 0.64383   -0.82804
 O 0.66008 0.73498 0.69766   -0.714668
 O 0.88173 0.5464 0.49054   -0.876748
 O 0.75239 0.55 0.43002   -0.576374
 O 0.19509 0.89131 0.95871   -0.801861
 O 0.12302 0.91528 0.07628   -0.697612
 O 0.52127 0.81929 0.82237   -0.867905
 O 0.64387 0.87857 0.83049   -0.628114
 O 0.27663 0.93636 0.82258   -0.824095
 O 0.44941 0.96116 0.76022   -0.722245
 O 0.02611 0.01063 0.77615   -0.757609
 O 0.9179 0.106 0.727   -0.644491
 O 0.11619 0.85245 0.85617   -0.828076
 O 0.09272 0.76502 0.80234   -0.715571
 O 0.91867 0.9536 0.00946   -0.87543
 O 0.73241 0.95 0.06998   -0.575223
 O 0.8462 0.45871 0.10869   -0.801482
 O 0.8007 0.57628 0.08472   -0.698044
 O 0.65636 0.32237 0.18071   -0.868359
 O 0.52564 0.33049 0.12143   -0.629496
 O 0.90079 0.32258 0.06364   -0.823774
 O 0.79037 0.26022 0.03884   -0.721543
 O 0.19774 0.27615 0.98937   -0.759031
 O 0.3551 0.227 0.894   -0.644835
 O 0.02764 0.35617 0.14755   -0.827501
 O 0.10494 0.30234 0.23498   -0.714621
 O 0.07187 0.50946 0.0464   -0.876372
 O 0.19761 0.56998 0.05   -0.576784
 O 0.4136 0.04129 0.39131   -0.80062
 O 0.4617 0.92372 0.41528   -0.697218
 O 0.15944 0.17763 0.31929   -0.86973
 O 0.97756 0.16951 0.37857   -0.629575
 O 0.28701 0.17742 0.43636   -0.823947
 O 0.08943 0.23978 0.46116   -0.721794
 O 0.46326 0.22385 0.51063   -0.758163
 O 0.4761 0.273 0.606   -0.644494
 O 0.53136 0.14383 0.35245   -0.828433
 O 0.64226 0.19766 0.26502   -0.714992
 O 0.62773 0.99054 0.4536   -0.87614
 O 0.81759 0.93002 0.45   -0.575798
 O 0.95489 0.39131 0.45871   -0.801375
 O 0.88542 0.41528 0.57628   -0.697288
 O 0.83707 0.31929 0.32237   -0.869356
 O 0.64707 0.37857 0.33049   -0.628866
 O 0.96443 0.43636 0.32258   -0.823654
 O 0.82921 0.46116 0.26022   -0.722251
 O 0.18711 0.51063 0.27615   -0.757893
 O 0.2491 0.606 0.227   -0.644598
 O 0.17519 0.35245 0.35617   -0.828041
 O 0.33992 0.26502 0.30234   -0.714667
 O 0.11827 0.4536 0.50946   -0.876748
 O 0.24761 0.45 0.56998   -0.576375
 O 0.80491 0.10869 0.04129   -0.801864
 O 0.87698 0.08472 0.92372   -0.697658
 O 0.47873 0.18071 0.17763   -0.867906
 O 0.35613 0.12143 0.16951   -0.628111
 O 0.72337 0.06364 0.17742   -0.824097
 O 0.55059 0.03884 0.23978   -0.722253
 O 0.97389 0.98937 0.22385   -0.757579
 O 0.0821 0.894 0.273   -0.644515
 O 0.88381 0.14755 0.14383   -0.828084
 O 0.90728 0.23498 0.19766   -0.715581
 O 0.08133 0.0464 0.99054   -0.875458
 O 0.26759 0.05 0.93002   -0.575227
