{'_ref': 'TBD', '_srcid': 'CAKYAQ_clean', 'submitters': [{'name': 'Dalar Nazarian Jeff Camp and David Sholl', 'email': 'dalar@gatech.edu jcamp6@gatech.edu'}], '_method': 'VASP DFT with PBE;DDEC'}
data_CoH16C24N2O5
_symmetry_space_group_name_H-M   'P 1'
_cell_length_a   9.29919960
_cell_length_b   11.51900000
_cell_length_c   13.26200000
_cell_angle_alpha   90.00000000
_cell_angle_beta   90.91299916
_cell_angle_gamma   90.00000000
_symmetry_Int_Tables_number   1
_chemical_formula_structural   CoH16C24N2O5
_chemical_formula_sum   'Co2 H32 C48 N4 O10'
_cell_volume   1420.41166798
_cell_formula_units_Z   2
loop_
 _symmetry_equiv_pos_site_id
 _symmetry_equiv_pos_as_xyz
  1  'x, y, z'
loop_
 _atom_site_label
 _atom_site_fract_x
 _atom_site_fract_y
 _atom_site_fract_z
 _atom_site_charge
 Co 0.25 0.4497 0.5   1.009432
 Co 0.75 0.5503 0.5   1.009432
 H 0.7616 0.5374 0.234   0.093094
 H 0.6643 0.4539 0.0895   0.130057
 H 0.9745 0.2118 0.0969   0.137825
 H 0.0711 0.2956 0.2414   0.094135
 H 0.0686 0.2379 0.4256   0.070867
 H 0.0688 0.0395 0.4167   0.121976
 H 0.15 0.8604 0.3652   0.135399
 H 0.1561 0.662 0.3681   0.072636
 H 0.7384 0.5374 0.766   0.093094
 H 0.8357 0.4539 0.9105   0.130057
 H 0.5255 0.2118 0.9031   0.137825
 H 0.4289 0.2956 0.7586   0.094135
 H 0.4314 0.2379 0.5744   0.070867
 H 0.4312 0.0395 0.5833   0.121976
 H 0.35 0.8604 0.6348   0.135399
 H 0.3439 0.662 0.6319   0.072636
 H 0.2384 0.4626 0.766   0.093094
 H 0.3357 0.5461 0.9105   0.130058
 H 0.0255 0.7882 0.9031   0.137826
 H 0.9289 0.7044 0.7586   0.094134
 H 0.9314 0.7621 0.5744   0.070867
 H 0.9312 0.9605 0.5833   0.121976
 H 0.85 0.1396 0.6348   0.135398
 H 0.8439 0.338 0.6319   0.072636
 H 0.2616 0.4626 0.234   0.093094
 H 0.1643 0.5461 0.0895   0.130058
 H 0.4745 0.7882 0.0969   0.137826
 H 0.5711 0.7044 0.2414   0.094134
 H 0.5686 0.7621 0.4256   0.070867
 H 0.5688 0.9605 0.4167   0.121976
 H 0.65 0.1396 0.3652   0.135398
 H 0.6561 0.338 0.3681   0.072636
 C 0.9833 0.4759 0.35129   0.682491
 C 0.9256 0.42421 0.25387   -0.208122
 C 0.804 0.4715 0.20693   0.025081
 C 0.7454 0.4218 0.12049   -0.252407
 C 0.809 0.3242 0.08109   0.295675
 C 0.9313 0.2768 0.12505   -0.252912
 C 0.9889 0.3272 0.21145   0.00913
 C 0.1446 0.1976 0.45556   0.176107
 C 0.1424 0.0776 0.45165   -0.222161
 C 0.1913 0.8222 0.42019   -0.218861
 C 0.1946 0.7023 0.42298   0.199811
 C 0.5167 0.4759 0.64871   0.682491
 C 0.5744 0.42421 0.74613   -0.208122
 C 0.696 0.4715 0.79307   0.025081
 C 0.7546 0.4218 0.87951   -0.252407
 C 0.691 0.3242 0.91891   0.295675
 C 0.5687 0.2768 0.87495   -0.252912
 C 0.5111 0.3272 0.78855   0.00913
 C 0.3554 0.1976 0.54444   0.176107
 C 0.3576 0.0776 0.54835   -0.222161
 C 0.3087 0.8222 0.57981   -0.218861
 C 0.3054 0.7023 0.57702   0.199811
 C 0.0167 0.5241 0.64871   0.682491
 C 0.0744 0.57579 0.74613   -0.208121
 C 0.196 0.5285 0.79307   0.025081
 C 0.2546 0.5782 0.87951   -0.252407
 C 0.191 0.6758 0.91891   0.295676
 C 0.0687 0.7232 0.87495   -0.252913
 C 0.0111 0.6728 0.78855   0.009131
 C 0.8554 0.8024 0.54444   0.176108
 C 0.8576 0.9224 0.54835   -0.222161
 C 0.8087 0.1778 0.57981   -0.21886
 C 0.8054 0.2977 0.57702   0.199811
 C 0.4833 0.5241 0.35129   0.682491
 C 0.4256 0.57579 0.25387   -0.208121
 C 0.304 0.5285 0.20693   0.025081
 C 0.2454 0.5782 0.12049   -0.252407
 C 0.309 0.6758 0.08109   0.295675
 C 0.4313 0.7232 0.12505   -0.252912
 C 0.4889 0.6728 0.21145   0.009131
 C 0.6446 0.8024 0.45556   0.176108
 C 0.6424 0.9224 0.45165   -0.222161
 C 0.6913 0.1778 0.42019   -0.21886
 C 0.6946 0.2977 0.42298   0.199811
 C 0.25 0.014 0.5   0.088243
 C 0.25 0.8854 0.5   0.092273
 C 0.75 0.986 0.5   0.088243
 C 0.75 0.1146 0.5   0.092272
 N 0.25 0.2587 0.5   -0.308485
 N 0.25 0.6408 0.5   -0.370083
 N 0.75 0.7413 0.5   -0.308485
 N 0.75 0.3592 0.5   -0.370083
 O 0.10331 0.43752 0.3809   -0.593471
 O 0.91122 0.55311 0.39329   -0.609814
 O 0.39669 0.43752 0.6191   -0.593471
 O 0.58878 0.55311 0.60671   -0.609814
 O 0.89669 0.56248 0.6191   -0.593471
 O 0.08878 0.44689 0.60671   -0.609814
 O 0.60331 0.56248 0.3809   -0.593471
 O 0.41122 0.44689 0.39329   -0.609814
 O 0.75 0.2632 0.0   -0.284456
 O 0.25 0.7368 0.0   -0.284456
