{'_ref': 'TBD', '_srcid': 'CAKYAQ_clean', 'submitters': [{'name': 'Dalar Nazarian Jeff Camp and David Sholl', 'email': 'dalar@gatech.edu jcamp6@gatech.edu'}], '_method': 'VASP DFT with PBE;DDEC'}
data_DyH9C18(NO2)3
_symmetry_space_group_name_H-M   'P 1'
_cell_length_a   9.88560007
_cell_length_b   11.68270033
_cell_length_c   13.44100000
_cell_angle_alpha   66.86300250
_cell_angle_beta   86.99499901
_cell_angle_gamma   76.58199966
_symmetry_Int_Tables_number   1
_chemical_formula_structural   DyH9C18(NO2)3
_chemical_formula_sum   'Dy2 H18 C36 N6 O12'
_cell_volume   1387.18333812
_cell_formula_units_Z   2
loop_
 _symmetry_equiv_pos_site_id
 _symmetry_equiv_pos_as_xyz
  1  'x, y, z'
loop_
 _atom_site_label
 _atom_site_fract_x
 _atom_site_fract_y
 _atom_site_fract_z
 _atom_site_charge
 Dy 0.76331 0.97386 0.99574   2.332282
 Dy 0.23669 0.02614 0.00426   2.332281
 H 0.9872 0.375 0.5568   0.053267
 H 0.9481 0.2631 0.7322   0.110495
 H 0.5624 0.4901 0.6809   0.119903
 H 0.6988 0.6747 0.3418   0.121718
 H 0.3163 0.9012 0.2932   0.118712
 H 0.2784 0.796 0.4742   0.072461
 H 0.6878 0.9081 0.4435   0.070452
 H 0.7555 0.9347 0.2723   0.101909
 H 0.0937 0.0325 0.3398   0.121345
 H 0.0128 0.625 0.4432   0.053267
 H 0.0519 0.7369 0.2678   0.110495
 H 0.4376 0.5099 0.3191   0.119904
 H 0.3012 0.3253 0.6582   0.121719
 H 0.6837 0.0988 0.7068   0.118712
 H 0.7216 0.204 0.5258   0.072461
 H 0.3122 0.0919 0.5565   0.070452
 H 0.2445 0.0653 0.7277   0.101909
 H 0.9063 0.9675 0.6602   0.121345
 C 0.71 0.2913 0.8415   0.699938
 C 0.901 0.399 0.5828   0.186663
 C 0.879 0.3305 0.6879   -0.167703
 C 0.749 0.365 0.727   -0.038371
 C 0.6505 0.4659 0.6575   -0.132946
 C 0.6854 0.5301 0.5524   0.193535
 C 0.5803 0.6421 0.4733   0.201384
 C 0.6122 0.7007 0.3664   -0.095223
 C 0.5115 0.7989 0.2978   -0.107913
 C 0.3859 0.8352 0.3382   -0.133105
 C 0.3641 0.772 0.4473   0.166333
 C 0.534 0.8674 0.1803   0.882672
 C 0.9854 0.0058 0.1734   0.859348
 C 0.771 0.933 0.4223   0.185311
 C 0.8097 0.9497 0.3184   -0.126171
 C 0.9336 0.9894 0.2848   -0.098488
 C 0.0101 0.0075 0.3586   -0.100789
 C 0.9608 0.988 0.46   0.190053
 C 0.29 0.7087 0.1585   0.699938
 C 0.099 0.601 0.4172   0.186663
 C 0.121 0.6695 0.3121   -0.167703
 C 0.251 0.635 0.273   -0.038371
 C 0.3495 0.5341 0.3425   -0.132946
 C 0.3146 0.4699 0.4476   0.193535
 C 0.4197 0.3579 0.5267   0.201384
 C 0.3878 0.2993 0.6336   -0.095223
 C 0.4885 0.2011 0.7022   -0.107913
 C 0.6141 0.1648 0.6618   -0.133105
 C 0.6359 0.228 0.5527   0.166333
 C 0.466 0.1326 0.8197   0.882672
 C 0.0146 0.9942 0.8266   0.859348
 C 0.229 0.067 0.5777   0.185311
 C 0.1903 0.0503 0.6816   -0.126171
 C 0.0664 0.0106 0.7152   -0.098488
 C 0.9899 0.9925 0.6414   -0.100789
 C 0.0392 0.012 0.54   0.190053
 N 0.8096 0.497 0.5142   -0.404409
 N 0.4627 0.6772 0.5155   -0.369954
 N 0.8401 0.9505 0.4939   -0.379558
 N 0.1904 0.503 0.4858   -0.404409
 N 0.5373 0.3228 0.4845   -0.369954
 N 0.1599 0.0495 0.5061   -0.379558
 O 0.6037 0.3362 0.8765   -0.579731
 O 0.7972 0.1842 0.8927   -0.809662
 O 0.4308 0.9415 0.1212   -0.859208
 O 0.6548 0.8541 0.1499   -0.7985
 O 0.104 0.027 0.1556   -0.744794
 O 0.9095 0.9963 0.1083   -0.841257
 O 0.3963 0.6638 0.1235   -0.579729
 O 0.2028 0.8158 0.1073   -0.809662
 O 0.5692 0.0585 0.8788   -0.859208
 O 0.3452 0.1459 0.8501   -0.7985
 O 0.896 0.973 0.8444   -0.744795
 O 0.0905 0.0037 0.8917   -0.841257
