{'_ref': 'TBD', '_srcid': 'CAKYAQ_clean', 'submitters': [{'name': 'Dalar Nazarian Jeff Camp and David Sholl', 'email': 'dalar@gatech.edu jcamp6@gatech.edu'}], '_method': 'VASP DFT with PBE;DDEC'}
data_GdH9C18(NO2)3
_symmetry_space_group_name_H-M   'P 1'
_cell_length_a   9.90080041
_cell_length_b   11.65559973
_cell_length_c   13.43540000
_cell_angle_alpha   66.83200102
_cell_angle_beta   87.01900057
_cell_angle_gamma   76.37700007
_symmetry_Int_Tables_number   1
_chemical_formula_structural   GdH9C18(NO2)3
_chemical_formula_sum   'Gd2 H18 C36 N6 O12'
_cell_volume   1383.87016143
_cell_formula_units_Z   2
loop_
 _symmetry_equiv_pos_site_id
 _symmetry_equiv_pos_as_xyz
  1  'x, y, z'
loop_
 _atom_site_label
 _atom_site_fract_x
 _atom_site_fract_y
 _atom_site_fract_z
 _atom_site_charge
 Gd 0.76372 0.97369 0.99516   2.234454
 Gd 0.23628 0.02631 0.00484   2.234452
 H 0.9855 0.3726 0.5566   0.056825
 H 0.9452 0.2666 0.734   0.106489
 H 0.5624 0.4934 0.6802   0.118599
 H 0.6956 0.6741 0.3432   0.114486
 H 0.3156 0.9005 0.2943   0.112303
 H 0.2813 0.8002 0.4741   0.066365
 H 0.6882 0.9064 0.4437   0.075211
 H 0.7626 0.9255 0.276   0.097442
 H 0.0928 0.0301 0.3389   0.115591
 H 0.0145 0.6274 0.4434   0.056824
 H 0.0548 0.7334 0.266   0.106489
 H 0.4376 0.5066 0.3198   0.1186
 H 0.3044 0.3259 0.6568   0.114487
 H 0.6844 0.0995 0.7057   0.112303
 H 0.7187 0.1998 0.5259   0.066366
 H 0.3118 0.0936 0.5563   0.075211
 H 0.2374 0.0745 0.724   0.097442
 H 0.9072 0.9699 0.6611   0.115591
 C 0.7101 0.2896 0.8415   0.697823
 C 0.9002 0.3989 0.5829   0.190093
 C 0.8756 0.3327 0.6885   -0.163976
 C 0.7493 0.3643 0.7263   -0.036256
 C 0.6497 0.4675 0.6563   -0.131284
 C 0.6826 0.5287 0.5536   0.200121
 C 0.5802 0.6407 0.4752   0.201365
 C 0.6092 0.7006 0.3678   -0.096106
 C 0.5107 0.7986 0.2981   -0.102732
 C 0.386 0.8349 0.3392   -0.137792
 C 0.3662 0.7736 0.4473   0.172064
 C 0.5351 0.8673 0.1792   0.855194
 C 0.7722 0.9297 0.4233   0.176708
 C 0.8141 0.9438 0.3214   -0.114431
 C 0.9354 0.9861 0.2868   -0.099211
 C 0.0094 0.0053 0.3584   -0.09372
 C 0.9603 0.9878 0.4621   0.195913
 C 0.9884 0.0033 0.1774   0.834243
 C 0.2899 0.7104 0.1585   0.697823
 C 0.0998 0.6011 0.4171   0.190094
 C 0.1244 0.6673 0.3115   -0.163975
 C 0.2507 0.6357 0.2737   -0.036255
 C 0.3503 0.5325 0.3437   -0.131284
 C 0.3174 0.4713 0.4464   0.200122
 C 0.4198 0.3593 0.5248   0.201365
 C 0.3908 0.2994 0.6322   -0.096106
 C 0.4893 0.2014 0.7019   -0.102731
 C 0.614 0.1651 0.6608   -0.137791
 C 0.6338 0.2264 0.5527   0.172063
 C 0.4649 0.1327 0.8208   0.855194
 C 0.2278 0.0703 0.5767   0.176707
 C 0.1859 0.0562 0.6786   -0.114431
 C 0.0646 0.0139 0.7132   -0.099211
 C 0.9906 0.9947 0.6416   -0.093719
 C 0.0397 0.0122 0.5379   0.195913
 C 0.0116 0.9967 0.8226   0.834243
 N 0.4615 0.6784 0.516   -0.376774
 N 0.808 0.4991 0.5158   -0.408908
 N 0.8434 0.947 0.4951   -0.382835
 N 0.5385 0.3216 0.484   -0.376774
 N 0.192 0.5009 0.4842   -0.408908
 N 0.1566 0.053 0.5049   -0.382835
 O 0.6038 0.335 0.8781   -0.58609
 O 0.795 0.1861 0.8926   -0.772309
 O 0.4328 0.941 0.1213   -0.816018
 O 0.6575 0.8503 0.1502   -0.767374
 O 0.1056 0.0277 0.158   -0.712411
 O 0.9102 0.9936 0.1111   -0.823068
 O 0.3962 0.665 0.1219   -0.586087
 O 0.205 0.8139 0.1074   -0.772309
 O 0.5672 0.059 0.8787   -0.816018
 O 0.3425 0.1497 0.8498   -0.767374
 O 0.8944 0.9723 0.842   -0.712411
 O 0.0898 0.0064 0.8889   -0.823068
