{'_ref': 'TBD', '_srcid': 'CAKYAQ_clean', 'submitters': [{'name': 'Dalar Nazarian Jeff Camp and David Sholl', 'email': 'dalar@gatech.edu jcamp6@gatech.edu'}], '_method': 'VASP DFT with PBE;DDEC'}
data_In2H9C21(NO4)3
_symmetry_space_group_name_H-M   'P 1'
_cell_length_a   16.06300000
_cell_length_b   16.48500000
_cell_length_c   19.02500000
_cell_angle_alpha   90.00000000
_cell_angle_beta   90.00000000
_cell_angle_gamma   90.00000000
_symmetry_Int_Tables_number   1
_chemical_formula_structural   In2H9C21(NO4)3
_chemical_formula_sum   'In16 H72 C168 N24 O96'
_cell_volume   5037.79250887
_cell_formula_units_Z   8
loop_
 _symmetry_equiv_pos_site_id
 _symmetry_equiv_pos_as_xyz
  1  'x, y, z'
loop_
 _atom_site_label
 _atom_site_fract_x
 _atom_site_fract_y
 _atom_site_fract_z
 _atom_site_charge
 In 0.54413 0.25746 0.0126   1.570064
 In 0.27961 0.93052 0.81576   1.496656
 In 0.95587 0.24254 0.0126   1.570065
 In 0.22039 0.56948 0.81576   1.496656
 In 0.45587 0.75746 0.4874   1.570064
 In 0.72039 0.43052 0.68424   1.496656
 In 0.04413 0.74254 0.4874   1.570065
 In 0.77961 0.06948 0.68424   1.496656
 In 0.45587 0.74254 0.9874   1.570064
 In 0.72039 0.06948 0.18424   1.496656
 In 0.04413 0.75746 0.9874   1.570065
 In 0.77961 0.43052 0.18424   1.496656
 In 0.54413 0.24254 0.5126   1.570064
 In 0.27961 0.56948 0.31576   1.496656
 In 0.95587 0.25746 0.5126   1.570065
 In 0.22039 0.93052 0.31576   1.496656
 H 0.2026 0.9561 0.0663   0.139281
 H 0.286 0.0673 0.1001   0.103012
 H 0.3923 0.0547 0.9114   0.087083
 H 0.0252 0.0438 0.6956   0.139452
 H 0.9722 0.125 0.7842   0.09277
 H 0.1654 0.0682 0.9057   0.071898
 H 0.4293 0.1018 0.6003   0.085536
 H 0.5605 0.234 0.7825   0.139013
 H 0.4615 0.1358 0.8077   0.115369
 H 0.2974 0.5439 0.0663   0.139281
 H 0.214 0.4327 0.1001   0.103012
 H 0.1077 0.4453 0.9114   0.087083
 H 0.4748 0.4562 0.6956   0.139452
 H 0.5278 0.375 0.7842   0.09277
 H 0.3346 0.4318 0.9057   0.071898
 H 0.0707 0.3982 0.6003   0.085536
 H 0.9395 0.266 0.7825   0.139013
 H 0.0385 0.3642 0.8077   0.115369
 H 0.7974 0.4561 0.4337   0.139281
 H 0.714 0.5673 0.3999   0.103012
 H 0.6077 0.5547 0.5886   0.087083
 H 0.9748 0.5438 0.8044   0.139452
 H 0.0278 0.625 0.7158   0.09277
 H 0.8346 0.5682 0.5943   0.071898
 H 0.5707 0.6018 0.8997   0.085536
 H 0.4395 0.734 0.7175   0.139013
 H 0.5385 0.6358 0.6923   0.115369
 H 0.7026 0.0439 0.4337   0.139281
 H 0.786 0.9327 0.3999   0.103012
 H 0.8923 0.9453 0.5886   0.087083
 H 0.5252 0.9562 0.8044   0.139452
 H 0.4722 0.875 0.7158   0.09277
 H 0.6654 0.9318 0.5943   0.071898
 H 0.9293 0.8982 0.8997   0.085536
 H 0.0605 0.766 0.7175   0.139013
 H 0.9615 0.8642 0.6923   0.115369
 H 0.7974 0.0439 0.9337   0.139281
 H 0.714 0.9327 0.8999   0.103012
 H 0.6077 0.9453 0.0886   0.087083
 H 0.9748 0.9562 0.3044   0.139452
 H 0.0278 0.875 0.2158   0.09277
 H 0.8346 0.9318 0.0943   0.071898
 H 0.5707 0.8982 0.3997   0.085536
 H 0.4395 0.766 0.2175   0.139013
 H 0.5385 0.8642 0.1923   0.115369
 H 0.7026 0.4561 0.9337   0.139281
 H 0.786 0.5673 0.8999   0.103012
 H 0.8923 0.5547 0.0886   0.087083
 H 0.5252 0.5438 0.3044   0.139452
 H 0.4722 0.625 0.2158   0.09277
 H 0.6654 0.5682 0.0943   0.071898
 H 0.9293 0.6018 0.3997   0.085536
 H 0.0605 0.734 0.2175   0.139013
 H 0.9615 0.6358 0.1923   0.115369
 H 0.2026 0.5439 0.5663   0.139281
 H 0.286 0.4327 0.6001   0.103012
 H 0.3923 0.4453 0.4114   0.087083
 H 0.0252 0.4562 0.1956   0.139452
 H 0.9722 0.375 0.2842   0.09277
 H 0.1654 0.4318 0.4057   0.071898
 H 0.4293 0.3982 0.1003   0.085536
 H 0.5605 0.266 0.2825   0.139013
 H 0.4615 0.3642 0.3077   0.115369
 H 0.2974 0.9561 0.5663   0.139281
 H 0.214 0.0673 0.6001   0.103012
 H 0.1077 0.0547 0.4114   0.087083
 H 0.4748 0.0438 0.1956   0.139452
 H 0.5278 0.125 0.2842   0.09277
 H 0.3346 0.0682 0.4057   0.071898
 H 0.0707 0.1018 0.1003   0.085536
 H 0.9395 0.234 0.2825   0.139013
 H 0.0385 0.1358 0.3077   0.115369
 C 0.1924 0.878 0.9467   0.632429
 C 0.2488 0.9466 0.9736   0.086348
 C 0.2415 0.9774 0.0351   -0.093027
 C 0.2921 0.0438 0.056   0.092164
 C 0.3498 0.0723 0.0097   -0.192184
 C 0.3532 0.036 0.9436   0.225155
 C 0.4075 0.1414 0.0288   0.70424
 C 0.1523 0.9381 0.7023   0.57708
 C 0.122 0.0042 0.7536   0.132019
 C 0.0514 0.0473 0.7391   -0.123388
 C 0.0209 0.0957 0.7915   0.054978
 C 0.0616 0.1016 0.8551   -0.18334
 C 0.1359 0.0614 0.864   0.18911
 C 0.0272 0.1513 0.9152   0.656596
 C 0.3713 0.0443 0.721   0.682314
 C 0.434 0.1104 0.709   -0.200792
 C 0.4539 0.1306 0.6368   0.226811
 C 0.5453 0.2288 0.6761   0.093185
 C 0.5314 0.2083 0.7466   -0.088591
 C 0.4734 0.149 0.7612   0.043681
 C 0.6027 0.2959 0.6551   0.642048
 C 0.3076 0.622 0.9467   0.632429
 C 0.2512 0.5534 0.9736   0.086348
 C 0.2585 0.5226 0.0351   -0.093027
 C 0.2079 0.4562 0.056   0.092164
 C 0.1502 0.4277 0.0097   -0.192184
 C 0.1468 0.464 0.9436   0.225155
 C 0.0925 0.3586 0.0288   0.70424
 C 0.3477 0.5619 0.7023   0.57708
 C 0.378 0.4958 0.7536   0.132019
 C 0.4486 0.4527 0.7391   -0.123388
 C 0.4791 0.4043 0.7915   0.054977
 C 0.4384 0.3984 0.8551   -0.18334
 C 0.3641 0.4386 0.864   0.18911
 C 0.4728 0.3487 0.9152   0.656596
 C 0.1287 0.4557 0.721   0.682314
 C 0.066 0.3896 0.709   -0.200792
 C 0.0461 0.3694 0.6368   0.226811
 C 0.9547 0.2712 0.6761   0.093185
 C 0.9686 0.2917 0.7466   -0.088591
 C 0.0266 0.351 0.7612   0.04368
 C 0.8973 0.2041 0.6551   0.642048
 C 0.8076 0.378 0.5533   0.632429
 C 0.7512 0.4466 0.5264   0.086348
 C 0.7585 0.4774 0.4649   -0.093027
 C 0.7079 0.5438 0.444   0.092164
 C 0.6502 0.5723 0.4903   -0.192184
 C 0.6468 0.536 0.5564   0.225155
 C 0.5925 0.6414 0.4712   0.70424
 C 0.8477 0.4381 0.7977   0.57708
 C 0.878 0.5042 0.7464   0.132019
 C 0.9486 0.5473 0.7609   -0.123388
 C 0.9791 0.5957 0.7085   0.054977
 C 0.9384 0.6016 0.6449   -0.18334
 C 0.8641 0.5614 0.636   0.18911
 C 0.9728 0.6513 0.5848   0.656596
 C 0.6287 0.5443 0.779   0.682314
 C 0.566 0.6104 0.791   -0.200792
 C 0.5461 0.6306 0.8632   0.226811
 C 0.4547 0.7288 0.8239   0.093185
 C 0.4686 0.7083 0.7534   -0.088591
 C 0.5266 0.649 0.7388   0.043681
 C 0.3973 0.7959 0.8449   0.642048
 C 0.6924 0.122 0.5533   0.632429
 C 0.7488 0.0534 0.5264   0.086348
 C 0.7415 0.0226 0.4649   -0.093027
 C 0.7921 0.9562 0.444   0.092164
 C 0.8498 0.9277 0.4903   -0.192184
 C 0.8532 0.964 0.5564   0.225155
 C 0.9075 0.8586 0.4712   0.70424
 C 0.6523 0.0619 0.7977   0.57708
 C 0.622 0.9958 0.7464   0.132019
 C 0.5514 0.9527 0.7609   -0.123388
 C 0.5209 0.9043 0.7085   0.054977
 C 0.5616 0.8984 0.6449   -0.18334
 C 0.6359 0.9386 0.636   0.18911
 C 0.5272 0.8487 0.5848   0.656596
 C 0.8713 0.9557 0.779   0.682314
 C 0.934 0.8896 0.791   -0.200792
 C 0.9539 0.8694 0.8632   0.226811
 C 0.0453 0.7712 0.8239   0.093185
 C 0.0314 0.7917 0.7534   -0.088592
 C 0.9734 0.851 0.7388   0.04368
 C 0.1027 0.7041 0.8449   0.642048
 C 0.8076 0.122 0.0533   0.632429
 C 0.7512 0.0534 0.0264   0.086348
 C 0.7585 0.0226 0.9649   -0.093027
 C 0.7079 0.9562 0.944   0.092164
 C 0.6502 0.9277 0.9903   -0.192184
 C 0.6468 0.964 0.0564   0.225155
 C 0.5925 0.8586 0.9712   0.70424
 C 0.8477 0.0619 0.2977   0.57708
 C 0.878 0.9958 0.2464   0.132019
 C 0.9486 0.9527 0.2609   -0.123388
 C 0.9791 0.9043 0.2085   0.054978
 C 0.9384 0.8984 0.1449   -0.18334
 C 0.8641 0.9386 0.136   0.18911
 C 0.9728 0.8487 0.0848   0.656596
 C 0.6287 0.9557 0.279   0.682314
 C 0.566 0.8896 0.291   -0.200792
 C 0.5461 0.8694 0.3632   0.226811
 C 0.4547 0.7712 0.3239   0.093185
 C 0.4686 0.7917 0.2534   -0.088591
 C 0.5266 0.851 0.2388   0.043681
 C 0.3973 0.7041 0.3449   0.642048
 C 0.6924 0.378 0.0533   0.632429
 C 0.7488 0.4466 0.0264   0.086348
 C 0.7415 0.4774 0.9649   -0.093027
 C 0.7921 0.5438 0.944   0.092164
 C 0.8498 0.5723 0.9903   -0.192184
 C 0.8532 0.536 0.0564   0.225155
 C 0.9075 0.6414 0.9712   0.70424
 C 0.6523 0.4381 0.2977   0.57708
 C 0.622 0.5042 0.2464   0.132019
 C 0.5514 0.5473 0.2609   -0.123388
 C 0.5209 0.5957 0.2085   0.054977
 C 0.5616 0.6016 0.1449   -0.18334
 C 0.6359 0.5614 0.136   0.18911
 C 0.5272 0.6513 0.0848   0.656596
 C 0.8713 0.5443 0.279   0.682314
 C 0.934 0.6104 0.291   -0.200792
 C 0.9539 0.6306 0.3632   0.226811
 C 0.0453 0.7288 0.3239   0.093185
 C 0.0314 0.7083 0.2534   -0.088591
 C 0.9734 0.649 0.2388   0.04368
 C 0.1027 0.7959 0.3449   0.642048
 C 0.1924 0.622 0.4467   0.632429
 C 0.2488 0.5534 0.4736   0.086348
 C 0.2415 0.5226 0.5351   -0.093027
 C 0.2921 0.4562 0.556   0.092164
 C 0.3498 0.4277 0.5097   -0.192184
 C 0.3532 0.464 0.4436   0.225155
 C 0.4075 0.3586 0.5288   0.70424
 C 0.1523 0.5619 0.2023   0.57708
 C 0.122 0.4958 0.2536   0.132019
 C 0.0514 0.4527 0.2391   -0.123388
 C 0.0209 0.4043 0.2915   0.054977
 C 0.0616 0.3984 0.3551   -0.18334
 C 0.1359 0.4386 0.364   0.18911
 C 0.0272 0.3487 0.4152   0.656596
 C 0.3713 0.4557 0.221   0.682314
 C 0.434 0.3896 0.209   -0.200792
 C 0.4539 0.3694 0.1368   0.226811
 C 0.5453 0.2712 0.1761   0.093185
 C 0.5314 0.2917 0.2466   -0.088591
 C 0.4734 0.351 0.2612   0.043681
 C 0.6027 0.2041 0.1551   0.642048
 C 0.3076 0.878 0.4467   0.632429
 C 0.2512 0.9466 0.4736   0.086348
 C 0.2585 0.9774 0.5351   -0.093027
 C 0.2079 0.0438 0.556   0.092164
 C 0.1502 0.0723 0.5097   -0.192184
 C 0.1468 0.036 0.4436   0.225155
 C 0.0925 0.1414 0.5288   0.70424
 C 0.3477 0.9381 0.2023   0.57708
 C 0.378 0.0042 0.2536   0.132019
 C 0.4486 0.0473 0.2391   -0.123388
 C 0.4791 0.0957 0.2915   0.054977
 C 0.4384 0.1016 0.3551   -0.18334
 C 0.3641 0.0614 0.364   0.18911
 C 0.4728 0.1513 0.4152   0.656596
 C 0.1287 0.0443 0.221   0.682314
 C 0.066 0.1104 0.209   -0.200792
 C 0.0461 0.1306 0.1368   0.226811
 C 0.9547 0.2288 0.1761   0.093185
 C 0.9686 0.2083 0.2466   -0.088592
 C 0.0266 0.149 0.2612   0.04368
 C 0.8973 0.2959 0.1551   0.642048
 N 0.3025 0.9754 0.9243   -0.401281
 N 0.1674 0.0118 0.8131   -0.395473
 N 0.5071 0.1901 0.6225   -0.390336
 N 0.1975 0.5246 0.9243   -0.401281
 N 0.3326 0.4882 0.8131   -0.395473
 N 0.9929 0.3099 0.6225   -0.390336
 N 0.6975 0.4754 0.5757   -0.401281
 N 0.8326 0.5118 0.6869   -0.395473
 N 0.4929 0.6901 0.8775   -0.390336
 N 0.8025 0.0246 0.5757   -0.401281
 N 0.6674 0.9882 0.6869   -0.395473
 N 0.0071 0.8099 0.8775   -0.390336
 N 0.6975 0.0246 0.0757   -0.401281
 N 0.8326 0.9882 0.1869   -0.395473
 N 0.4929 0.8099 0.3775   -0.390336
 N 0.8025 0.4754 0.0757   -0.401281
 N 0.6674 0.5118 0.1869   -0.395473
 N 0.0071 0.6901 0.3775   -0.390336
 N 0.3025 0.5246 0.4243   -0.401281
 N 0.1674 0.4882 0.3131   -0.395473
 N 0.5071 0.3099 0.1225   -0.390336
 N 0.1975 0.9754 0.4243   -0.401281
 N 0.3326 0.0118 0.3131   -0.395473
 N 0.9929 0.1901 0.1225   -0.390336
 O 0.2 0.8545 0.8834   -0.578899
 O 0.1435 0.8485 0.9903   -0.587221
 O 0.3942 0.1809 0.0809   -0.579105
 O 0.4653 0.1581 0.9867   -0.649164
 O 0.2115 0.8932 0.7255   -0.598638
 O 0.1141 0.929 0.6476   -0.530426
 O 0.971 0.2033 0.8991   -0.567151
 O 0.052 0.1453 0.976   -0.581302
 O 0.3662 0.0206 0.7851   -0.678513
 O 0.3322 0.0152 0.6752   -0.534905
 O 0.6398 0.332 0.7047   -0.530648
 O 0.6071 0.316 0.5931   -0.593909
 O 0.3 0.6455 0.8834   -0.578899
 O 0.3565 0.6515 0.9903   -0.587221
 O 0.1058 0.3191 0.0809   -0.579105
 O 0.0347 0.3419 0.9867   -0.649164
 O 0.2885 0.6068 0.7255   -0.598638
 O 0.3859 0.571 0.6476   -0.530426
 O 0.529 0.2967 0.8991   -0.567151
 O 0.448 0.3547 0.976   -0.581302
 O 0.1338 0.4794 0.7851   -0.678513
 O 0.1678 0.4848 0.6752   -0.534905
 O 0.8602 0.168 0.7047   -0.530648
 O 0.8929 0.184 0.5931   -0.593909
 O 0.8 0.3545 0.6166   -0.578899
 O 0.8565 0.3485 0.5097   -0.587221
 O 0.6058 0.6809 0.4191   -0.579105
 O 0.5347 0.6581 0.5133   -0.649164
 O 0.7885 0.3932 0.7745   -0.598638
 O 0.8859 0.429 0.8524   -0.530426
 O 0.029 0.7033 0.6009   -0.567151
 O 0.948 0.6453 0.524   -0.581302
 O 0.6338 0.5206 0.7149   -0.678513
 O 0.6678 0.5152 0.8248   -0.534905
 O 0.3602 0.832 0.7953   -0.530648
 O 0.3929 0.816 0.9069   -0.593909
 O 0.7 0.1455 0.6166   -0.578899
 O 0.6435 0.1515 0.5097   -0.587221
 O 0.8942 0.8191 0.4191   -0.579105
 O 0.9653 0.8419 0.5133   -0.649164
 O 0.7115 0.1068 0.7745   -0.598638
 O 0.6141 0.071 0.8524   -0.530426
 O 0.471 0.7967 0.6009   -0.567151
 O 0.552 0.8547 0.524   -0.581302
 O 0.8662 0.9794 0.7149   -0.678513
 O 0.8322 0.9848 0.8248   -0.534905
 O 0.1398 0.668 0.7953   -0.530648
 O 0.1071 0.684 0.9069   -0.593909
 O 0.8 0.1455 0.1166   -0.578899
 O 0.8565 0.1515 0.0097   -0.587221
 O 0.6058 0.8191 0.9191   -0.579105
 O 0.5347 0.8419 0.0133   -0.649164
 O 0.7885 0.1068 0.2745   -0.598638
 O 0.8859 0.071 0.3524   -0.530426
 O 0.029 0.7967 0.1009   -0.567151
 O 0.948 0.8547 0.024   -0.581302
 O 0.6338 0.9794 0.2149   -0.678513
 O 0.6678 0.9848 0.3248   -0.534905
 O 0.3602 0.668 0.2953   -0.530648
 O 0.3929 0.684 0.4069   -0.593909
 O 0.7 0.3545 0.1166   -0.578899
 O 0.6435 0.3485 0.0097   -0.587221
 O 0.8942 0.6809 0.9191   -0.579105
 O 0.9653 0.6581 0.0133   -0.649164
 O 0.7115 0.3932 0.2745   -0.598638
 O 0.6141 0.429 0.3524   -0.530426
 O 0.471 0.7033 0.1009   -0.567151
 O 0.552 0.6453 0.024   -0.581302
 O 0.8662 0.5206 0.2149   -0.678513
 O 0.8322 0.5152 0.3248   -0.534905
 O 0.1398 0.832 0.2953   -0.530648
 O 0.1071 0.816 0.4069   -0.593909
 O 0.2 0.6455 0.3834   -0.578899
 O 0.1435 0.6515 0.4903   -0.587221
 O 0.3942 0.3191 0.5809   -0.579105
 O 0.4653 0.3419 0.4867   -0.649164
 O 0.2115 0.6068 0.2255   -0.598638
 O 0.1141 0.571 0.1476   -0.530426
 O 0.971 0.2967 0.3991   -0.567151
 O 0.052 0.3547 0.476   -0.581302
 O 0.3662 0.4794 0.2851   -0.678513
 O 0.3322 0.4848 0.1752   -0.534905
 O 0.6398 0.168 0.2047   -0.530648
 O 0.6071 0.184 0.0931   -0.593909
 O 0.3 0.8545 0.3834   -0.578899
 O 0.3565 0.8485 0.4903   -0.587221
 O 0.1058 0.1809 0.5809   -0.579105
 O 0.0347 0.1581 0.4867   -0.649164
 O 0.2885 0.8932 0.2255   -0.598638
 O 0.3859 0.929 0.1476   -0.530426
 O 0.529 0.2033 0.3991   -0.567151
 O 0.448 0.1453 0.476   -0.581302
 O 0.1338 0.0206 0.2851   -0.678513
 O 0.1678 0.0152 0.1752   -0.534905
 O 0.8602 0.332 0.2047   -0.530648
 O 0.8929 0.316 0.0931   -0.593909
