{'_ref': 'TBD', '_srcid': 'CAKYAQ_clean', 'submitters': [{'name': 'Dalar Nazarian Jeff Camp and David Sholl', 'email': 'dalar@gatech.edu jcamp6@gatech.edu'}], '_method': 'VASP DFT with PBE;DDEC'}
data_ZnH6C8(N2O)2
_symmetry_space_group_name_H-M   'P 1'
_cell_length_a   17.27150000
_cell_length_b   17.27150000
_cell_length_c   17.27150000
_cell_angle_alpha   90.00000000
_cell_angle_beta   90.00000000
_cell_angle_gamma   90.00000000
_symmetry_Int_Tables_number   1
_chemical_formula_structural   ZnH6C8(N2O)2
_chemical_formula_sum   'Zn12 H72 C96 N48 O24'
_cell_volume   5152.16983763
_cell_formula_units_Z   12
loop_
 _symmetry_equiv_pos_site_id
 _symmetry_equiv_pos_as_xyz
  1  'x, y, z'
loop_
 _atom_site_label
 _atom_site_fract_x
 _atom_site_fract_y
 _atom_site_fract_z
 _atom_site_charge
 Zn 0.0 0.5 0.25   0.860824
 Zn 0.0 0.5 0.75   0.857372
 Zn 0.25 0.0 0.5   0.862022
 Zn 0.75 0.0 0.5   0.861853
 Zn 0.5 0.25 0.0   0.859001
 Zn 0.5 0.75 0.0   0.860112
 Zn 0.5 0.0 0.25   0.862586
 Zn 0.5 0.0 0.75   0.858861
 Zn 0.0 0.25 0.5   0.860708
 Zn 0.0 0.75 0.5   0.859594
 Zn 0.25 0.5 0.0   0.859795
 Zn 0.75 0.5 0.0   0.85965
 H 0.93 0.59 0.105   -0.019289
 H 0.8627 0.368 0.2292   0.092793
 H 0.3627 0.868 0.7292   0.087677
 H 0.07 0.41 0.105   -0.020354
 H 0.1373 0.632 0.2292   0.08926
 H 0.6373 0.132 0.7292   0.093343
 H 0.1373 0.368 0.7708   0.084043
 H 0.6373 0.868 0.2708   0.091081
 H 0.8627 0.632 0.7708   0.085508
 H 0.43 0.91 0.395   -0.018742
 H 0.3627 0.132 0.2708   0.095229
 H 0.105 0.93 0.59   -0.019931
 H 0.2292 0.8627 0.368   0.086432
 H 0.7292 0.3627 0.868   0.090303
 H 0.105 0.07 0.41   -0.015501
 H 0.2292 0.1373 0.632   0.099376
 H 0.605 0.57 0.91   -0.014277
 H 0.7292 0.6373 0.132   0.086123
 H 0.7708 0.1373 0.368   0.085548
 H 0.2708 0.6373 0.868   0.092355
 H 0.895 0.93 0.41   -0.016794
 H 0.7708 0.8627 0.632   0.092871
 H 0.395 0.43 0.91   -0.017999
 H 0.2708 0.3627 0.132   0.086865
 H 0.59362 0.07348 0.89099   -0.016896
 H 0.368 0.2292 0.8627   0.085981
 H 0.09 0.605 0.43   -0.011069
 H 0.868 0.7292 0.3627   0.091495
 H 0.632 0.2292 0.1373   0.088667
 H 0.91 0.605 0.57   -0.025473
 H 0.132 0.7292 0.6373   0.087664
 H 0.368 0.7708 0.1373   0.091752
 H 0.09 0.395 0.57   -0.022102
 H 0.868 0.2708 0.6373   0.087015
 H 0.41 0.895 0.93   -0.023685
 H 0.632 0.7708 0.8627   0.091565
 H 0.132 0.2708 0.3627   0.085227
 H 0.59 0.93 0.105   -0.014707
 H 0.368 0.8627 0.2292   0.093257
 H 0.868 0.3627 0.7292   0.08707
 H 0.41 0.07 0.105   -0.023526
 H 0.632 0.1373 0.2292   0.085804
 H 0.132 0.6373 0.7292   0.087719
 H 0.368 0.1373 0.7708   0.085557
 H 0.868 0.6373 0.2708   0.090542
 H 0.632 0.8627 0.7708   0.086819
 H 0.91 0.43 0.395   -0.01899
 H 0.132 0.3627 0.2708   0.092961
 H 0.93 0.105 0.59   -0.016892
 H 0.8627 0.2292 0.368   0.090436
 H 0.43 0.605 0.09   -0.015274
 H 0.3627 0.7292 0.868   0.094913
 H 0.1373 0.2292 0.632   0.096886
 H 0.6373 0.7292 0.132   0.079991
 H 0.1373 0.7708 0.368   0.08653
 H 0.57 0.395 0.09   -0.014003
 H 0.6373 0.2708 0.868   0.093754
 H 0.8627 0.7708 0.632   0.092563
 H 0.3627 0.2708 0.132   0.082961
 H 0.105 0.59 0.93   -0.024227
 H 0.2292 0.368 0.8627   0.089337
 H 0.605 0.09 0.43   -0.011166
 H 0.7292 0.868 0.3627   0.09525
 H 0.2292 0.632 0.1373   0.08628
 H 0.605 0.91 0.57   -0.024434
 H 0.7292 0.132 0.6373   0.090593
 H 0.7708 0.368 0.1373   0.090803
 H 0.395 0.09 0.57   -0.022657
 H 0.2708 0.868 0.6373   0.088954
 H 0.895 0.41 0.93   -0.023728
 H 0.7708 0.632 0.8627   0.087987
 H 0.2708 0.132 0.3627   0.089231
 C 0.8603 0.4063 0.1898   -0.017077
 C 0.3603 0.9063 0.6898   0.011609
 C 0.1397 0.5937 0.1898   -0.008301
 C 0.6397 0.0937 0.6898   0.004276
 C 0.1397 0.4063 0.8102   0.009105
 C 0.6397 0.9063 0.3102   -0.008857
 C 0.8603 0.5937 0.8102   0.009469
 C 0.3603 0.0937 0.3102   0.002192
 C 0.1898 0.8603 0.4063   -0.006346
 C 0.6898 0.3603 0.9063   -0.012268
 C 0.1898 0.1397 0.5937   -0.010314
 C 0.6898 0.6397 0.0937   0.004576
 C 0.8102 0.1397 0.4063   -0.015351
 C 0.3102 0.6397 0.9063   -0.008105
 C 0.8102 0.8603 0.5937   -0.001283
 C 0.3102 0.3603 0.0937   0.002904
 C 0.4063 0.1898 0.8603   0.005314
 C 0.9063 0.6898 0.3603   -0.002223
 C 0.5937 0.1898 0.1397   0.003786
 C 0.0937 0.6898 0.6397   -0.010206
 C 0.4063 0.8102 0.1397   -0.006274
 C 0.9063 0.3102 0.6397   -0.0085
 C 0.5937 0.8102 0.8603   0.005187
 C 0.0937 0.3102 0.3603   -0.0024
 C 0.4063 0.8603 0.1898   -0.01457
 C 0.9063 0.3603 0.6898   0.011911
 C 0.5937 0.1397 0.1898   -0.00915
 C 0.0937 0.6397 0.6898   0.010599
 C 0.4063 0.1397 0.8102   0.003562
 C 0.9063 0.6397 0.3102   -0.01217
 C 0.5937 0.8603 0.8102   -0.003276
 C 0.0937 0.3603 0.3102   -0.001937
 C 0.8603 0.1898 0.4063   0.009431
 C 0.3603 0.6898 0.9063   5.5e-05
 C 0.1397 0.1898 0.5937   -0.003796
 C 0.6397 0.6898 0.0937   -0.006505
 C 0.1397 0.8102 0.4063   0.000628
 C 0.6397 0.3102 0.9063   0.009459
 C 0.8603 0.8102 0.5937   0.004868
 C 0.3603 0.3102 0.0937   -0.004361
 C 0.1898 0.4063 0.8603   -0.005856
 C 0.6898 0.9063 0.3603   -0.00944
 C 0.1898 0.5937 0.1397   -0.001638
 C 0.6898 0.0937 0.6397   -0.006383
 C 0.8102 0.4063 0.1397   0.002132
 C 0.3102 0.9063 0.6397   -0.006491
 C 0.8102 0.5937 0.8603   -0.006653
 C 0.3102 0.0937 0.3603   -0.010442
 C 0.8747 0.4867 0.1253   0.344824
 C 0.8974 0.5674 0.1026   0.248982
 C 0.3747 0.9867 0.6253   0.342904
 C 0.3974 0.0674 0.6026   0.256661
 C 0.1253 0.5133 0.1253   0.343766
 C 0.1026 0.4326 0.1026   0.252542
 C 0.6253 0.0133 0.6253   0.340277
 C 0.6026 0.9326 0.6026   0.255465
 C 0.1253 0.4867 0.8747   0.342335
 C 0.1026 0.5674 0.8974   0.255963
 C 0.6253 0.9867 0.3747   0.344985
 C 0.6026 0.0674 0.3974   0.254611
 C 0.8747 0.5133 0.8747   0.34214
 C 0.8974 0.4326 0.8974   0.25769
 C 0.3747 0.0133 0.3747   0.349171
 C 0.3974 0.9326 0.3974   0.247999
 C 0.1253 0.8747 0.4867   0.34457
 C 0.1026 0.8974 0.5674   0.25666
 C 0.6253 0.3747 0.9867   0.338563
 C 0.6026 0.3974 0.0674   0.258634
 C 0.1253 0.1253 0.5133   0.340446
 C 0.1026 0.1026 0.4326   0.253504
 C 0.6253 0.6253 0.0133   0.34265
 C 0.6026 0.6026 0.9326   0.262354
 C 0.8747 0.1253 0.4867   0.344398
 C 0.8974 0.1026 0.5674   0.257624
 C 0.3747 0.6253 0.9867   0.344623
 C 0.3974 0.6026 0.0674   0.251357
 C 0.8747 0.8747 0.5133   0.345276
 C 0.8974 0.8974 0.4326   0.253708
 C 0.3747 0.3747 0.0133   0.339707
 C 0.3974 0.3974 0.9326   0.262323
 C 0.4867 0.1253 0.8747   0.334788
 C 0.5674 0.1026 0.8974   0.266782
 C 0.9867 0.6253 0.3747   0.34288
 C 0.0674 0.6026 0.3974   0.255816
 C 0.5133 0.1253 0.1253   0.347088
 C 0.4326 0.1026 0.1026   0.250873
 C 0.0133 0.6253 0.6253   0.338145
 C 0.9326 0.6026 0.6026   0.258257
 C 0.4867 0.8747 0.1253   0.34801
 C 0.5674 0.8974 0.1026   0.248211
 C 0.9867 0.3747 0.6253   0.342522
 C 0.0674 0.3974 0.6026   0.256982
 C 0.5133 0.8747 0.8747   0.33978
 C 0.4326 0.8974 0.8974   0.256007
 C 0.0133 0.3747 0.3747   0.347478
 C 0.9326 0.3974 0.3974   0.25103
 N 0.9143 0.4677 0.1845   -0.417707
 N 0.4143 0.9677 0.6845   -0.402726
 N 0.0857 0.5323 0.1845   -0.416193
 N 0.5857 0.0323 0.6845   -0.400377
 N 0.0857 0.4677 0.8155   -0.403179
 N 0.5857 0.9677 0.3155   -0.407858
 N 0.9143 0.5323 0.8155   -0.402684
 N 0.4143 0.0323 0.3155   -0.4201
 N 0.1845 0.9143 0.4677   -0.417722
 N 0.6845 0.4143 0.9677   -0.415963
 N 0.1845 0.0857 0.5323   -0.410007
 N 0.6845 0.5857 0.0323   -0.407762
 N 0.8155 0.0857 0.4677   -0.417153
 N 0.3155 0.5857 0.9677   -0.408909
 N 0.8155 0.9143 0.5323   -0.426402
 N 0.3155 0.4143 0.0323   -0.412956
 N 0.4677 0.1845 0.9143   -0.411788
 N 0.9677 0.6845 0.4143   -0.400663
 N 0.5323 0.1845 0.0857   -0.399695
 N 0.0323 0.6845 0.5857   -0.425234
 N 0.4677 0.8155 0.0857   -0.397721
 N 0.9677 0.3155 0.5857   -0.432321
 N 0.5323 0.8155 0.9143   -0.420288
 N 0.0323 0.3155 0.4143   -0.407665
 N 0.4677 0.9143 0.1845   -0.413835
 N 0.9677 0.4143 0.6845   -0.400289
 N 0.5323 0.0857 0.1845   -0.428369
 N 0.0323 0.5857 0.6845   -0.395684
 N 0.4677 0.0857 0.8155   -0.4177
 N 0.9677 0.5857 0.3155   -0.410836
 N 0.5323 0.9143 0.8155   -0.405612
 N 0.0323 0.4143 0.3155   -0.42144
 N 0.9143 0.1845 0.4677   -0.408061
 N 0.4143 0.6845 0.9677   -0.416345
 N 0.0857 0.1845 0.5323   -0.401749
 N 0.5857 0.6845 0.0323   -0.414998
 N 0.0857 0.8155 0.4677   -0.406211
 N 0.5857 0.3155 0.9677   -0.405125
 N 0.9143 0.8155 0.5323   -0.414213
 N 0.4143 0.3155 0.0323   -0.407916
 N 0.1845 0.4677 0.9143   -0.428632
 N 0.6845 0.9677 0.4143   -0.403736
 N 0.1845 0.5323 0.0857   -0.398477
 N 0.6845 0.0323 0.5857   -0.424169
 N 0.8155 0.4677 0.0857   -0.395549
 N 0.3155 0.9677 0.5857   -0.433288
 N 0.8155 0.5323 0.9143   -0.428601
 N 0.3155 0.0323 0.4143   -0.410029
 O 0.8856 0.6129 0.0514   -0.346222
 O 0.1144 0.3871 0.0514   -0.3479
 O 0.3856 0.8871 0.4486   -0.35057
 O 0.0514 0.8856 0.6129   -0.354114
 O 0.0514 0.1144 0.3871   -0.358291
 O 0.5514 0.6144 0.8871   -0.365948
 O 0.9486 0.8856 0.3871   -0.371261
 O 0.4486 0.3856 0.8871   -0.365414
 O 0.1129 0.5514 0.3856   -0.3588
 O 0.8871 0.5514 0.6144   -0.361023
 O 0.1129 0.4486 0.6144   -0.367396
 O 0.3871 0.9486 0.8856   -0.360314
 O 0.6129 0.8856 0.0514   -0.345696
 O 0.3871 0.1144 0.0514   -0.350067
 O 0.6129 0.1144 0.9486   -0.383427
 O 0.8871 0.3856 0.4486   -0.353815
 O 0.8856 0.0514 0.6129   -0.358505
 O 0.3856 0.5514 0.1129   -0.362729
 O 0.6144 0.4486 0.1129   -0.374195
 O 0.0514 0.6129 0.8856   -0.36453
 O 0.5514 0.1129 0.3856   -0.354229
 O 0.5514 0.8871 0.6144   -0.358071
 O 0.4486 0.1129 0.6144   -0.365536
 O 0.9486 0.3871 0.8856   -0.365302
