{'_ref': 'TBD', '_srcid': 'CAKYAQ_clean', 'submitters': [{'name': 'Dalar Nazarian Jeff Camp and David Sholl', 'email': 'dalar@gatech.edu jcamp6@gatech.edu'}], '_method': 'VASP DFT with PBE;DDEC'}
data_ZnH6(C3N2)2
_symmetry_space_group_name_H-M   'P 1'
_cell_length_a   15.30730000
_cell_length_b   15.39500000
_cell_length_c   18.42600000
_cell_angle_alpha   90.00000000
_cell_angle_beta   90.00000000
_cell_angle_gamma   90.00000000
_symmetry_Int_Tables_number   1
_chemical_formula_structural   ZnH6(C3N2)2
_chemical_formula_sum   'Zn16 H96 C96 N64'
_cell_volume   4342.19530937
_cell_formula_units_Z   16
loop_
 _symmetry_equiv_pos_site_id
 _symmetry_equiv_pos_as_xyz
  1  'x, y, z'
loop_
 _atom_site_label
 _atom_site_fract_x
 _atom_site_fract_y
 _atom_site_fract_z
 _atom_site_charge
 Zn 0.63949 0.70215 0.908302   0.733162
 Zn 0.83602 0.009635 0.813743   0.728219
 Zn 0.36051 0.79785 0.408302   0.726481
 Zn 0.16398 0.490365 0.313743   0.735114
 Zn 0.86051 0.20215 0.091698   0.733163
 Zn 0.66398 0.509635 0.186257   0.728219
 Zn 0.13949 0.29785 0.591698   0.726481
 Zn 0.33602 0.990365 0.686257   0.735114
 Zn 0.36051 0.29785 0.091698   0.733163
 Zn 0.16398 0.990365 0.186257   0.72822
 Zn 0.63949 0.20215 0.591698   0.726481
 Zn 0.83602 0.509635 0.686257   0.735115
 Zn 0.13949 0.79785 0.908302   0.733163
 Zn 0.33602 0.490365 0.813743   0.72822
 Zn 0.86051 0.70215 0.408302   0.726482
 Zn 0.66398 0.009635 0.313743   0.735115
 H 0.7801 0.8219 0.8448   0.057542
 H 0.558 0.8993 0.928   0.099558
 H 0.6395 0.0287 0.8881   0.098061
 H 0.5374 0.7391 0.7583   0.095786
 H 0.8454 0.6372 0.9357   0.097146
 H 0.687 0.5977 0.7724   0.053857
 H 0.8108 0.064 0.9764   0.05579
 H 0.9245 0.0578 0.6579   0.082863
 H 0.99 0.9381 0.9046   0.058306
 H 0.9223 0.8579 0.7117   0.089015
 H 0.575 0.785 0.0661   0.095538
 H 0.9106 0.2038 0.8208   0.091589
 H 0.2199 0.6781 0.3448   0.055679
 H 0.442 0.6007 0.428   0.098075
 H 0.3605 0.4713 0.3881   0.097299
 H 0.4626 0.7609 0.2583   0.099002
 H 0.1546 0.8628 0.4357   0.095056
 H 0.313 0.9023 0.2724   0.054472
 H 0.1892 0.436 0.4764   0.057001
 H 0.0755 0.4422 0.1579   0.081028
 H 0.01 0.5619 0.4046   0.058639
 H 0.0777 0.6421 0.2117   0.097314
 H 0.0338 0.3236 0.3373   0.100559
 H 0.4772 0.7468 0.546   0.100922
 H 0.7199 0.3219 0.1552   0.057542
 H 0.942 0.3993 0.072   0.099559
 H 0.8605 0.5287 0.1119   0.098062
 H 0.9626 0.2391 0.2417   0.095786
 H 0.6546 0.1372 0.0643   0.097146
 H 0.813 0.0977 0.2276   0.053857
 H 0.6892 0.564 0.0236   0.05579
 H 0.5755 0.5578 0.3421   0.082864
 H 0.51 0.4381 0.0954   0.058306
 H 0.5777 0.3579 0.2883   0.089015
 H 0.925 0.285 0.9339   0.095534
 H 0.5894 0.7038 0.1792   0.091585
 H 0.2801 0.1781 0.6552   0.055678
 H 0.058 0.1007 0.572   0.098075
 H 0.1395 0.9713 0.6119   0.0973
 H 0.0374 0.2609 0.7417   0.099002
 H 0.3454 0.3628 0.5643   0.095056
 H 0.187 0.4023 0.7276   0.054472
 H 0.3108 0.936 0.5236   0.057001
 H 0.4245 0.9422 0.8421   0.081028
 H 0.49 0.0619 0.5954   0.058639
 H 0.4223 0.1421 0.7883   0.097314
 H 0.4662 0.8236 0.6627   0.100558
 H 0.0228 0.2468 0.454   0.10092
 H 0.2199 0.1781 0.1552   0.057542
 H 0.442 0.1007 0.072   0.099559
 H 0.3605 0.9713 0.1119   0.098062
 H 0.4626 0.2609 0.2417   0.095785
 H 0.1546 0.3628 0.0643   0.097143
 H 0.313 0.4023 0.2276   0.053857
 H 0.1892 0.936 0.0236   0.05579
 H 0.0755 0.9422 0.3421   0.08286
 H 0.01 0.0619 0.0954   0.058306
 H 0.0777 0.1421 0.2883   0.089014
 H 0.425 0.215 0.9339   0.095539
 H 0.0894 0.7962 0.1792   0.091589
 H 0.7801 0.3219 0.6552   0.055678
 H 0.558 0.3993 0.572   0.098076
 H 0.6395 0.5287 0.6119   0.0973
 H 0.5374 0.2391 0.7417   0.099001
 H 0.8454 0.1372 0.5643   0.095053
 H 0.687 0.0977 0.7276   0.054471
 H 0.8108 0.564 0.5236   0.057001
 H 0.9245 0.5578 0.8421   0.081024
 H 0.99 0.4381 0.5954   0.058639
 H 0.9223 0.3579 0.7883   0.097313
 H 0.9662 0.6764 0.6627   0.100559
 H 0.5228 0.2532 0.454   0.100922
 H 0.2801 0.6781 0.8448   0.057542
 H 0.058 0.6007 0.928   0.09956
 H 0.1395 0.4713 0.8881   0.098062
 H 0.0374 0.7609 0.7583   0.095785
 H 0.3454 0.8628 0.9357   0.097144
 H 0.187 0.9023 0.7724   0.053857
 H 0.3108 0.436 0.9764   0.05579
 H 0.4245 0.4422 0.6579   0.082861
 H 0.49 0.5619 0.9046   0.058306
 H 0.4223 0.6421 0.7117   0.089014
 H 0.075 0.715 0.0661   0.095535
 H 0.4106 0.2962 0.8208   0.091585
 H 0.7199 0.8219 0.3448   0.055678
 H 0.942 0.8993 0.428   0.098076
 H 0.8605 0.0287 0.3881   0.0973
 H 0.9626 0.7391 0.2583   0.099001
 H 0.6546 0.6372 0.4357   0.095053
 H 0.813 0.5977 0.2724   0.054471
 H 0.6892 0.064 0.4764   0.057001
 H 0.5755 0.0578 0.1579   0.081025
 H 0.51 0.9381 0.4046   0.058639
 H 0.5777 0.8579 0.2117   0.097313
 H 0.5338 0.1764 0.3373   0.100558
 H 0.9772 0.7532 0.546   0.100921
 C 0.7339 0.85769 0.86019   0.226107
 C 0.6132 0.8991 0.90571   -0.035339
 C 0.6582 0.9708 0.8837   -0.035148
 C 0.5137 0.6911 0.783   -0.039832
 C 0.8224 0.6198 0.89068   -0.036416
 C 0.73721 0.59815 0.80184   0.231976
 C 0.84601 0.1059 0.9536   0.259634
 C 0.8659 0.076 0.66094   -0.017491
 C 0.98711 0.90531 0.86161   0.222942
 C 0.9499 0.8628 0.7571   -0.031728
 C 0.5951 0.7275 0.0703   -0.046559
 C 0.8976 0.183 0.8675   -0.021805
 C 0.2661 0.64231 0.36019   0.225967
 C 0.3868 0.6009 0.40571   -0.035068
 C 0.3418 0.5292 0.3837   -0.032008
 C 0.4863 0.8089 0.283   -0.036679
 C 0.1776 0.8802 0.39068   -0.038786
 C 0.26279 0.90185 0.30184   0.228363
 C 0.15399 0.3941 0.4536   0.24221
 C 0.1341 0.424 0.16094   -0.017959
 C 0.01289 0.59469 0.36161   0.220051
 C 0.0501 0.6372 0.2571   -0.035617
 C 0.0677 0.3349 0.3788   -0.046345
 C 0.4381 0.792 0.557   -0.025568
 C 0.7661 0.35769 0.13981   0.226108
 C 0.8868 0.3991 0.09429   -0.035339
 C 0.8418 0.4708 0.1163   -0.035148
 C 0.9863 0.1911 0.217   -0.039832
 C 0.6776 0.1198 0.10932   -0.036416
 C 0.76279 0.09815 0.19816   0.231976
 C 0.65399 0.6059 0.0464   0.259633
 C 0.6341 0.576 0.33906   -0.017491
 C 0.51289 0.40531 0.13839   0.222942
 C 0.5501 0.3628 0.2429   -0.031728
 C 0.9049 0.2275 0.9297   -0.04653
 C 0.6024 0.683 0.1325   -0.021775
 C 0.2339 0.14231 0.63981   0.225967
 C 0.1132 0.1009 0.59429   -0.035068
 C 0.1582 0.0292 0.6163   -0.032008
 C 0.0137 0.3089 0.717   -0.036679
 C 0.3224 0.3802 0.60932   -0.038786
 C 0.23721 0.40185 0.69816   0.228364
 C 0.34601 0.8941 0.5464   0.242209
 C 0.3659 0.924 0.83906   -0.01796
 C 0.48711 0.09469 0.63839   0.220051
 C 0.4499 0.1372 0.7429   -0.035617
 C 0.4323 0.8349 0.6212   -0.046334
 C 0.0619 0.292 0.443   -0.025558
 C 0.2661 0.14231 0.13981   0.226108
 C 0.3868 0.1009 0.09429   -0.035339
 C 0.3418 0.0292 0.1163   -0.035148
 C 0.4863 0.3089 0.217   -0.039823
 C 0.1776 0.3802 0.10932   -0.03639
 C 0.26279 0.40185 0.19816   0.231976
 C 0.15399 0.8941 0.0464   0.259634
 C 0.1341 0.924 0.33906   -0.017465
 C 0.01289 0.09469 0.13839   0.222942
 C 0.0501 0.1372 0.2429   -0.031719
 C 0.4049 0.2725 0.9297   -0.046559
 C 0.1024 0.817 0.1325   -0.021805
 C 0.7339 0.35769 0.63981   0.225967
 C 0.6132 0.3991 0.59429   -0.035068
 C 0.6582 0.4708 0.6163   -0.032009
 C 0.5137 0.1911 0.717   -0.03667
 C 0.8224 0.1198 0.60932   -0.03876
 C 0.73721 0.09815 0.69816   0.228363
 C 0.84601 0.6059 0.5464   0.24221
 C 0.8659 0.576 0.83906   -0.017933
 C 0.98711 0.40531 0.63839   0.220051
 C 0.9499 0.3628 0.7429   -0.035608
 C 0.9323 0.6651 0.6212   -0.046345
 C 0.5619 0.208 0.443   -0.025569
 C 0.2339 0.64231 0.86019   0.226108
 C 0.1132 0.6009 0.90571   -0.035339
 C 0.1582 0.5292 0.8837   -0.035148
 C 0.0137 0.8089 0.783   -0.039823
 C 0.3224 0.8802 0.89068   -0.03639
 C 0.23721 0.90185 0.80184   0.231976
 C 0.34601 0.3941 0.9536   0.259633
 C 0.3659 0.424 0.66094   -0.017465
 C 0.48711 0.59469 0.86161   0.222942
 C 0.4499 0.6372 0.7571   -0.031719
 C 0.0951 0.7725 0.0703   -0.04653
 C 0.3976 0.317 0.8675   -0.021775
 C 0.7661 0.85769 0.36019   0.225967
 C 0.8868 0.8991 0.40571   -0.035068
 C 0.8418 0.9708 0.3837   -0.032009
 C 0.9863 0.6911 0.283   -0.03667
 C 0.6776 0.6198 0.39068   -0.03876
 C 0.76279 0.59815 0.30184   0.228363
 C 0.65399 0.1059 0.4536   0.242209
 C 0.6341 0.076 0.16094   -0.017933
 C 0.51289 0.90531 0.36161   0.220051
 C 0.5501 0.8628 0.2571   -0.035608
 C 0.5677 0.1651 0.3788   -0.046334
 C 0.9381 0.708 0.557   -0.025558
 N 0.66148 0.82702 0.8901   -0.380609
 N 0.73514 0.94376 0.85396   -0.390833
 N 0.62256 0.67417 0.01153   -0.404629
 N 0.53685 0.6637 0.85008   -0.388811
 N 0.73928 0.6349 0.86682   -0.389402
 N 0.86758 0.10088 0.88468   -0.399895
 N 0.81197 0.06206 0.71808   -0.382471
 N 0.93287 0.92445 0.80772   -0.380082
 N 0.33852 0.67298 0.3901   -0.380155
 N 0.26486 0.55624 0.35396   -0.390622
 N 0.37744 0.82583 0.51153   -0.392784
 N 0.46315 0.8363 0.35008   -0.388588
 N 0.26072 0.8651 0.36682   -0.387603
 N 0.13242 0.39912 0.38468   -0.392051
 N 0.18803 0.43794 0.21808   -0.388787
 N 0.06713 0.57555 0.30772   -0.380734
 N 0.83852 0.32702 0.1099   -0.38061
 N 0.76486 0.44376 0.14604   -0.390833
 N 0.87744 0.17417 0.98847   -0.404634
 N 0.96315 0.1637 0.14992   -0.388811
 N 0.76072 0.1349 0.13318   -0.389402
 N 0.63242 0.60088 0.11532   -0.3999
 N 0.68803 0.56206 0.28192   -0.382471
 N 0.56713 0.42445 0.19228   -0.380082
 N 0.16148 0.17298 0.6099   -0.380155
 N 0.23514 0.05624 0.64604   -0.390622
 N 0.12256 0.32583 0.48847   -0.392786
 N 0.03685 0.3363 0.64992   -0.388588
 N 0.23928 0.3651 0.63318   -0.387603
 N 0.36758 0.89912 0.61532   -0.392052
 N 0.31197 0.93794 0.78192   -0.388787
 N 0.43287 0.07555 0.69228   -0.380734
 N 0.33852 0.17298 0.1099   -0.38061
 N 0.26486 0.05624 0.14604   -0.390833
 N 0.37744 0.32583 0.98847   -0.404629
 N 0.46315 0.3363 0.14992   -0.388812
 N 0.26072 0.3651 0.13318   -0.389406
 N 0.13242 0.89912 0.11532   -0.399895
 N 0.18803 0.93794 0.28192   -0.382475
 N 0.06713 0.07555 0.19228   -0.380084
 N 0.66148 0.32702 0.6099   -0.380155
 N 0.73514 0.44376 0.64604   -0.390622
 N 0.62256 0.17417 0.48847   -0.392784
 N 0.53685 0.1637 0.64992   -0.388589
 N 0.73928 0.1349 0.63318   -0.387607
 N 0.86758 0.60088 0.61532   -0.392051
 N 0.81197 0.56206 0.78192   -0.388791
 N 0.93287 0.42445 0.69228   -0.380736
 N 0.16148 0.67298 0.8901   -0.38061
 N 0.23514 0.55624 0.85396   -0.390833
 N 0.12256 0.82583 0.01153   -0.404634
 N 0.03685 0.8363 0.85008   -0.388812
 N 0.23928 0.8651 0.86682   -0.389406
 N 0.36758 0.39912 0.88468   -0.3999
 N 0.31197 0.43794 0.71808   -0.382476
 N 0.43287 0.57555 0.80772   -0.380084
 N 0.83852 0.82702 0.3901   -0.380155
 N 0.76486 0.94376 0.35396   -0.390622
 N 0.87744 0.67417 0.51153   -0.392786
 N 0.96315 0.6637 0.35008   -0.388589
 N 0.76072 0.6349 0.36682   -0.387607
 N 0.63242 0.10088 0.38468   -0.392052
 N 0.68803 0.06206 0.21808   -0.388792
 N 0.56713 0.92445 0.30772   -0.380736
