{'_ref': 'TBD', '_srcid': 'CAKYAQ_clean', 'submitters': [{'name': 'Dalar Nazarian Jeff Camp and David Sholl', 'email': 'dalar@gatech.edu jcamp6@gatech.edu'}], '_method': 'VASP DFT with PBE;DDEC'}
data_ZnH6(C3N2)2
_symmetry_space_group_name_H-M   'P 1'
_cell_length_a   9.74050052
_cell_length_b   14.93600000
_cell_length_c   15.26600000
_cell_angle_alpha   90.00000000
_cell_angle_beta   90.00000000
_cell_angle_gamma   98.62000090
_symmetry_Int_Tables_number   1
_chemical_formula_structural   ZnH6(C3N2)2
_chemical_formula_sum   'Zn8 H48 C48 N32'
_cell_volume   2195.87280902
_cell_formula_units_Z   8
loop_
 _symmetry_equiv_pos_site_id
 _symmetry_equiv_pos_as_xyz
  1  'x, y, z'
loop_
 _atom_site_label
 _atom_site_fract_x
 _atom_site_fract_y
 _atom_site_fract_z
 _atom_site_charge
 Zn 0.453172 0.738978 0.07607   0.736337
 Zn 0.546828 0.261022 0.92393   0.736337
 Zn 0.046828 0.761022 0.57607   0.736337
 Zn 0.953172 0.238978 0.42393   0.736337
 Zn 0.58453 0.92052 0.726053   0.735829
 Zn 0.41547 0.07948 0.273947   0.735829
 Zn 0.91547 0.57948 0.226053   0.735829
 Zn 0.08453 0.42052 0.773947   0.735829
 H 0.5166 0.8994 0.9318   0.046738
 H 0.4834 0.1006 0.0682   0.046739
 H 0.9834 0.6006 0.4318   0.046738
 H 0.0166 0.3994 0.5682   0.046739
 H 0.5524 0.6444 0.9119   0.084874
 H 0.4476 0.3556 0.0881   0.084874
 H 0.9476 0.8556 0.4119   0.084874
 H 0.0524 0.1444 0.5881   0.084874
 H 0.5962 0.7145 0.7683   0.094346
 H 0.4038 0.2855 0.2317   0.094346
 H 0.9038 0.7855 0.2683   0.094346
 H 0.0962 0.2145 0.7317   0.094346
 H 0.8964 0.0404 0.7054   0.084941
 H 0.1036 0.9596 0.2946   0.084941
 H 0.6036 0.4596 0.2054   0.084941
 H 0.3964 0.5404 0.7946   0.084941
 H 0.7517 0.7995 0.6223   0.053487
 H 0.2483 0.2005 0.3777   0.053487
 H 0.7483 0.7005 0.1223   0.053487
 H 0.2517 0.2995 0.8777   0.053487
 H 0.5333 0.9135 0.5142   0.084756
 H 0.4667 0.0865 0.4858   0.084756
 H 0.9667 0.5865 0.0142   0.084756
 H 0.0333 0.4135 0.9858   0.084756
 H 0.3974 0.0654 0.6661   0.098704
 H 0.6026 0.9346 0.3339   0.098704
 H 0.1026 0.4346 0.1661   0.098704
 H 0.8974 0.5654 0.8339   0.098704
 H 0.1929 0.6473 0.9509   0.097263
 H 0.8071 0.3527 0.0491   0.097263
 H 0.3071 0.8527 0.4509   0.097263
 H 0.6929 0.1473 0.5491   0.097263
 H 0.2085 0.6956 0.202   0.06021
 H 0.7915 0.3044 0.798   0.06021
 H 0.2915 0.8044 0.702   0.06021
 H 0.7085 0.1956 0.298   0.06021
 H 0.4106 0.5293 0.1461   0.091556
 H 0.5894 0.4707 0.8539   0.091556
 H 0.0894 0.9707 0.6461   0.091556
 H 0.9106 0.0293 0.3539   0.091556
 H 0.3626 0.9249 0.1291   0.063928
 H 0.6374 0.0751 0.8709   0.063928
 H 0.1374 0.5751 0.6291   0.063928
 H 0.8626 0.4249 0.3709   0.063928
 H 0.6256 0.797 0.252   0.084508
 H 0.3744 0.203 0.748   0.084508
 H 0.8744 0.703 0.752   0.084508
 H 0.1256 0.297 0.248   0.084508
 C 0.53008 0.84328 0.90801   0.235513
 C 0.46992 0.15672 0.09199   0.235512
 C 0.96992 0.65672 0.40801   0.235513
 C 0.03008 0.34328 0.59199   0.235512
 C 0.54922 0.70551 0.89866   -0.01016
 C 0.45078 0.29449 0.10134   -0.01016
 C 0.95078 0.79449 0.39866   -0.01016
 C 0.04922 0.20551 0.60134   -0.01016
 C 0.5737 0.74432 0.81934   -0.03714
 C 0.4263 0.25568 0.18066   -0.03714
 C 0.9263 0.75568 0.31934   -0.03714
 C 0.0737 0.24432 0.68066   -0.03714
 C 0.8893 0.9818 0.68162   -0.025733
 C 0.1107 0.0182 0.31838   -0.025733
 C 0.6107 0.5182 0.18162   -0.025733
 C 0.3893 0.4818 0.81838   -0.025733
 C 0.81368 0.85207 0.63613   0.226965
 C 0.18632 0.14793 0.36387   0.226965
 C 0.68632 0.64793 0.13613   0.226965
 C 0.31368 0.35207 0.86387   0.226965
 C 0.45646 0.88375 0.5453   -0.016118
 C 0.54354 0.11625 0.4547   -0.016118
 C 0.04354 0.61625 0.0453   -0.016118
 C 0.95646 0.38375 0.9547   -0.016118
 C 0.4441 0.08382 0.71842   -0.020486
 C 0.5559 0.91618 0.28158   -0.020486
 C 0.0559 0.41618 0.21842   -0.020486
 C 0.9441 0.58382 0.78158   -0.020486
 C 0.168 0.65047 0.01015   -0.040258
 C 0.832 0.34953 0.98985   -0.040258
 C 0.332 0.84953 0.51015   -0.040258
 C 0.668 0.15047 0.48985   -0.040258
 C 0.17558 0.67618 0.14622   0.22432
 C 0.82442 0.32382 0.85378   0.22432
 C 0.32442 0.82382 0.64622   0.22432
 C 0.67558 0.17618 0.35378   0.22432
 C 0.50403 0.55661 0.14793   -0.041913
 C 0.49597 0.44339 0.85207   -0.041913
 C 0.99597 0.94339 0.64793   -0.041913
 C 0.00403 0.05661 0.35207   -0.041913
 C 0.42709 0.91013 0.17049   0.214707
 C 0.57291 0.08987 0.82951   0.214707
 C 0.07291 0.58987 0.67049   0.214707
 C 0.92709 0.41013 0.32951   0.214707
 C 0.56909 0.84016 0.23624   -0.026357
 C 0.43091 0.15984 0.76376   -0.026357
 C 0.93091 0.65984 0.73624   -0.026357
 C 0.06909 0.34016 0.26376   -0.026357
 N 0.56081 0.83356 0.82495   -0.390087
 N 0.43919 0.16644 0.17505   -0.390087
 N 0.93919 0.66644 0.32495   -0.390087
 N 0.06081 0.33356 0.67505   -0.390087
 N 0.51939 0.76862 0.95578   -0.395481
 N 0.48061 0.23138 0.04422   -0.395481
 N 0.98061 0.73138 0.45578   -0.395481
 N 0.01939 0.26862 0.54422   -0.395481
 N 0.77228 0.92215 0.67526   -0.385631
 N 0.22772 0.07785 0.32474   -0.385631
 N 0.72772 0.57785 0.17526   -0.385631
 N 0.27228 0.42215 0.82474   -0.385631
 N 0.45216 0.86801 0.63279   -0.402045
 N 0.54784 0.13199 0.36721   -0.402045
 N 0.04784 0.63199 0.13279   -0.402045
 N 0.95216 0.36801 0.86721   -0.402045
 N 0.53449 0.03867 0.75994   -0.384507
 N 0.46551 0.96133 0.24006   -0.384507
 N 0.96551 0.46133 0.25994   -0.384507
 N 0.03449 0.53867 0.74006   -0.384507
 N 0.25111 0.69024 0.0755   -0.388902
 N 0.74889 0.30976 0.9245   -0.388902
 N 0.24889 0.80976 0.5755   -0.388902
 N 0.75111 0.19024 0.4245   -0.388902
 N 0.48714 0.83677 0.16439   -0.385575
 N 0.51286 0.16323 0.83561   -0.385575
 N 0.01286 0.66323 0.66439   -0.385575
 N 0.98714 0.33677 0.33561   -0.385575
 N 0.5533 0.6399 0.11771   -0.368587
 N 0.4467 0.3601 0.88229   -0.368587
 N 0.9467 0.8601 0.61771   -0.368587
 N 0.0533 0.1399 0.38229   -0.368587
