{'_ref': 'TBD', '_srcid': 'CAKYAQ_clean', 'submitters': [{'name': 'Dalar Nazarian Jeff Camp and David Sholl', 'email': 'dalar@gatech.edu jcamp6@gatech.edu'}], '_method': 'VASP DFT with PBE;DDEC'}
data_ZnH6(C3N2)2
_symmetry_space_group_name_H-M   'P 1'
_cell_length_a   18.51499900
_cell_length_b   18.51499900
_cell_length_c   20.24500100
_cell_angle_alpha   90.00000000
_cell_angle_beta   90.00000000
_cell_angle_gamma   90.00000000
_symmetry_Int_Tables_number   1
_chemical_formula_structural   ZnH6(C3N2)2
_chemical_formula_sum   'Zn16 H96 C96 N64'
_cell_volume   6940.09137326
_cell_formula_units_Z   16
loop_
 _symmetry_equiv_pos_site_id
 _symmetry_equiv_pos_as_xyz
  1  'x, y, z'
loop_
 _atom_site_label
 _atom_site_fract_x
 _atom_site_fract_y
 _atom_site_fract_z
 _atom_site_charge
 Zn 0.33653 0.41347 0.125   0.74024
 Zn 0.83653 0.08653 0.375   0.726019
 Zn 0.16347 0.58653 0.625   0.740192
 Zn 0.66347 0.91347 0.875   0.740087
 Zn 0.33653 0.58653 0.875   0.725382
 Zn 0.66347 0.08653 0.125   0.73294
 Zn 0.16347 0.41347 0.375   0.72545
 Zn 0.83653 0.91347 0.625   0.732986
 Zn 0.66347 0.58653 0.875   0.725876
 Zn 0.16347 0.91347 0.625   0.733378
 Zn 0.83653 0.41347 0.375   0.739978
 Zn 0.33653 0.08653 0.125   0.733303
 Zn 0.66347 0.41347 0.125   0.733127
 Zn 0.33653 0.91347 0.875   0.733296
 Zn 0.83653 0.58653 0.625   0.733027
 Zn 0.16347 0.08653 0.375   0.733217
 H 0.3911 0.5 0.0   0.054486
 H 0.393 0.25 0.1475   0.053957
 H 0.201 0.3166 0.0961   0.109091
 H 0.75 0.1411 0.25   0.055129
 H 0.0 0.143 0.3975   0.053819
 H 0.7589 0.9433 0.3187   0.109747
 H 0.6956 0.9413 0.2131   0.096991
 H 0.9334 0.951 0.3461   0.110303
 H 0.1089 0.5 0.5   0.054461
 H 0.107 0.75 0.6475   0.053957
 H 0.299 0.6834 0.5961   0.109184
 H 0.75 0.8589 0.75   0.053665
 H 0.5 0.857 0.8975   0.053883
 H 0.5666 0.049 0.8461   0.10926
 H 0.393 0.75 0.8525   0.053865
 H 0.1933 0.5089 0.9313   0.109068
 H 0.1913 0.4456 0.0369   0.096851
 H 0.201 0.6834 0.9039   0.110106
 H 0.5 0.143 0.1025   0.054125
 H 0.5666 0.951 0.1539   0.108897
 H 0.107 0.25 0.3525   0.053864
 H 0.3067 0.4911 0.4313   0.109461
 H 0.3087 0.5544 0.5369   0.097055
 H 0.299 0.3166 0.4039   0.110172
 H 0.0 0.857 0.6025   0.05371
 H 0.7589 0.0567 0.6813   0.113059
 H 0.6956 0.0587 0.7869   0.096693
 H 0.9334 0.049 0.6539   0.110044
 H 0.6089 0.5 0.0   0.055102
 H 0.607 0.75 0.8525   0.054052
 H 0.8067 0.5089 0.9313   0.109386
 H 0.8087 0.4456 0.0369   0.096994
 H 0.799 0.6834 0.9039   0.110221
 H 0.25 0.8589 0.75   0.054286
 H 0.0666 0.049 0.6539   0.109247
 H 0.8911 0.5 0.5   0.053683
 H 0.893 0.25 0.3525   0.054051
 H 0.701 0.3166 0.4039   0.108996
 H 0.25 0.1411 0.25   0.054357
 H 0.4334 0.951 0.1539   0.109041
 H 0.607 0.25 0.1475   0.053766
 H 0.799 0.3166 0.0961   0.109139
 H 0.2589 0.0567 0.8187   0.113422
 H 0.1956 0.0587 0.7131   0.096587
 H 0.4334 0.049 0.8461   0.110221
 H 0.893 0.75 0.6475   0.053768
 H 0.6933 0.5089 0.5687   0.113253
 H 0.6913 0.4456 0.4631   0.096791
 H 0.701 0.6834 0.5961   0.110176
 H 0.2411 0.9433 0.3187   0.11343
 H 0.3044 0.9413 0.2131   0.096505
 H 0.0666 0.951 0.3461   0.109994
 H 0.8911 0.0 0.5   0.055114
 H 0.701 0.8166 0.5961   0.109171
 H 0.25 0.6411 0.75   0.054519
 H 0.5 0.643 0.8975   0.05364
 H 0.2589 0.4433 0.8187   0.10929
 H 0.1956 0.4413 0.7131   0.096831
 H 0.4334 0.451 0.8461   0.110236
 H 0.6089 0.0 0.0   0.053706
 H 0.8067 0.0089 0.0687   0.113118
 H 0.8087 0.9456 0.9631   0.096761
 H 0.799 0.1834 0.0961   0.110208
 H 0.25 0.3589 0.25   0.054448
 H 0.0 0.357 0.3975   0.053776
 H 0.2411 0.5567 0.3187   0.109275
 H 0.3044 0.5587 0.2131   0.096908
 H 0.0666 0.549 0.3461   0.110478
 H 0.6933 0.0089 0.4313   0.109513
 H 0.6913 0.9456 0.5369   0.097006
 H 0.701 0.1834 0.4039   0.110175
 H 0.0 0.643 0.6025   0.054325
 H 0.0666 0.451 0.6539   0.108824
 H 0.799 0.8166 0.9039   0.108955
 H 0.5 0.357 0.1025   0.053915
 H 0.4334 0.549 0.1539   0.10903
 H 0.1089 0.0 0.5   0.054323
 H 0.299 0.1834 0.4039   0.108902
 H 0.75 0.3589 0.25   0.053663
 H 0.7411 0.5567 0.1813   0.113077
 H 0.8044 0.5587 0.2869   0.096744
 H 0.5666 0.549 0.1539   0.110378
 H 0.3911 0.0 0.0   0.054314
 H 0.201 0.8166 0.9039   0.108958
 H 0.75 0.6411 0.75   0.055134
 H 0.9334 0.451 0.6539   0.109253
 H 0.3067 0.9911 0.5687   0.113538
 H 0.3087 0.0544 0.4631   0.096597
 H 0.299 0.8166 0.5961   0.110261
 H 0.9334 0.549 0.3461   0.108928
 H 0.1933 0.0089 0.0687   0.113612
 H 0.1913 0.9456 0.9631   0.096814
 H 0.201 0.1834 0.0961   0.110368
 H 0.7411 0.4433 0.8187   0.109726
 H 0.8044 0.4413 0.7131   0.096937
 H 0.5666 0.451 0.8461   0.109975
 C 0.3409 0.5 0.0   0.25542
 C 0.3477 0.25 0.1276   0.275172
 C 0.241 0.2869 0.102   -0.043438
 C 0.75 0.0909 0.25   0.254985
 C 0.0 0.0977 0.3776   0.27398
 C 0.7537 0.9817 0.2896   -0.039866
 C 0.7177 0.9816 0.2317   -0.036039
 C 0.9631 0.991 0.352   -0.042267
 C 0.1591 0.5 0.5   0.25516
 C 0.1523 0.75 0.6276   0.275175
 C 0.259 0.7131 0.602   -0.043384
 C 0.75 0.9091 0.75   0.255826
 C 0.5 0.90231 0.8776   0.274975
 C 0.5369 0.009 0.852   -0.042602
 C 0.3477 0.75 0.8724   0.274557
 C 0.2317 0.5037 0.9604   -0.041373
 C 0.2316 0.4677 0.0183   -0.03218
 C 0.241 0.7131 0.898   -0.040208
 C 0.5 0.0977 0.1224   0.27609
 C 0.5369 0.991 0.148   -0.042461
 C 0.1523 0.25 0.3724   0.27455
 C 0.2683 0.4963 0.4604   -0.041106
 C 0.2684 0.5323 0.5183   -0.03209
 C 0.259 0.2869 0.398   -0.040081
 C 0.0 0.9023 0.6224   0.274498
 C 0.7537 0.0183 0.7104   -0.040218
 C 0.7177 0.0184 0.7683   -0.033109
 C 0.9631 0.009 0.648   -0.039532
 C 0.6591 0.5 0.0   0.255114
 C 0.6523 0.75 0.8724   0.274939
 C 0.7683 0.5037 0.9604   -0.04017
 C 0.7684 0.4677 0.0183   -0.035541
 C 0.759 0.7131 0.898   -0.041353
 C 0.25 0.9091 0.75   0.255555
 C 0.0369 0.009 0.648   -0.042916
 C 0.8409 0.5 0.5   0.255705
 C 0.8477 0.25 0.3724   0.274936
 C 0.741 0.2869 0.398   -0.042295
 C 0.25 0.0909 0.25   0.25554
 C 0.4631 0.991 0.148   -0.041604
 C 0.6523 0.25 0.1276   0.274784
 C 0.759 0.2869 0.102   -0.043647
 C 0.2537 0.0183 0.7896   -0.037785
 C 0.2177 0.0184 0.7317   -0.037265
 C 0.4631 0.009 0.852   -0.040484
 C 0.8477 0.75 0.6276   0.274779
 C 0.7317 0.5037 0.5396   -0.040159
 C 0.7316 0.4677 0.4817   -0.033143
 C 0.741 0.7131 0.602   -0.039362
 C 0.2463 0.9817 0.2896   -0.037779
 C 0.2823 0.9816 0.2317   -0.037841
 C 0.0369 0.991 0.352   -0.041221
 C 0.8409 0.0 0.5   0.255137
 C 0.741 0.7869 0.602   -0.043668
 C 0.25 0.5909 0.75   0.25528
 C 0.5 0.5977 0.8776   0.273585
 C 0.2537 0.4817 0.7896   -0.041093
 C 0.2177 0.4816 0.7317   -0.032536
 C 0.4631 0.491 0.852   -0.04105
 C 0.6591 0.0 0.0   0.255702
 C 0.7683 0.0037 0.0396   -0.040203
 C 0.7684 0.9677 0.9817   -0.033023
 C 0.759 0.2131 0.102   -0.039372
 C 0.25 0.4091 0.25   0.255303
 C 0.0 0.4023 0.3776   0.274479
 C 0.2463 0.5183 0.2896   -0.041148
 C 0.2823 0.5184 0.2317   -0.031959
 C 0.0369 0.509 0.352   -0.040304
 C 0.7317 0.0037 0.4604   -0.040151
 C 0.7316 0.9677 0.5183   -0.035684
 C 0.741 0.2131 0.398   -0.041273
 C 0.0 0.5977 0.6224   0.276482
 C 0.0369 0.491 0.648   -0.042135
 C 0.759 0.7869 0.898   -0.042216
 C 0.5 0.4023 0.1224   0.27489
 C 0.4631 0.509 0.148   -0.043442
 C 0.1591 0.0 0.5   0.255745
 C 0.259 0.2131 0.398   -0.043241
 C 0.75 0.4091 0.25   0.255851
 C 0.7463 0.5183 0.2104   -0.04029
 C 0.7823 0.5184 0.2683   -0.032888
 C 0.5369 0.509 0.148   -0.039255
 C 0.3409 0.0 0.0   0.255463
 C 0.241 0.7869 0.898   -0.043114
 C 0.75 0.5909 0.75   0.254969
 C 0.9631 0.491 0.648   -0.042182
 C 0.2683 0.9963 0.5396   -0.038046
 C 0.2684 0.0323 0.4817   -0.0375
 C 0.259 0.7869 0.602   -0.039891
 C 0.9631 0.509 0.352   -0.042623
 C 0.2317 0.0037 0.0396   -0.037936
 C 0.2316 0.9677 0.9817   -0.037143
 C 0.241 0.2131 0.102   -0.039832
 C 0.7463 0.4817 0.7896   -0.039755
 C 0.7823 0.4816 0.7317   -0.03627
 C 0.5369 0.491 0.852   -0.042298
 N 0.3019 0.4683 0.047   -0.408683
 N 0.3138 0.3101 0.1127   -0.413566
 N 0.7817 0.0519 0.297   -0.407264
 N 0.9399 0.0638 0.3627   -0.411392
 N 0.1981 0.5317 0.547   -0.408837
 N 0.1862 0.6899 0.6127   -0.413727
 N 0.7183 0.9481 0.797   -0.408909
 N 0.5601 0.9362 0.8627   -0.413181
 N 0.3019 0.5317 0.953   -0.40684
 N 0.3138 0.6899 0.8873   -0.410782
 N 0.7183 0.0519 0.203   -0.406628
 N 0.5601 0.0638 0.1373   -0.413268
 N 0.1981 0.4683 0.453   -0.406988
 N 0.1862 0.3101 0.3873   -0.410988
 N 0.7817 0.9481 0.703   -0.410423
 N 0.9399 0.9362 0.6373   -0.411307
 N 0.6981 0.5317 0.953   -0.407236
 N 0.6862 0.6899 0.8873   -0.410878
 N 0.2183 0.9481 0.703   -0.408117
 N 0.0601 0.9362 0.6373   -0.413084
 N 0.8019 0.4683 0.453   -0.408703
 N 0.8138 0.3101 0.3873   -0.413419
 N 0.2817 0.0519 0.203   -0.408147
 N 0.4399 0.0638 0.1373   -0.413288
 N 0.6981 0.4683 0.047   -0.406701
 N 0.6862 0.3101 0.1127   -0.413214
 N 0.2817 0.9481 0.797   -0.409959
 N 0.4399 0.9362 0.8627   -0.411185
 N 0.8019 0.5317 0.547   -0.410758
 N 0.8138 0.6899 0.6127   -0.4116
 N 0.2183 0.0519 0.297   -0.409594
 N 0.0601 0.0638 0.3627   -0.411742
 N 0.8019 0.9683 0.547   -0.406539
 N 0.8138 0.8101 0.6127   -0.412967
 N 0.2817 0.5519 0.797   -0.406677
 N 0.4399 0.5638 0.8627   -0.411069
 N 0.6981 0.0317 0.047   -0.410554
 N 0.6862 0.1899 0.1127   -0.411376
 N 0.2183 0.4481 0.297   -0.407038
 N 0.0601 0.4362 0.3627   -0.410494
 N 0.8019 0.0317 0.453   -0.407433
 N 0.8138 0.1899 0.3873   -0.411102
 N 0.2183 0.5519 0.703   -0.408754
 N 0.0601 0.5638 0.6373   -0.413829
 N 0.6981 0.9683 0.953   -0.408855
 N 0.6862 0.8101 0.8873   -0.413654
 N 0.2817 0.4481 0.203   -0.408743
 N 0.4399 0.4362 0.1373   -0.413625
 N 0.1981 0.0317 0.453   -0.407696
 N 0.1862 0.1899 0.3873   -0.413598
 N 0.7183 0.4481 0.203   -0.410775
 N 0.5601 0.4362 0.1373   -0.410672
 N 0.3019 0.9683 0.953   -0.407744
 N 0.3138 0.8101 0.8873   -0.413821
 N 0.7817 0.5519 0.703   -0.406728
 N 0.9399 0.5638 0.6373   -0.412632
 N 0.1981 0.9683 0.547   -0.410524
 N 0.1862 0.8101 0.6127   -0.410817
 N 0.7817 0.4481 0.297   -0.408816
 N 0.9399 0.4362 0.3627   -0.413772
 N 0.3019 0.0317 0.047   -0.410571
 N 0.3138 0.1899 0.1127   -0.41097
 N 0.7183 0.5519 0.797   -0.406926
 N 0.5601 0.5638 0.8627   -0.412003
