{'_ref': 'TBD', '_srcid': 'CAKYAQ_clean', 'submitters': [{'name': 'Dalar Nazarian Jeff Camp and David Sholl', 'email': 'dalar@gatech.edu jcamp6@gatech.edu'}], '_method': 'VASP DFT with PBE;DDEC'}
data_CrH2(C3O2)2
_symmetry_space_group_name_H-M   'P 1'
_cell_length_a   18.85519983
_cell_length_b   18.85519961
_cell_length_c   18.85520000
_cell_angle_alpha   59.99999932
_cell_angle_beta   59.99999971
_cell_angle_gamma   60.00000043
_symmetry_Int_Tables_number   1
_chemical_formula_structural   CrH2(C3O2)2
_chemical_formula_sum   'Cr12 H24 C72 O48'
_cell_volume   4740.00083108
_cell_formula_units_Z   12
loop_
 _symmetry_equiv_pos_site_id
 _symmetry_equiv_pos_as_xyz
  1  'x, y, z'
loop_
 _atom_site_label
 _atom_site_fract_x
 _atom_site_fract_y
 _atom_site_fract_z
 _atom_site_charge
 Cr 0.44542 0.55458 0.0   0.974166
 Cr 0.55458 0.44542 0.0   0.974105
 Cr 0.0 0.0 0.44542   0.974165
 Cr 0.0 0.0 0.55458   0.974104
 Cr 0.44542 0.0 0.0   0.974165
 Cr 0.55458 0.0 0.0   0.974105
 Cr 0.0 0.44542 0.55458   0.974166
 Cr 0.0 0.55458 0.44542   0.974106
 Cr 0.44542 0.0 0.55458   0.974166
 Cr 0.55458 0.0 0.44542   0.974105
 Cr 0.0 0.55458 0.0   0.974166
 Cr 0.0 0.44542 0.0   0.974105
 H 0.50789 0.73369 0.02473   0.13598
 H 0.73369 0.50789 0.73369   0.13598
 H 0.02473 0.73369 0.50789   0.13598
 H 0.73369 0.02473 0.73369   0.13598
 H 0.50789 0.02473 0.73369   0.13598
 H 0.73369 0.73369 0.02473   0.13598
 H 0.02473 0.50789 0.73369   0.13598
 H 0.73369 0.73369 0.50789   0.13598
 H 0.50789 0.73369 0.73369   0.13598
 H 0.73369 0.02473 0.50789   0.13598
 H 0.02473 0.73369 0.73369   0.13598
 H 0.73369 0.50789 0.02473   0.13598
 H 0.26631 0.49211 0.97527   0.135981
 H 0.49211 0.26631 0.26631   0.13598
 H 0.26631 0.97527 0.49211   0.135981
 H 0.97527 0.26631 0.26631   0.13598
 H 0.97527 0.49211 0.26631   0.135981
 H 0.26631 0.26631 0.97527   0.13598
 H 0.49211 0.97527 0.26631   0.13598
 H 0.26631 0.26631 0.49211   0.135981
 H 0.26631 0.49211 0.26631   0.135981
 H 0.97527 0.26631 0.49211   0.135981
 H 0.26631 0.97527 0.26631   0.135981
 H 0.49211 0.26631 0.97527   0.135981
 C 0.57085 0.57085 0.02257   0.60229
 C 0.61404 0.61404 0.03044   -0.121377
 C 0.57085 0.57085 0.83573   0.60229
 C 0.61404 0.61404 0.74148   -0.121377
 C 0.02257 0.83573 0.57085   0.60229
 C 0.03044 0.74148 0.61404   -0.121378
 C 0.83573 0.02257 0.57085   0.60229
 C 0.74148 0.03044 0.61404   -0.121377
 C 0.57085 0.02257 0.83573   0.60229
 C 0.61404 0.03044 0.74148   -0.121378
 C 0.57085 0.83573 0.02257   0.60229
 C 0.61404 0.74148 0.03044   -0.121377
 C 0.02257 0.57085 0.57085   0.60229
 C 0.03044 0.61404 0.61404   -0.121377
 C 0.83573 0.57085 0.57085   0.60229
 C 0.74148 0.61404 0.61404   -0.121377
 C 0.57085 0.83573 0.57085   0.60229
 C 0.61404 0.74148 0.61404   -0.121377
 C 0.57085 0.02257 0.57085   0.60229
 C 0.61404 0.03044 0.61404   -0.121377
 C 0.02257 0.57085 0.83573   0.60229
 C 0.03044 0.61404 0.74148   -0.121378
 C 0.83573 0.57085 0.02257   0.60229
 C 0.74148 0.61404 0.03044   -0.121377
 C 0.42915 0.42915 0.97743   0.60229
 C 0.38596 0.38596 0.96956   -0.121377
 C 0.42915 0.42915 0.16427   0.60229
 C 0.38596 0.38596 0.25852   -0.121377
 C 0.16427 0.97743 0.42915   0.60229
 C 0.25852 0.96956 0.38596   -0.121378
 C 0.97743 0.16427 0.42915   0.60229
 C 0.96956 0.25852 0.38596   -0.121377
 C 0.97743 0.42915 0.16427   0.60229
 C 0.96956 0.38596 0.25852   -0.121377
 C 0.16427 0.42915 0.97743   0.60229
 C 0.25852 0.38596 0.96956   -0.121377
 C 0.42915 0.97743 0.42915   0.60229
 C 0.38596 0.96956 0.38596   -0.121377
 C 0.42915 0.16427 0.42915   0.60229
 C 0.38596 0.25852 0.38596   -0.121377
 C 0.16427 0.42915 0.42915   0.60229
 C 0.25852 0.38596 0.38596   -0.121377
 C 0.97743 0.42915 0.42915   0.60229
 C 0.96956 0.38596 0.38596   -0.121376
 C 0.42915 0.97743 0.16427   0.60229
 C 0.38596 0.96956 0.25852   -0.121377
 C 0.42915 0.16427 0.97743   0.60229
 C 0.38596 0.25852 0.96956   -0.121377
 C 0.57022 0.70056 0.02866   -0.018136
 C 0.70056 0.57022 0.70056   -0.018138
 C 0.02866 0.70056 0.57022   -0.018136
 C 0.70056 0.02866 0.70056   -0.018136
 C 0.57022 0.02866 0.70056   -0.018136
 C 0.70056 0.70056 0.02866   -0.018136
 C 0.02866 0.57022 0.70056   -0.018136
 C 0.70056 0.70056 0.57022   -0.018138
 C 0.57022 0.70056 0.70056   -0.018137
 C 0.70056 0.02866 0.57022   -0.018136
 C 0.02866 0.70056 0.70056   -0.018136
 C 0.70056 0.57022 0.02866   -0.018136
 C 0.29944 0.42978 0.97134   -0.018135
 C 0.42978 0.29944 0.29944   -0.018138
 C 0.29944 0.97134 0.42978   -0.018136
 C 0.97134 0.29944 0.29944   -0.018136
 C 0.97134 0.42978 0.29944   -0.018135
 C 0.29944 0.29944 0.97134   -0.018136
 C 0.42978 0.97134 0.29944   -0.018136
 C 0.29944 0.29944 0.42978   -0.018137
 C 0.29944 0.42978 0.29944   -0.018137
 C 0.97134 0.29944 0.42978   -0.018135
 C 0.29944 0.97134 0.29944   -0.018135
 C 0.42978 0.29944 0.97134   -0.018135
 O 0.49228 0.61268 0.021   -0.542916
 O 0.61268 0.49228 0.87404   -0.542909
 O 0.021 0.87404 0.49228   -0.542915
 O 0.87404 0.021 0.61268   -0.54291
 O 0.49228 0.021 0.87404   -0.542915
 O 0.61268 0.87404 0.021   -0.54291
 O 0.021 0.49228 0.61268   -0.542916
 O 0.87404 0.61268 0.49228   -0.542909
 O 0.49228 0.87404 0.61268   -0.542915
 O 0.61268 0.021 0.49228   -0.54291
 O 0.021 0.61268 0.87404   -0.542916
 O 0.87404 0.49228 0.021   -0.542909
 O 0.38732 0.50772 0.979   -0.542916
 O 0.50772 0.38732 0.12596   -0.542909
 O 0.12596 0.979 0.50772   -0.542909
 O 0.979 0.12596 0.38732   -0.542915
 O 0.979 0.50772 0.12596   -0.542915
 O 0.12596 0.38732 0.979   -0.54291
 O 0.50772 0.979 0.38732   -0.54291
 O 0.38732 0.12596 0.50772   -0.542915
 O 0.12596 0.50772 0.38732   -0.542909
 O 0.979 0.38732 0.50772   -0.542916
 O 0.38732 0.979 0.12596   -0.542916
 O 0.50772 0.12596 0.979   -0.542909
 O 0.50772 0.38732 0.979   -0.54291
 O 0.38732 0.50772 0.12596   -0.542915
 O 0.979 0.12596 0.50772   -0.542909
 O 0.12596 0.979 0.38732   -0.542916
 O 0.50772 0.979 0.12596   -0.542909
 O 0.38732 0.12596 0.979   -0.542916
 O 0.979 0.50772 0.38732   -0.54291
 O 0.12596 0.38732 0.50772   -0.542915
 O 0.50772 0.12596 0.38732   -0.542909
 O 0.38732 0.979 0.50772   -0.542916
 O 0.979 0.38732 0.12596   -0.54291
 O 0.12596 0.50772 0.979   -0.542915
 O 0.61268 0.49228 0.021   -0.54291
 O 0.49228 0.61268 0.87404   -0.542915
 O 0.87404 0.021 0.49228   -0.542915
 O 0.021 0.87404 0.61268   -0.542909
 O 0.021 0.49228 0.87404   -0.542909
 O 0.87404 0.61268 0.021   -0.542916
 O 0.49228 0.021 0.61268   -0.542916
 O 0.61268 0.87404 0.49228   -0.542909
 O 0.87404 0.49228 0.61268   -0.542915
 O 0.021 0.61268 0.49228   -0.54291
 O 0.61268 0.021 0.87404   -0.54291
 O 0.49228 0.87404 0.021   -0.542915
