{'_ref': 'TBD', '_srcid': 'CAKYAQ_clean', 'submitters': [{'name': 'Dalar Nazarian Jeff Camp and David Sholl', 'email': 'dalar@gatech.edu jcamp6@gatech.edu'}], '_method': 'VASP DFT with PBE;DDEC'}
data_CoH16C24(NO2)2
_symmetry_space_group_name_H-M   'P 1'
_cell_length_a   10.59900000
_cell_length_b   17.02179970
_cell_length_c   18.30640000
_cell_angle_alpha   106.07299920
_cell_angle_beta   90.00000000
_cell_angle_gamma   90.00000000
_symmetry_Int_Tables_number   1
_chemical_formula_structural   CoH16C24(NO2)2
_chemical_formula_sum   'Co4 H64 C96 N8 O16'
_cell_volume   3173.62718576
_cell_formula_units_Z   4
loop_
 _symmetry_equiv_pos_site_id
 _symmetry_equiv_pos_as_xyz
  1  'x, y, z'
loop_
 _atom_site_label
 _atom_site_fract_x
 _atom_site_fract_y
 _atom_site_fract_z
 _atom_site_charge
 Co 0.53495 0.1188 0.60276   0.87722
 Co 0.50009 0.86882 0.85284   0.737202
 Co 0.46505 0.6188 0.10276   0.87722
 Co 0.49991 0.36882 0.35284   0.737202
 H 0.4157 0.9739 0.3724   0.107528
 H 0.9452 0.9008 0.0889   0.107237
 H 0.4062 0.3877 0.0844   0.14085
 H 0.6812 0.9561 0.9805   0.088459
 H 0.6817 0.278 0.2253   0.094756
 H 0.3817 0.4116 0.2137   0.084975
 H 0.4003 0.8528 0.1232   0.143278
 H 0.9378 0.7209 0.8876   0.116028
 H 0.7086 0.9891 0.112   0.132559
 H 0.7154 0.2525 0.097   0.134475
 H 0.884 0.958 0.8586   0.109815
 H 0.3921 0.9481 0.2413   0.116142
 H 0.7711 0.3004 0.9896   0.103745
 H 0.1103 0.7769 0.8476   0.103232
 H 0.3894 0.2972 0.9639   0.11923
 H 0.0621 0.0174 0.8152   0.118942
 H 0.7678 0.9356 0.2138   0.094572
 H 0.4464 0.0744 0.7447   0.094764
 H 0.3796 0.827 0.9914   0.08907
 H 0.1376 0.9447 0.5737   0.139737
 H 0.7246 0.7255 0.9176   0.141108
 H 0.416 0.2553 0.8314   0.108125
 H 0.1117 0.9645 0.0381   0.116033
 H 0.3061 0.0177 0.5387   0.089106
 H 0.2808 0.0064 0.7864   0.133655
 H 0.8686 0.7847 0.1309   0.143091
 H 0.7926 0.2693 0.8572   0.111187
 H 0.7963 0.9585 0.345   0.115728
 H 0.8974 0.7734 0.6627   0.10885
 H 0.6969 0.7284 0.1694   0.088077
 H 0.0675 0.8312 0.6241   0.0978
 H 0.5592 0.6651 0.9612   0.081767
 H 0.5843 0.4739 0.8724   0.107528
 H 0.0548 0.4008 0.5889   0.107237
 H 0.5938 0.8877 0.5844   0.14085
 H 0.3188 0.4561 0.4805   0.088459
 H 0.3183 0.778 0.7253   0.094756
 H 0.6183 0.9116 0.7137   0.084976
 H 0.5997 0.3528 0.6232   0.143278
 H 0.0622 0.2209 0.3876   0.116024
 H 0.2914 0.4891 0.612   0.132559
 H 0.2846 0.7525 0.597   0.134474
 H 0.116 0.458 0.3586   0.109815
 H 0.6079 0.4481 0.7413   0.116142
 H 0.2289 0.8004 0.4896   0.103743
 H 0.8897 0.2769 0.3476   0.103231
 H 0.6106 0.7972 0.4639   0.119229
 H 0.9379 0.5174 0.3152   0.118942
 H 0.2322 0.4356 0.7138   0.094572
 H 0.5536 0.5744 0.2447   0.094765
 H 0.6204 0.327 0.4914   0.08907
 H 0.8624 0.4447 0.0737   0.139737
 H 0.2754 0.2255 0.4176   0.141107
 H 0.584 0.7553 0.3314   0.108125
 H 0.8883 0.4645 0.5381   0.11603
 H 0.6939 0.5177 0.0387   0.089106
 H 0.7192 0.5064 0.2864   0.133654
 H 0.1314 0.2847 0.6309   0.14309
 H 0.2074 0.7693 0.3572   0.111184
 H 0.2037 0.4585 0.845   0.115725
 H 0.1026 0.2734 0.1627   0.108845
 H 0.3031 0.2284 0.6694   0.088077
 H 0.9325 0.3312 0.1241   0.097798
 H 0.4408 0.1651 0.4612   0.081767
 C 0.4882 0.9674 0.3407   -0.057163
 C 0.9759 0.8768 0.039   -0.136514
 C 0.4633 0.3634 0.1118   -0.193331
 C 0.2435 0.9131 0.9119   0.626696
 C 0.7613 0.8244 0.7938   0.648404
 C 0.5631 0.9234 0.1325   0.1261
 C 0.077 0.9329 0.714   0.037946
 C 0.9223 0.8044 0.9934   0.014647
 C 0.6245 0.9983 0.4584   0.676939
 C 0.6226 0.2428 0.7484   0.647126
 C 0.6224 0.9355 0.0099   0.177143
 C 0.6072 0.9744 0.3725   -0.108729
 C 0.6249 0.3001 0.1961   0.155399
 C 0.1246 0.8763 0.9389   -0.107356
 C 0.8696 0.8594 0.7657   -0.127586
 C 0.4496 0.3778 0.1896   0.177171
 C 0.4596 0.8748 0.0952   -0.183995
 C 0.557 0.3154 0.0747   0.131744
 C 0.5796 0.9386 0.2156   0.021613
 C 0.9743 0.7692 0.9198   -0.110768
 C 0.6409 0.9544 0.0891   -0.215679
 C 0.6079 0.2659 0.833   -0.09885
 C 0.6447 0.284 0.1201   -0.212661
 C 0.92 0.9322 0.8105   -0.052329
 C 0.8128 0.7654 0.0195   0.126344
 C 0.4742 0.951 0.2628   -0.10882
 C 0.1839 0.9728 0.6862   0.112352
 C 0.6983 0.2923 0.9581   -0.146443
 C 0.5759 0.2977 0.9908   0.013551
 C 0.0738 0.8033 0.8956   -0.045566
 C 0.4719 0.2889 0.9428   -0.107968
 C 0.0265 0.9684 0.7839   -0.123432
 C 0.6962 0.9431 0.2462   -0.134409
 C 0.3823 0.0485 0.71   0.143405
 C 0.4475 0.8602 0.0164   0.143579
 C 0.1969 0.9726 0.6108   -0.214369
 C 0.7206 0.7267 0.9697   -0.207166
 C 0.4874 0.268 0.8639   -0.05137
 C 0.0774 0.9139 0.0091   -0.057187
 C 0.3007 0.015 0.5898   0.17218
 C 0.2821 0.0088 0.7352   -0.187916
 C 0.8038 0.7619 0.0955   -0.215816
 C 0.7107 0.2749 0.8791   -0.0464
 C 0.714 0.9586 0.3244   -0.063989
 C 0.9293 0.8234 0.6944   -0.03717
 C 0.7042 0.7264 0.1172   0.165667
 C 0.0287 0.8581 0.6712   -0.134126
 C 0.623 0.6901 0.9964   0.179918
 C 0.5118 0.4674 0.8407   -0.057163
 C 0.0241 0.3768 0.539   -0.136514
 C 0.5367 0.8634 0.6118   -0.193331
 C 0.7565 0.4131 0.4119   0.626696
 C 0.2387 0.3244 0.2938   0.648405
 C 0.4369 0.4234 0.6325   0.1261
 C 0.923 0.4329 0.214   0.037946
 C 0.0777 0.3044 0.4934   0.014647
 C 0.3755 0.4983 0.9584   0.676939
 C 0.3774 0.7428 0.2484   0.647126
 C 0.3776 0.4355 0.5099   0.177143
 C 0.3928 0.4744 0.8725   -0.108729
 C 0.3751 0.8001 0.6961   0.155399
 C 0.8754 0.3763 0.4389   -0.107356
 C 0.1304 0.3594 0.2657   -0.127587
 C 0.5504 0.8778 0.6896   0.177171
 C 0.5404 0.3748 0.5952   -0.183995
 C 0.443 0.8154 0.5747   0.131743
 C 0.4204 0.4386 0.7156   0.021613
 C 0.0257 0.2692 0.4198   -0.110767
 C 0.3591 0.4544 0.5891   -0.215679
 C 0.3921 0.7659 0.333   -0.098851
 C 0.3553 0.784 0.6201   -0.212661
 C 0.08 0.4322 0.3105   -0.052329
 C 0.1872 0.2654 0.5195   0.126344
 C 0.5258 0.451 0.7628   -0.10882
 C 0.8161 0.4728 0.1862   0.112352
 C 0.3017 0.7923 0.4581   -0.146443
 C 0.4241 0.7977 0.4908   0.013551
 C 0.9262 0.3033 0.3956   -0.045566
 C 0.5281 0.7889 0.4428   -0.107967
 C 0.9735 0.4684 0.2839   -0.123431
 C 0.3038 0.4431 0.7462   -0.13441
 C 0.6177 0.5485 0.21   0.143405
 C 0.5525 0.3602 0.5164   0.143579
 C 0.8031 0.4726 0.1108   -0.21437
 C 0.2794 0.2267 0.4697   -0.207166
 C 0.5126 0.768 0.3639   -0.051371
 C 0.9226 0.4139 0.5091   -0.057186
 C 0.6993 0.515 0.0898   0.17218
 C 0.7179 0.5088 0.2352   -0.187916
 C 0.1962 0.2619 0.5955   -0.215817
 C 0.2893 0.7749 0.3791   -0.046399
 C 0.286 0.4586 0.8244   -0.063987
 C 0.0707 0.3234 0.1944   -0.037168
 C 0.2958 0.2264 0.6172   0.165667
 C 0.9713 0.3581 0.1712   -0.134126
 C 0.377 0.1901 0.4964   0.179918
 N 0.5256 0.3474 0.2327   -0.324559
 N 0.3881 0.0501 0.6372   -0.355974
 N 0.6104 0.6868 0.0678   -0.383556
 N 0.5278 0.8909 0.9746   -0.316652
 N 0.4744 0.8474 0.7327   -0.324559
 N 0.6119 0.5501 0.1372   -0.355974
 N 0.3896 0.1868 0.5678   -0.383556
 N 0.4722 0.3909 0.4746   -0.316652
 O 0.5358 0.1967 0.71   -0.622112
 O 0.5377 0.0398 0.4952   -0.622203
 O 0.6898 0.8745 0.8406   -0.585741
 O 0.3095 0.8628 0.8644   -0.566747
 O 0.7179 0.9731 0.4846   -0.62136
 O 0.2665 0.9881 0.9373   -0.593414
 O 0.7406 0.749 0.7693   -0.592666
 O 0.7216 0.2637 0.7188   -0.614166
 O 0.4642 0.6967 0.21   -0.622112
 O 0.4623 0.5398 0.9952   -0.622203
 O 0.3102 0.3745 0.3406   -0.585741
 O 0.6905 0.3628 0.3644   -0.566747
 O 0.2821 0.4731 0.9846   -0.62136
 O 0.7335 0.4881 0.4373   -0.593414
 O 0.2594 0.249 0.2693   -0.592666
 O 0.2784 0.7637 0.2188   -0.614166
