{'_ref': 'TBD', '_srcid': 'CAKYAQ_clean', 'submitters': [{'name': 'Dalar Nazarian Jeff Camp and David Sholl', 'email': 'dalar@gatech.edu jcamp6@gatech.edu'}], '_method': 'VASP DFT with PBE;DDEC'}
data_CoH16C24(NO2)2
_symmetry_space_group_name_H-M   'P 1'
_cell_length_a   10.70220000
_cell_length_b   10.70219993
_cell_length_c   22.87420000
_cell_angle_alpha   90.00000000
_cell_angle_beta   90.00000000
_cell_angle_gamma   120.00000020
_symmetry_Int_Tables_number   1
_chemical_formula_structural   CoH16C24(NO2)2
_chemical_formula_sum   'Co3 H48 C72 N6 O12'
_cell_volume   2268.93820292
_cell_formula_units_Z   3
loop_
 _symmetry_equiv_pos_site_id
 _symmetry_equiv_pos_as_xyz
  1  'x, y, z'
loop_
 _atom_site_label
 _atom_site_fract_x
 _atom_site_fract_y
 _atom_site_fract_z
 _atom_site_charge
 Co 0.6447 0.2897 0.6775   0.880295
 Co 0.645 0.3553 0.01083   0.87883
 Co 0.7103 0.355 0.34417   0.879013
 H 0.6507 0.4206 0.7987   0.063732
 H 0.7849 0.5968 0.8588   0.135181
 H 0.1211 0.679 0.76   0.133148
 H 0.9648 0.5258 0.6911   0.084919
 H 0.9087 0.8298 0.8822   0.119658
 H 0.0537 0.0043 0.9519   0.104281
 H 0.4 0.0111 0.8889   0.083115
 H 0.2632 0.8119 0.8321   0.109197
 H 0.5362 0.5086 0.659   0.09001
 H 0.5722 0.6935 0.5997   0.134092
 H 0.8074 0.5981 0.4963   0.125264
 H 0.784 0.4274 0.5605   0.07419
 H 0.5599 0.8124 0.5277   0.103682
 H 0.5969 0.995 0.463   0.092113
 H 0.9522 0.0065 0.4019   0.110634
 H 0.9054 0.8123 0.4605   0.112026
 H 0.7699 0.3493 0.13203   0.063764
 H 0.8119 0.2151 0.19213   0.135408
 H 0.5579 0.8789 0.09333   0.133214
 H 0.561 0.0352 0.02443   0.084865
 H 0.9211 0.0913 0.21553   0.119734
 H 0.9506 0.9463 0.28523   0.104383
 H 0.6111 0.6 0.22223   0.083165
 H 0.5487 0.7368 0.16543   0.109227
 H 0.9724 0.4638 0.99233   0.090187
 H 0.1213 0.4278 0.93303   0.134239
 H 0.7907 0.1926 0.82963   0.125305
 H 0.6434 0.216 0.89383   0.074321
 H 0.2525 0.4401 0.86103   0.103725
 H 0.3981 0.4031 0.79633   0.092096
 H 0.0543 0.0478 0.73523   0.110637
 H 0.9069 0.0946 0.79383   0.112009
 H 0.5794 0.2301 0.46537   0.063821
 H 0.4032 0.1881 0.52547   0.135122
 H 0.321 0.4421 0.42667   0.133087
 H 0.4742 0.439 0.35777   0.084827
 H 0.1702 0.0789 0.54887   0.119721
 H 0.9957 0.0494 0.61857   0.104287
 H 0.9889 0.3889 0.55557   0.083115
 H 0.1881 0.4513 0.49877   0.108984
 H 0.4914 0.0276 0.32567   0.090236
 H 0.3065 0.8787 0.26637   0.134037
 H 0.4019 0.2093 0.16297   0.125327
 H 0.5726 0.3566 0.22717   0.074248
 H 0.1876 0.7475 0.19437   0.103552
 H 0.005 0.6019 0.12967   0.092049
 H 0.9935 0.9457 0.06857   0.110618
 H 0.1877 0.0931 0.12717   0.111867
 C 0.7488 0.4818 0.788   0.175898
 C 0.8272 0.5822 0.8248   -0.218209
 C 0.9736 0.6695 0.8141   0.146626
 C 0.02 0.634 0.7668   -0.211207
 C 0.927 0.535 0.7274   0.192031
 C 0.0666 0.7906 0.8534   0.009236
 C 0.007 0.857 0.8864   -0.127006
 C 0.096 0.966 0.9263   -0.01683
 C 0.2467 0.0197 0.9294   -0.114353
 C 0.298 0.966 0.8917   -0.034905
 C 0.2175 0.8508 0.8555   -0.138804
 C 0.3421 0.1479 0.969   0.646521
 C 0.597 0.529 0.6258   0.170439
 C 0.617 0.639 0.5899   -0.203596
 C 0.6989 0.6734 0.5404   0.142198
 C 0.754 0.5857 0.5311   -0.2121
 C 0.737 0.4807 0.569   0.171166
 C 0.726 0.7919 0.5011   0.015855
 C 0.639 0.849 0.5013   -0.122545
 C 0.663 0.96 0.4631   -0.05397
 C 0.776 0.0214 0.4266   -0.10689
 C 0.87 0.966 0.4266   -0.019998
 C 0.843 0.851 0.4622   -0.119632
 C 0.802 0.141 0.3856   0.65117
 C 0.733 0.2512 0.12133   0.176349
 C 0.755 0.1728 0.15813   -0.218391
 C 0.6959 0.0264 0.14743   0.146694
 C 0.614 0.98 0.10013   -0.211138
 C 0.608 0.073 0.06073   0.192377
 C 0.724 0.9334 0.18673   0.009274
 C 0.85 0.993 0.21973   -0.126965
 C 0.87 0.904 0.25963   -0.016963
 C 0.773 0.7533 0.26273   -0.11421
 C 0.668 0.702 0.22503   -0.034831
 C 0.6333 0.7825 0.18883   -0.138756
 C 0.8058 0.6579 0.30233   0.646666
 C 0.932 0.403 0.95913   0.170241
 C 0.022 0.383 0.92323   -0.203601
 C 0.9745 0.3011 0.87373   0.142259
 C 0.8317 0.246 0.86443   -0.212066
 C 0.7437 0.263 0.90233   0.170749
 C 0.0659 0.274 0.83443   0.015835
 C 0.21 0.361 0.83463   -0.122545
 C 0.297 0.337 0.79643   -0.053782
 C 0.2454 0.224 0.75993   -0.107052
 C 0.096 0.13 0.75993   -0.019809
 C 0.008 0.157 0.79553   -0.119431
 C 0.339 0.198 0.71893   0.651282
 C 0.5182 0.267 0.45467   0.176009
 C 0.4178 0.245 0.49147   -0.21814
 C 0.3305 0.3041 0.48077   0.146537
 C 0.366 0.386 0.43347   -0.210956
 C 0.465 0.392 0.39407   0.192224
 C 0.2094 0.276 0.52007   0.009324
 C 0.143 0.15 0.55307   -0.127042
 C 0.034 0.13 0.59297   -0.016761
 C 0.9803 0.227 0.59607   -0.114406
 C 0.034 0.332 0.55837   -0.034805
 C 0.1492 0.3667 0.52217   -0.138514
 C 0.8521 0.1942 0.63567   0.647053
 C 0.471 0.068 0.29247   0.170099
 C 0.361 0.978 0.25657   -0.203389
 C 0.3266 0.0255 0.20707   0.142176
 C 0.4143 0.1683 0.19777   -0.212214
 C 0.5193 0.2563 0.23567   0.171093
 C 0.2081 0.9341 0.16777   0.015933
 C 0.151 0.79 0.16797   -0.122492
 C 0.04 0.703 0.12977   -0.054052
 C 0.9786 0.7546 0.09327   -0.106877
 C 0.034 0.904 0.09327   -0.020001
 C 0.149 0.992 0.12887   -0.119555
 C 0.859 0.661 0.05227   0.651315
 N 0.7882 0.4525 0.7373   -0.364905
 N 0.6578 0.4471 0.6169   -0.36317
 N 0.6643 0.2118 0.07063   -0.365072
 N 0.7893 0.3422 0.95023   -0.361851
 N 0.5475 0.3357 0.40397   -0.364929
 N 0.5529 0.2107 0.28357   -0.362553
 O 0.2782 0.1939 0.0025   -0.621464
 O 0.7107 0.1834 0.3859   -0.611489
 O 0.913 0.1908 0.353   -0.616444
 O 0.4731 0.1863 0.9687   -0.599855
 O 0.9157 0.7218 0.33583   -0.621285
 O 0.4727 0.2893 0.71923   -0.611467
 O 0.2778 0.087 0.68633   -0.616101
 O 0.7132 0.5269 0.30203   -0.600142
 O 0.8061 0.0843 0.66917   -0.621134
 O 0.8166 0.5273 0.05257   -0.611331
 O 0.8092 0.7222 0.01967   -0.616793
 O 0.8137 0.2868 0.63537   -0.600413
