{'_ref': 'TBD', '_srcid': 'CAKYAQ_clean', 'submitters': [{'name': 'Dalar Nazarian Jeff Camp and David Sholl', 'email': 'dalar@gatech.edu jcamp6@gatech.edu'}], '_method': 'VASP DFT with PBE;DDEC'}
data_Cu2H32C45(IN2)2
_symmetry_space_group_name_H-M   'P 1'
_cell_length_a   7.11100036
_cell_length_b   19.45489969
_cell_length_c   19.45490000
_cell_angle_alpha   88.08599931
_cell_angle_beta   79.46980063
_cell_angle_gamma   79.46969992
_symmetry_Int_Tables_number   1
_chemical_formula_structural   Cu2H32C45(IN2)2
_chemical_formula_sum   'Cu4 H64 C90 I4 N8'
_cell_volume   2601.57186426
_cell_formula_units_Z   2
loop_
 _symmetry_equiv_pos_site_id
 _symmetry_equiv_pos_as_xyz
  1  'x, y, z'
loop_
 _atom_site_label
 _atom_site_fract_x
 _atom_site_fract_y
 _atom_site_fract_z
 _atom_site_charge
 Cu 0.875 0.0502 0.4498   0.207923
 Cu 0.375 0.9498 0.5502   0.204045
 Cu 0.6752 0.4498 0.9498   0.207043
 Cu 0.0748 0.5502 0.0502   0.207048
 H 0.8505 0.2076 0.4258   0.084024
 H 0.6131 0.3096 0.4428   0.114433
 H 0.2113 0.1888 0.4972   0.096995
 H 0.45 0.0898 0.4764   0.043985
 H 0.0495 0.2822 0.5608   0.112582
 H 0.7969 0.3762 0.574   0.101676
 H 0.0936 0.475 0.416   0.087287
 H 0.3459 0.38 0.4008   0.098214
 H 0.4839 0.7924 0.5742   0.08365
 H 0.3655 0.6904 0.5572   0.114405
 H 0.8973 0.8112 0.5028   0.097591
 H 0.0162 0.9102 0.5236   0.044802
 H 0.8925 0.7178 0.4392   0.11147
 H 0.7471 0.6238 0.426   0.101761
 H 0.9846 0.525 0.584   0.086801
 H 0.1267 0.62 0.5992   0.098733
 H 0.7237 0.4258 0.7924   0.085608
 H 0.9441 0.4428 0.6904   0.115467
 H 0.2915 0.4972 0.8112   0.097621
 H 0.0736 0.4764 0.9102   0.044524
 H 0.3897 0.5608 0.7178   0.112534
 H 0.6291 0.574 0.6238   0.103201
 H 0.4904 0.416 0.525   0.0878
 H 0.2533 0.4008 0.62   0.099087
 H 0.9419 0.5742 0.2076   0.084512
 H 0.0773 0.5572 0.3096   0.114703
 H 0.5999 0.5028 0.1888   0.097887
 H 0.4602 0.5236 0.0898   0.044244
 H 0.6683 0.4392 0.2822   0.11259
 H 0.8269 0.426 0.3762   0.101808
 H 0.4314 0.584 0.475   0.086771
 H 0.2741 0.5992 0.38   0.09919
 H 0.8995 0.0742 0.2924   0.084027
 H 0.1369 0.0572 0.1904   0.114433
 H 0.5387 0.0028 0.3112   0.096996
 H 0.3 0.0236 0.4102   0.043975
 H 0.7005 0.9392 0.2178   0.11259
 H 0.9531 0.926 0.1238   0.101669
 H 0.6564 0.084 0.025   0.087271
 H 0.4041 0.0992 0.12   0.098218
 H 0.2661 0.9258 0.7076   0.083649
 H 0.3845 0.9428 0.8096   0.114405
 H 0.8527 0.9972 0.6888   0.097593
 H 0.7338 0.9764 0.5898   0.044801
 H 0.8575 0.0608 0.7822   0.111488
 H 0.0029 0.074 0.8762   0.10176
 H 0.7654 0.916 0.975   0.086807
 H 0.6233 0.9008 0.88   0.098729
 H 0.0263 0.7076 0.0742   0.085619
 H 0.8059 0.8096 0.0572   0.115467
 H 0.4585 0.6888 0.0028   0.097621
 H 0.6764 0.5898 0.0236   0.044525
 H 0.3603 0.7822 0.9392   0.112534
 H 0.1209 0.8762 0.926   0.103211
 H 0.2596 0.975 0.084   0.087804
 H 0.4967 0.88 0.0992   0.099088
 H 0.8081 0.2924 0.9258   0.084513
 H 0.6727 0.1904 0.9428   0.114701
 H 0.1501 0.3112 0.9972   0.097894
 H 0.2898 0.4102 0.9764   0.044246
 H 0.0817 0.2178 0.0608   0.112585
 H 0.9231 0.1238 0.074   0.101808
 H 0.3186 0.025 0.916   0.086772
 H 0.4759 0.12 0.9008   0.099189
 C 0.7184 0.204 0.4424   0.121775
 C 0.5769 0.265 0.451   -0.208352
 C 0.385 0.2592 0.4714   0.102875
 C 0.3429 0.1939 0.4823   -0.187787
 C 0.4852 0.1347 0.4723   0.174602
 C 0.2225 0.3205 0.4793   0.021265
 C 0.0577 0.3213 0.5307   -0.103651
 C 0.9075 0.3771 0.5385   -0.125212
 C 0.9147 0.4353 0.4949   0.03031
 C 0.0833 0.4349 0.4449   -0.110311
 C 0.2345 0.379 0.436   -0.102406
 C 0.3648 0.796 0.5576   0.120835
 C 0.2929 0.735 0.549   -0.207656
 C 0.1156 0.7408 0.5286   0.101254
 C 0.0191 0.8061 0.5177   -0.185842
 C 0.0922 0.8653 0.5277   0.169085
 C 0.0223 0.6795 0.5207   0.021362
 C 0.9097 0.6787 0.4693   -0.101811
 C 0.8231 0.6229 0.4615   -0.125006
 C 0.8449 0.5647 0.5051   0.029612
 C 0.9631 0.5651 0.5551   -0.110205
 C 0.0495 0.621 0.564   -0.104065
 C 0.8392 0.4424 0.796   0.118839
 C 0.9721 0.451 0.735   -0.20901
 C 0.1436 0.4714 0.7408   0.105336
 C 0.1748 0.4823 0.8061   -0.188645
 C 0.0425 0.4723 0.8653   0.173225
 C 0.2982 0.4793 0.6795   0.020957
 C 0.4116 0.5307 0.6787   -0.104142
 C 0.554 0.5385 0.6229   -0.126926
 C 0.5904 0.4949 0.5647   0.031134
 C 0.4718 0.4449 0.5651   -0.111366
 C 0.3295 0.436 0.621   -0.10368
 C 0.0776 0.5576 0.204   0.121148
 C 0.1581 0.549 0.265   -0.208458
 C 0.3558 0.5286 0.2592   0.101664
 C 0.4632 0.5177 0.1939   -0.186338
 C 0.3801 0.5277 0.1347   0.172281
 C 0.457 0.5207 0.3205   0.023237
 C 0.621 0.4693 0.3213   -0.104983
 C 0.7154 0.4615 0.3771   -0.123745
 C 0.65 0.5051 0.4353   0.028216
 C 0.4818 0.5551 0.4349   -0.107561
 C 0.3865 0.564 0.379   -0.105613
 C 0.0316 0.0576 0.296   0.12176
 C 0.1731 0.049 0.235   -0.208347
 C 0.365 0.0286 0.2408   0.102872
 C 0.4071 0.0177 0.3061   -0.18779
 C 0.2648 0.0277 0.3653   0.174621
 C 0.5275 0.0207 0.1795   0.021282
 C 0.6923 0.9693 0.1787   -0.10367
 C 0.8425 0.9615 0.1229   -0.12518
 C 0.8353 0.0051 0.0647   0.030306
 C 0.6667 0.0551 0.0651   -0.110299
 C 0.5155 0.064 0.121   -0.102432
 C 0.3852 0.9424 0.704   0.120839
 C 0.4571 0.951 0.765   -0.207662
 C 0.6344 0.9714 0.7592   0.101253
 C 0.7309 0.9823 0.6939   -0.185841
 C 0.6578 0.9723 0.6347   0.169079
 C 0.7277 0.9793 0.8205   0.021359
 C 0.8403 0.0307 0.8213   -0.101833
 C 0.9269 0.0385 0.8771   -0.125002
 C 0.9051 0.9949 0.9353   0.029616
 C 0.7869 0.9449 0.9349   -0.110222
 C 0.7005 0.936 0.879   -0.10405
 C 0.9108 0.704 0.0576   0.118823
 C 0.7779 0.765 0.049   -0.209003
 C 0.6064 0.7592 0.0286   0.10533
 C 0.5752 0.6939 0.0177   -0.188646
 C 0.7075 0.6347 0.0277   0.173225
 C 0.4518 0.8205 0.0207   0.020955
 C 0.3384 0.8213 0.9693   -0.104143
 C 0.196 0.8771 0.9615   -0.126929
 C 0.1596 0.9353 0.0051   0.031128
 C 0.2782 0.9349 0.0551   -0.111358
 C 0.4205 0.879 0.064   -0.103689
 C 0.6724 0.296 0.9424   0.121141
 C 0.5919 0.235 0.951   -0.208445
 C 0.3942 0.2408 0.9714   0.101675
 C 0.2868 0.3061 0.9823   -0.186364
 C 0.3699 0.3653 0.9723   0.172278
 C 0.293 0.1795 0.9793   0.023229
 C 0.129 0.1787 0.0307   -0.104971
 C 0.0346 0.1229 0.0385   -0.123747
 C 0.1 0.0647 0.9949   0.02822
 C 0.2682 0.0651 0.9449   -0.107567
 C 0.3635 0.121 0.936   -0.105609
 C 0.75 0.5 0.5   0.036436
 C 0.0 0.0 0.0   0.036433
 I 0.67807 0.94693 0.44693   -0.413298
 I 0.07193 0.05307 0.55307   -0.413301
 I 0.875 0.44693 0.05307   -0.414195
 I 0.375 0.55307 0.94693   -0.413037
 N 0.6716 0.1407 0.4569   -0.258096
 N 0.2692 0.8593 0.5431   -0.253062
 N 0.8715 0.4569 0.8593   -0.25654
 N 0.1877 0.5431 0.1407   -0.257047
 N 0.0784 0.0431 0.3593   -0.258096
 N 0.4808 0.9569 0.6407   -0.253055
 N 0.8785 0.6407 0.0431   -0.25654
 N 0.5623 0.3593 0.9569   -0.25704
