{'_ref': 'TBD', '_srcid': 'CAKYAQ_clean', 'submitters': [{'name': 'Dalar Nazarian Jeff Camp and David Sholl', 'email': 'dalar@gatech.edu jcamp6@gatech.edu'}], '_method': 'VASP DFT with PBE;DDEC'}
data_ZnHC4O3
_symmetry_space_group_name_H-M   'P 1'
_cell_length_a   6.83650000
_cell_length_b   15.14439685
_cell_length_c   15.14439634
_cell_angle_alpha   117.77732281
_cell_angle_beta   98.65437781
_cell_angle_gamma   98.65437752
_symmetry_Int_Tables_number   1
_chemical_formula_structural   ZnHC4O3
_chemical_formula_sum   'Zn6 H6 C24 O18'
_cell_volume   1327.15586317
_cell_formula_units_Z   6
loop_
 _symmetry_equiv_pos_site_id
 _symmetry_equiv_pos_as_xyz
  1  'x, y, z'
loop_
 _atom_site_label
 _atom_site_fract_x
 _atom_site_fract_y
 _atom_site_fract_z
 _atom_site_charge
 Zn 0.03282 0.73768 0.42208   1.096898
 Zn 0.29514 0.6844 0.26232   1.096482
 Zn 0.61074 0.57792 0.3156   1.096569
 Zn 0.96718 0.26232 0.57792   1.096898
 Zn 0.70486 0.3156 0.73768   1.096482
 Zn 0.38926 0.42208 0.6844   1.096569
 H 0.6992 0.5478 0.52979   0.134402
 H 0.1514 0.98199 0.4522   0.134045
 H 0.16941 0.47021 0.01801   0.133544
 H 0.3008 0.4522 0.47021   0.134402
 H 0.8486 0.01801 0.5478   0.134045
 H 0.83059 0.52979 0.98199   0.133544
 C 0.2376 0.56206 0.38593   0.744698
 C 0.67554 0.82387 0.43794   0.746255
 C 0.85167 0.61407 0.17613   0.744833
 C 0.7624 0.43794 0.61407   0.744698
 C 0.32446 0.17613 0.56206   0.746255
 C 0.14833 0.38593 0.82387   0.744833
 C 0.11166 0.5345 0.44667   -0.269941
 C 0.57716 0.91217 0.4655   -0.269596
 C 0.66499 0.55333 0.08783   -0.268615
 C 0.88834 0.4655 0.55333   -0.269941
 C 0.42284 0.08783 0.5345   -0.269596
 C 0.33501 0.44667 0.91217   -0.268615
 C 0.92939 0.5658 0.46526   0.338236
 C 0.36359 0.89946 0.4342   0.338582
 C 0.46413 0.53474 0.10054   0.33756
 C 0.07061 0.4342 0.53474   0.338236
 C 0.63641 0.10054 0.5658   0.338582
 C 0.53587 0.46526 0.89946   0.33756
 C 0.82294 0.52888 0.51763   -0.141857
 C 0.29406 0.98875 0.47112   -0.142301
 C 0.30531 0.48237 0.01125   -0.1415
 C 0.17706 0.47112 0.48237   -0.141857
 C 0.70594 0.01125 0.52888   -0.142301
 C 0.69469 0.51763 0.98875   -0.1415
 O 0.1778 0.61526 0.34833   -0.65204
 O 0.56254 0.73307 0.38474   -0.652361
 O 0.82947 0.65167 0.26693   -0.652316
 O 0.8222 0.38474 0.65167   -0.65204
 O 0.43746 0.26693 0.61526   -0.652361
 O 0.17053 0.34833 0.73307   -0.652316
 O 0.39727 0.53053 0.37447   -0.59085
 O 0.86674 0.84394 0.46947   -0.591706
 O 0.0228 0.62553 0.15606   -0.590872
 O 0.60273 0.46947 0.62553   -0.59085
 O 0.13326 0.15606 0.53053   -0.591706
 O 0.9772 0.37447 0.84394   -0.590872
 O 0.85451 0.62871 0.43694   -0.659292
 O 0.2258 0.80823 0.37129   -0.659553
 O 0.41757 0.56306 0.19177   -0.659303
 O 0.14549 0.37129 0.56306   -0.659292
 O 0.7742 0.19177 0.62871   -0.659553
 O 0.58243 0.43694 0.80823   -0.659303
