{'_ref': 'TBD', '_srcid': 'CAKYAQ_clean', 'submitters': [{'name': 'Dalar Nazarian Jeff Camp and David Sholl', 'email': 'dalar@gatech.edu jcamp6@gatech.edu'}], '_method': 'VASP DFT with PBE;DDEC'}
data_ZnH7C5NO4
_symmetry_space_group_name_H-M   'P 1'
_cell_length_a   7.22000000
_cell_length_b   10.46300000
_cell_length_c   11.19000000
_cell_angle_alpha   90.00000000
_cell_angle_beta   90.00000000
_cell_angle_gamma   90.00000000
_symmetry_Int_Tables_number   1
_chemical_formula_structural   ZnH7C5NO4
_chemical_formula_sum   'Zn4 H28 C20 N4 O16'
_cell_volume   845.3246034
_cell_formula_units_Z   4
loop_
 _symmetry_equiv_pos_site_id
 _symmetry_equiv_pos_as_xyz
  1  'x, y, z'
loop_
 _atom_site_label
 _atom_site_fract_x
 _atom_site_fract_y
 _atom_site_fract_z
 _atom_site_charge
 Zn 0.3721 0.6788 0.2092   0.908366
 Zn 0.8721 0.3212 0.2908   0.908366
 Zn 0.1279 0.1788 0.7908   0.908366
 Zn 0.6279 0.8212 0.7092   0.908366
 H 0.401 0.46 0.476   0.098519
 H 0.129 0.503 0.574   0.093293
 H 0.248 0.629 0.599   0.09668
 H 0.95 0.632 0.427   0.14514
 H 0.12 0.757 0.456   0.104952
 H 0.549 0.632 0.379   0.339713
 H 0.398 0.709 0.426   0.318639
 H 0.901 0.54 0.024   0.098519
 H 0.629 0.497 0.926   0.093293
 H 0.748 0.371 0.901   0.09668
 H 0.45 0.368 0.073   0.14514
 H 0.62 0.243 0.044   0.104952
 H 0.049 0.368 0.121   0.339713
 H 0.898 0.291 0.074   0.318639
 H 0.099 0.96 0.524   0.098518
 H 0.371 0.003 0.426   0.093293
 H 0.252 0.129 0.401   0.09668
 H 0.55 0.132 0.573   0.14514
 H 0.38 0.257 0.544   0.104952
 H 0.951 0.132 0.621   0.339713
 H 0.102 0.209 0.574   0.318639
 H 0.599 0.04 0.976   0.098518
 H 0.871 0.997 0.074   0.093293
 H 0.752 0.871 0.099   0.09668
 H 0.05 0.868 0.927   0.14514
 H 0.88 0.743 0.956   0.104952
 H 0.451 0.868 0.879   0.339713
 H 0.602 0.791 0.926   0.318639
 C 0.2102 0.4697 0.3399   0.632015
 C 0.3186 0.5377 0.4395   0.035058
 C 0.1872 0.5843 0.5359   -0.130904
 C 0.0361 0.6725 0.4904   -0.321361
 C 0.9121 0.7248 0.589   0.69049
 C 0.7102 0.5303 0.1601   0.632015
 C 0.8186 0.4623 0.0605   0.035058
 C 0.6872 0.4157 0.9641   -0.130904
 C 0.5361 0.3275 0.0096   -0.321361
 C 0.4121 0.2752 0.911   0.69049
 C 0.2898 0.9697 0.6601   0.632015
 C 0.1814 0.0377 0.5605   0.035059
 C 0.3128 0.0843 0.4641   -0.130904
 C 0.4639 0.1725 0.5096   -0.321361
 C 0.5879 0.2248 0.411   0.69049
 C 0.7898 0.0303 0.8399   0.632015
 C 0.6814 0.9623 0.9395   0.035058
 C 0.8128 0.9157 0.0359   -0.130904
 C 0.9639 0.8275 0.9904   -0.321361
 C 0.0879 0.7752 0.089   0.69049
 N 0.4326 0.6419 0.3898   -0.646669
 N 0.9326 0.3581 0.1102   -0.646669
 N 0.0674 0.1419 0.6102   -0.646669
 N 0.5674 0.8581 0.8898   -0.646669
 O 0.2264 0.5065 0.2346   -0.551158
 O 0.1071 0.3788 0.3746   -0.595587
 O 0.7658 0.7847 0.5542   -0.60836
 O 0.9446 0.7086 0.6972   -0.608823
 O 0.7264 0.4935 0.2654   -0.551159
 O 0.6071 0.6212 0.1254   -0.595587
 O 0.2658 0.2153 0.9458   -0.60836
 O 0.4446 0.2914 0.8028   -0.608823
 O 0.2736 0.0065 0.7654   -0.551159
 O 0.3929 0.8788 0.6254   -0.595587
 O 0.7342 0.2847 0.4458   -0.608361
 O 0.5554 0.2086 0.3028   -0.608824
 O 0.7736 0.9935 0.7346   -0.551159
 O 0.8929 0.1212 0.8746   -0.595587
 O 0.2342 0.7153 0.0542   -0.608361
 O 0.0554 0.7914 0.1972   -0.608824
